MODEL 1
REMARK VINA RESULT:      -7.4      0.000      0.000
REMARK  Name = 51137143
REMARK  7 active torsions:
REMARK  status: ('A' for Active; 'I' for Inactive)
REMARK    1  A    between atoms: S_1  and  C_19
REMARK    2  A    between atoms: S_1  and  C_26
REMARK    3  A    between atoms: N_5  and  C_11
REMARK    4  A    between atoms: C_7  and  C_12
REMARK    5  A    between atoms: C_11  and  C_13
REMARK    6  A    between atoms: C_16  and  C_23
REMARK    7  A    between atoms: C_26  and  C_27
REMARK                            x       y       z     vdW  Elec       q    Type
REMARK                         _______ _______ _______ _____ _____    ______ ____
ROOT
ATOM      2  O   UNL     1      18.223   7.316  21.238  0.00  0.00    -0.439 OA
ATOM      6  N   UNL     1      17.953   6.121  19.332  0.00  0.00    -0.213 NA
ATOM     12  C   UNL     1      18.774   6.523  20.276  0.00  0.00    +0.201 A 
ATOM     14  C   UNL     1      16.755   6.690  19.690  0.00  0.00    +0.111 A 
ATOM     15  C   UNL     1      16.917   7.423  20.857  0.00  0.00    +0.155 A 
ATOM     18  C   UNL     1      15.488   6.641  19.091  0.00  0.00    +0.058 A 
ATOM     19  C   UNL     1      14.441   7.341  19.706  0.00  0.00    +0.090 A 
ATOM     20  C   UNL     1      15.905   8.128  21.496  0.00  0.00    +0.050 A 
ATOM     21  C   UNL     1      14.647   8.069  20.884  0.00  0.00    +0.030 A 
ENDROOT
BRANCH  12   7
ATOM      5  N   UNL     1      21.787   5.121  21.818  0.00  0.00    -0.297 NA
ATOM      7  C   UNL     1      20.247   6.220  20.434  0.00  0.00    +0.090 C 
ATOM      8  C   UNL     1      21.036   7.257  21.251  0.00  0.00    +0.029 C 
ATOM      9  C   UNL     1      20.509   4.885  21.144  0.00  0.00    +0.097 C 
ATOM     10  C   UNL     1      21.673   6.464  22.385  0.00  0.00    +0.085 C 
BRANCH   5  11
ATOM     11  C   UNL     1      22.075   4.115  22.830  0.00  0.00    +0.119 C 
BRANCH  11  13
ATOM     13  C   UNL     1      23.037   3.072  22.327  0.00  0.00    -0.030 A 
ATOM     16  C   UNL     1      23.439   2.013  23.141  0.00  0.00    -0.046 A 
ATOM     17  C   UNL     1      23.527   3.174  21.025  0.00  0.00    +0.005 A 
ATOM     22  C   UNL     1      24.331   1.057  22.654  0.00  0.00    +0.003 A 
ATOM     23  C   UNL     1      22.929   1.882  24.539  0.00  0.00    +0.044 C 
ATOM     24  C   UNL     1      24.418   2.219  20.537  0.00  0.00    +0.000 A 
ATOM     25  C   UNL     1      24.820   1.160  21.353  0.00  0.00    +0.000 A 
ENDBRANCH  11  13
ENDBRANCH   5  11
ENDBRANCH  12   7
BRANCH  19   1
ATOM      1  S   UNL     1      12.847   7.305  18.987  0.00  0.00    -0.003 S 
ATOM      3  O   UNL     1      12.985   7.329  17.539  0.00  0.00    -0.169 OA
ATOM      4  O   UNL     1      12.096   6.234  19.627  0.00  0.00    -0.169 OA
BRANCH   1  26
ATOM     26  C   UNL     1      12.113   8.850  19.467  0.00  0.00    +0.168 C 
ATOM     27  C   UNL     1      10.946   8.642  20.407  0.00  0.00    +0.028 C 
ENDBRANCH   1  26
ENDBRANCH  19   1
TORSDOF 5
ENDMDL
MODEL 2
REMARK VINA RESULT:      -6.9     29.722     32.400
REMARK  Name = 51137143
REMARK  7 active torsions:
REMARK  status: ('A' for Active; 'I' for Inactive)
REMARK    1  A    between atoms: S_1  and  C_19
REMARK    2  A    between atoms: S_1  and  C_26
REMARK    3  A    between atoms: N_5  and  C_11
REMARK    4  A    between atoms: C_7  and  C_12
REMARK    5  A    between atoms: C_11  and  C_13
REMARK    6  A    between atoms: C_16  and  C_23
REMARK    7  A    between atoms: C_26  and  C_27
REMARK                            x       y       z     vdW  Elec       q    Type
REMARK                         _______ _______ _______ _____ _____    ______ ____
ROOT
ATOM      2  O   UNL     1     -12.205  -7.673  16.497  0.00  0.00    -0.439 OA
ATOM      6  N   UNL     1     -10.569  -6.418  15.556  0.00  0.00    -0.213 NA
ATOM     12  C   UNL     1     -10.884  -7.343  16.436  0.00  0.00    +0.201 A 
ATOM     14  C   UNL     1     -11.776  -6.103  14.981  0.00  0.00    +0.111 A 
ATOM     15  C   UNL     1     -12.780  -6.869  15.556  0.00  0.00    +0.155 A 
ATOM     18  C   UNL     1     -12.113  -5.187  13.974  0.00  0.00    +0.058 A 
ATOM     19  C   UNL     1     -13.460  -5.090  13.596  0.00  0.00    +0.090 A 
ATOM     20  C   UNL     1     -14.124  -6.802  15.207  0.00  0.00    +0.050 A 
ATOM     21  C   UNL     1     -14.443  -5.883  14.201  0.00  0.00    +0.030 A 
ENDROOT
BRANCH  12   7
ATOM      5  N   UNL     1      -8.696 -10.043  17.598  0.00  0.00    -0.297 NA
ATOM      7  C   UNL     1      -9.974  -8.088  17.386  0.00  0.00    +0.090 C 
ATOM      8  C   UNL     1     -10.689  -9.069  18.330  0.00  0.00    +0.029 C 
ATOM      9  C   UNL     1      -8.924  -8.941  16.661  0.00  0.00    +0.097 C 
ATOM     10  C   UNL     1     -10.029 -10.418  18.071  0.00  0.00    +0.085 C 
BRANCH   5  11
ATOM     11  C   UNL     1      -7.992 -11.158  16.984  0.00  0.00    +0.119 C 
BRANCH  11  13
ATOM     13  C   UNL     1      -6.568 -11.254  17.462  0.00  0.00    -0.030 A 
ATOM     16  C   UNL     1      -6.253 -11.903  18.655  0.00  0.00    -0.046 A 
ATOM     17  C   UNL     1      -5.555 -10.681  16.692  0.00  0.00    +0.005 A 
ATOM     22  C   UNL     1      -4.925 -11.980  19.079  0.00  0.00    +0.003 A 
ATOM     23  C   UNL     1      -7.318 -12.523  19.497  0.00  0.00    +0.044 C 
ATOM     24  C   UNL     1      -4.228 -10.758  17.114  0.00  0.00    +0.000 A 
ATOM     25  C   UNL     1      -3.914 -11.408  18.308  0.00  0.00    +0.000 A 
ENDBRANCH  11  13
ENDBRANCH   5  11
ENDBRANCH  12   7
BRANCH  19   1
ATOM      1  S   UNL     1     -13.919  -3.958  12.344  0.00  0.00    -0.003 S 
ATOM      3  O   UNL     1     -14.473  -4.699  11.222  0.00  0.00    -0.169 OA
ATOM      4  O   UNL     1     -14.697  -2.898  12.969  0.00  0.00    -0.169 OA
BRANCH   1  26
ATOM     26  C   UNL     1     -12.379  -3.259  11.798  0.00  0.00    +0.168 C 
ATOM     27  C   UNL     1     -11.968  -3.809  10.451  0.00  0.00    +0.028 C 
ENDBRANCH   1  26
ENDBRANCH  19   1
TORSDOF 5
ENDMDL
MODEL 3
REMARK VINA RESULT:      -6.8      4.214     11.078
REMARK  Name = 51137143
REMARK  7 active torsions:
REMARK  status: ('A' for Active; 'I' for Inactive)
REMARK    1  A    between atoms: S_1  and  C_19
REMARK    2  A    between atoms: S_1  and  C_26
REMARK    3  A    between atoms: N_5  and  C_11
REMARK    4  A    between atoms: C_7  and  C_12
REMARK    5  A    between atoms: C_11  and  C_13
REMARK    6  A    between atoms: C_16  and  C_23
REMARK    7  A    between atoms: C_26  and  C_27
REMARK                            x       y       z     vdW  Elec       q    Type
REMARK                         _______ _______ _______ _____ _____    ______ ____
ROOT
ATOM      2  O   UNL     1      15.382   7.984  19.636  0.00  0.00    -0.439 OA
ATOM      6  N   UNL     1      16.342   9.279  21.228  0.00  0.00    -0.213 NA
ATOM     12  C   UNL     1      15.314   9.088  20.432  0.00  0.00    +0.201 A 
ATOM     14  C   UNL     1      17.165   8.217  20.944  0.00  0.00    +0.111 A 
ATOM     15  C   UNL     1      16.581   7.422  19.969  0.00  0.00    +0.155 A 
ATOM     18  C   UNL     1      18.417   7.848  21.458  0.00  0.00    +0.058 A 
ATOM     19  C   UNL     1      19.019   6.686  20.956  0.00  0.00    +0.090 A 
ATOM     20  C   UNL     1      17.146   6.264  19.447  0.00  0.00    +0.050 A 
ATOM     21  C   UNL     1      18.394   5.911  19.971  0.00  0.00    +0.030 A 
ENDROOT
BRANCH  12   7
ATOM      5  N   UNL     1      12.136  10.620  21.420  0.00  0.00    -0.297 NA
ATOM      7  C   UNL     1      14.069   9.932  20.284  0.00  0.00    +0.090 C 
ATOM      8  C   UNL     1      12.847   9.189  19.717  0.00  0.00    +0.029 C 
ATOM      9  C   UNL     1      13.583  10.518  21.617  0.00  0.00    +0.097 C 
ATOM     10  C   UNL     1      11.755   9.369  20.764  0.00  0.00    +0.085 C 
BRANCH   5  11
ATOM     11  C   UNL     1      11.418  10.832  22.668  0.00  0.00    +0.119 C 
BRANCH  11  13
ATOM     13  C   UNL     1      10.980  12.263  22.827  0.00  0.00    -0.030 A 
ATOM     16  C   UNL     1      10.732  12.802  24.090  0.00  0.00    -0.046 A 
ATOM     17  C   UNL     1      10.822  13.054  21.689  0.00  0.00    +0.005 A 
ATOM     22  C   UNL     1      10.327  14.131  24.214  0.00  0.00    +0.003 A 
ATOM     23  C   UNL     1      10.893  11.976  25.323  0.00  0.00    +0.044 C 
ATOM     24  C   UNL     1      10.417  14.383  21.812  0.00  0.00    +0.000 A 
ATOM     25  C   UNL     1      10.170  14.921  23.076  0.00  0.00    +0.000 A 
ENDBRANCH  11  13
ENDBRANCH   5  11
ENDBRANCH  12   7
BRANCH  19   1
ATOM      1  S   UNL     1      20.581   6.195  21.572  0.00  0.00    -0.003 S 
ATOM      3  O   UNL     1      20.436   5.816  22.969  0.00  0.00    -0.169 OA
ATOM      4  O   UNL     1      21.158   5.257  20.621  0.00  0.00    -0.169 OA
BRANCH   1  26
ATOM     26  C   UNL     1      21.554   7.682  21.535  0.00  0.00    +0.168 C 
ATOM     27  C   UNL     1      22.199   7.888  20.182  0.00  0.00    +0.028 C 
ENDBRANCH   1  26
ENDBRANCH  19   1
TORSDOF 5
ENDMDL
MODEL 4
REMARK VINA RESULT:      -6.7     31.140     34.415
REMARK  Name = 51137143
REMARK  7 active torsions:
REMARK  status: ('A' for Active; 'I' for Inactive)
REMARK    1  A    between atoms: S_1  and  C_19
REMARK    2  A    between atoms: S_1  and  C_26
REMARK    3  A    between atoms: N_5  and  C_11
REMARK    4  A    between atoms: C_7  and  C_12
REMARK    5  A    between atoms: C_11  and  C_13
REMARK    6  A    between atoms: C_16  and  C_23
REMARK    7  A    between atoms: C_26  and  C_27
REMARK                            x       y       z     vdW  Elec       q    Type
REMARK                         _______ _______ _______ _____ _____    ______ ____
ROOT
ATOM      2  O   UNL     1     -16.267   2.993  23.012  0.00  0.00    -0.439 OA
ATOM      6  N   UNL     1     -15.358   4.450  24.491  0.00  0.00    -0.213 NA
ATOM     12  C   UNL     1     -15.563   4.139  23.230  0.00  0.00    +0.201 A 
ATOM     14  C   UNL     1     -15.976   3.430  25.173  0.00  0.00    +0.111 A 
ATOM     15  C   UNL     1     -16.533   2.536  24.270  0.00  0.00    +0.155 A 
ATOM     18  C   UNL     1     -16.114   3.180  26.546  0.00  0.00    +0.058 A 
ATOM     19  C   UNL     1     -16.812   2.031  26.941  0.00  0.00    +0.090 A 
ATOM     20  C   UNL     1     -17.232   1.387  24.622  0.00  0.00    +0.050 A 
ATOM     21  C   UNL     1     -17.360   1.154  25.996  0.00  0.00    +0.030 A 
ENDROOT
BRANCH  12   7
ATOM      5  N   UNL     1     -14.146   6.897  21.277  0.00  0.00    -0.297 NA
ATOM      7  C   UNL     1     -15.120   4.887  21.994  0.00  0.00    +0.090 C 
ATOM      8  C   UNL     1     -16.197   5.783  21.359  0.00  0.00    +0.029 C 
ATOM      9  C   UNL     1     -13.937   5.829  22.257  0.00  0.00    +0.097 C 
ATOM     10  C   UNL     1     -15.581   7.176  21.325  0.00  0.00    +0.085 C 
BRANCH   5  11
ATOM     11  C   UNL     1     -13.342   8.076  21.560  0.00  0.00    +0.119 C 
BRANCH  11  13
ATOM     13  C   UNL     1     -12.374   8.376  20.447  0.00  0.00    -0.030 A 
ATOM     16  C   UNL     1     -11.795   9.638  20.319  0.00  0.00    -0.046 A 
ATOM     17  C   UNL     1     -12.057   7.369  19.536  0.00  0.00    +0.005 A 
ATOM     22  C   UNL     1     -10.899   9.894  19.280  0.00  0.00    +0.003 A 
ATOM     23  C   UNL     1     -12.118  10.733  21.282  0.00  0.00    +0.044 C 
ATOM     24  C   UNL     1     -11.162   7.623  18.497  0.00  0.00    +0.000 A 
ATOM     25  C   UNL     1     -10.583   8.886  18.369  0.00  0.00    +0.000 A 
ENDBRANCH  11  13
ENDBRANCH   5  11
ENDBRANCH  12   7
BRANCH  19   1
ATOM      1  S   UNL     1     -17.003   1.686  28.645  0.00  0.00    -0.003 S 
ATOM      3  O   UNL     1     -17.882   2.686  29.230  0.00  0.00    -0.169 OA
ATOM      4  O   UNL     1     -17.322   0.272  28.778  0.00  0.00    -0.169 OA
BRANCH   1  26
ATOM     26  C   UNL     1     -15.385   1.950  29.330  0.00  0.00    +0.168 C 
ATOM     27  C   UNL     1     -15.458   2.368  30.781  0.00  0.00    +0.028 C 
ENDBRANCH   1  26
ENDBRANCH  19   1
TORSDOF 5
ENDMDL
MODEL 5
REMARK VINA RESULT:      -6.7     27.563     30.253
REMARK  Name = 51137143
REMARK  7 active torsions:
REMARK  status: ('A' for Active; 'I' for Inactive)
REMARK    1  A    between atoms: S_1  and  C_19
REMARK    2  A    between atoms: S_1  and  C_26
REMARK    3  A    between atoms: N_5  and  C_11
REMARK    4  A    between atoms: C_7  and  C_12
REMARK    5  A    between atoms: C_11  and  C_13
REMARK    6  A    between atoms: C_16  and  C_23
REMARK    7  A    between atoms: C_26  and  C_27
REMARK                            x       y       z     vdW  Elec       q    Type
REMARK                         _______ _______ _______ _____ _____    ______ ____
ROOT
ATOM      2  O   UNL     1      -4.040 -10.973  17.681  0.00  0.00    -0.439 OA
ATOM      6  N   UNL     1      -5.624 -10.517  16.126  0.00  0.00    -0.213 NA
ATOM     12  C   UNL     1      -4.342 -10.592  16.408  0.00  0.00    +0.201 A 
ATOM     14  C   UNL     1      -6.230 -10.877  17.305  0.00  0.00    +0.111 A 
ATOM     15  C   UNL     1      -5.263 -11.156  18.260  0.00  0.00    +0.155 A 
ATOM     18  C   UNL     1      -7.582 -10.993  17.656  0.00  0.00    +0.058 A 
ATOM     19  C   UNL     1      -7.892 -11.388  18.965  0.00  0.00    +0.090 A 
ATOM     20  C   UNL     1      -5.530 -11.550  19.565  0.00  0.00    +0.050 A 
ATOM     21  C   UNL     1      -6.885 -11.661  19.898  0.00  0.00    +0.030 A 
ENDROOT
BRANCH  12   7
ATOM      5  N   UNL     1      -2.119 -11.016  13.526  0.00  0.00    -0.297 NA
ATOM      7  C   UNL     1      -3.162 -10.313  15.505  0.00  0.00    +0.090 C 
ATOM      8  C   UNL     1      -1.885 -11.099  15.848  0.00  0.00    +0.029 C 
ATOM      9  C   UNL     1      -3.443 -10.649  14.034  0.00  0.00    +0.097 C 
ATOM     10  C   UNL     1      -1.532 -11.853  14.572  0.00  0.00    +0.085 C 
BRANCH   5  11
ATOM     11  C   UNL     1      -2.186 -11.698  12.242  0.00  0.00    +0.119 C 
BRANCH  11  13
ATOM     13  C   UNL     1      -3.009 -10.932  11.242  0.00  0.00    -0.030 A 
ATOM     16  C   UNL     1      -2.562  -9.716  10.726  0.00  0.00    -0.046 A 
ATOM     17  C   UNL     1      -4.235 -11.454  10.831  0.00  0.00    +0.005 A 
ATOM     22  C   UNL     1      -3.341  -9.022   9.799  0.00  0.00    +0.003 A 
ATOM     23  C   UNL     1      -1.253  -9.135  11.150  0.00  0.00    +0.044 C 
ATOM     24  C   UNL     1      -5.014 -10.762   9.904  0.00  0.00    +0.000 A 
ATOM     25  C   UNL     1      -4.566  -9.545   9.388  0.00  0.00    +0.000 A 
ENDBRANCH  11  13
ENDBRANCH   5  11
ENDBRANCH  12   7
BRANCH  19   1
ATOM      1  S   UNL     1      -9.568 -11.542  19.440  0.00  0.00    -0.003 S 
ATOM      3  O   UNL     1      -9.868 -10.528  20.439  0.00  0.00    -0.169 OA
ATOM      4  O   UNL     1     -10.368 -11.624  18.226  0.00  0.00    -0.169 OA
BRANCH   1  26
ATOM     26  C   UNL     1      -9.650 -13.119  20.256  0.00  0.00    +0.168 C 
ATOM     27  C   UNL     1     -10.511 -14.097  19.489  0.00  0.00    +0.028 C 
ENDBRANCH   1  26
ENDBRANCH  19   1
TORSDOF 5
ENDMDL
MODEL 6
REMARK VINA RESULT:      -6.6     28.782     31.447
REMARK  Name = 51137143
REMARK  7 active torsions:
REMARK  status: ('A' for Active; 'I' for Inactive)
REMARK    1  A    between atoms: S_1  and  C_19
REMARK    2  A    between atoms: S_1  and  C_26
REMARK    3  A    between atoms: N_5  and  C_11
REMARK    4  A    between atoms: C_7  and  C_12
REMARK    5  A    between atoms: C_11  and  C_13
REMARK    6  A    between atoms: C_16  and  C_23
REMARK    7  A    between atoms: C_26  and  C_27
REMARK                            x       y       z     vdW  Elec       q    Type
REMARK                         _______ _______ _______ _____ _____    ______ ____
ROOT
ATOM      2  O   UNL     1      -7.105 -10.703  18.028  0.00  0.00    -0.439 OA
ATOM      6  N   UNL     1      -8.341  -9.159  16.922  0.00  0.00    -0.213 NA
ATOM     12  C   UNL     1      -7.178  -9.756  17.050  0.00  0.00    +0.201 A 
ATOM     14  C   UNL     1      -9.111  -9.753  17.892  0.00  0.00    +0.111 A 
ATOM     15  C   UNL     1      -8.357 -10.698  18.572  0.00  0.00    +0.155 A 
ATOM     18  C   UNL     1     -10.448  -9.556  18.266  0.00  0.00    +0.058 A 
ATOM     19  C   UNL     1     -10.960 -10.330  19.317  0.00  0.00    +0.090 A 
ATOM     20  C   UNL     1      -8.828 -11.485  19.616  0.00  0.00    +0.050 A 
ATOM     21  C   UNL     1     -10.164 -11.275  19.977  0.00  0.00    +0.030 A 
ENDROOT
BRANCH  12   7
ATOM      5  N   UNL     1      -4.639 -10.401  14.488  0.00  0.00    -0.297 NA
ATOM      7  C   UNL     1      -5.912  -9.531  16.255  0.00  0.00    +0.090 C 
ATOM      8  C   UNL     1      -4.662 -10.231  16.817  0.00  0.00    +0.029 C 
ATOM      9  C   UNL     1      -6.019 -10.031  14.808  0.00  0.00    +0.097 C 
ATOM     10  C   UNL     1      -4.152 -11.102  15.676  0.00  0.00    +0.085 C 
BRANCH   5  11
ATOM     11  C   UNL     1      -4.547 -11.218  13.287  0.00  0.00    +0.119 C 
BRANCH  11  13
ATOM     13  C   UNL     1      -4.303 -10.382  12.058  0.00  0.00    -0.030 A 
ATOM     16  C   UNL     1      -3.017 -10.217  11.546  0.00  0.00    -0.046 A 
ATOM     17  C   UNL     1      -5.387  -9.770  11.430  0.00  0.00    +0.005 A 
ATOM     22  C   UNL     1      -2.814  -9.438  10.406  0.00  0.00    +0.003 A 
ATOM     23  C   UNL     1      -1.840 -10.862  12.201  0.00  0.00    +0.044 C 
ATOM     24  C   UNL     1      -5.186  -8.992  10.290  0.00  0.00    +0.000 A 
ATOM     25  C   UNL     1      -3.898  -8.826   9.778  0.00  0.00    +0.000 A 
ENDBRANCH  11  13
ENDBRANCH   5  11
ENDBRANCH  12   7
BRANCH  19   1
ATOM      1  S   UNL     1     -12.623 -10.111  19.813  0.00  0.00    -0.003 S 
ATOM      3  O   UNL     1     -12.647  -9.327  21.039  0.00  0.00    -0.169 OA
ATOM      4  O   UNL     1     -13.377  -9.663  18.651  0.00  0.00    -0.169 OA
BRANCH   1  26
ATOM     26  C   UNL     1     -13.176 -11.747  20.230  0.00  0.00    +0.168 C 
ATOM     27  C   UNL     1     -13.634 -11.828  21.669  0.00  0.00    +0.028 C 
ENDBRANCH   1  26
ENDBRANCH  19   1
TORSDOF 5
ENDMDL
MODEL 7
REMARK VINA RESULT:      -6.5     27.996     30.454
REMARK  Name = 51137143
REMARK  7 active torsions:
REMARK  status: ('A' for Active; 'I' for Inactive)
REMARK    1  A    between atoms: S_1  and  C_19
REMARK    2  A    between atoms: S_1  and  C_26
REMARK    3  A    between atoms: N_5  and  C_11
REMARK    4  A    between atoms: C_7  and  C_12
REMARK    5  A    between atoms: C_11  and  C_13
REMARK    6  A    between atoms: C_16  and  C_23
REMARK    7  A    between atoms: C_26  and  C_27
REMARK                            x       y       z     vdW  Elec       q    Type
REMARK                         _______ _______ _______ _____ _____    ______ ____
ROOT
ATOM      2  O   UNL     1      -5.615  -9.500  15.880  0.00  0.00    -0.439 OA
ATOM      6  N   UNL     1      -4.913 -11.281  17.092  0.00  0.00    -0.213 NA
ATOM     12  C   UNL     1      -4.628 -10.396  16.163  0.00  0.00    +0.201 A 
ATOM     14  C   UNL     1      -6.195 -10.951  17.462  0.00  0.00    +0.111 A 
ATOM     15  C   UNL     1      -6.628  -9.862  16.721  0.00  0.00    +0.155 A 
ATOM     18  C   UNL     1      -7.062 -11.516  18.408  0.00  0.00    +0.058 A 
ATOM     19  C   UNL     1      -8.334 -10.946  18.558  0.00  0.00    +0.090 A 
ATOM     20  C   UNL     1      -7.879  -9.269  16.841  0.00  0.00    +0.050 A 
ATOM     21  C   UNL     1      -8.732  -9.845  17.790  0.00  0.00    +0.030 A 
ENDROOT
BRANCH  12   7
ATOM      5  N   UNL     1      -2.163 -11.131  13.555  0.00  0.00    -0.297 NA
ATOM      7  C   UNL     1      -3.350 -10.242  15.371  0.00  0.00    +0.090 C 
ATOM      8  C   UNL     1      -2.164 -11.073  15.889  0.00  0.00    +0.029 C 
ATOM      9  C   UNL     1      -3.504 -10.659  13.902  0.00  0.00    +0.097 C 
ATOM     10  C   UNL     1      -1.734 -11.928  14.703  0.00  0.00    +0.085 C 
BRANCH   5  11
ATOM     11  C   UNL     1      -2.145 -11.892  12.314  0.00  0.00    +0.119 C 
BRANCH  11  13
ATOM     13  C   UNL     1      -2.852 -11.166  11.201  0.00  0.00    -0.030 A 
ATOM     16  C   UNL     1      -3.753 -11.831  10.369  0.00  0.00    -0.046 A 
ATOM     17  C   UNL     1      -2.595  -9.809  11.007  0.00  0.00    +0.005 A 
ATOM     22  C   UNL     1      -4.397 -11.138   9.343  0.00  0.00    +0.003 A 
ATOM     23  C   UNL     1      -4.044 -13.283  10.556  0.00  0.00    +0.044 C 
ATOM     24  C   UNL     1      -3.239  -9.116   9.981  0.00  0.00    +0.000 A 
ATOM     25  C   UNL     1      -4.141  -9.781   9.150  0.00  0.00    +0.000 A 
ENDBRANCH  11  13
ENDBRANCH   5  11
ENDBRANCH  12   7
BRANCH  19   1
ATOM      1  S   UNL     1      -9.445 -11.624  19.727  0.00  0.00    -0.003 S 
ATOM      3  O   UNL     1      -8.771 -12.693  20.448  0.00  0.00    -0.169 OA
ATOM      4  O   UNL     1     -10.045 -10.520  20.461  0.00  0.00    -0.169 OA
BRANCH   1  26
ATOM     26  C   UNL     1     -10.714 -12.381  18.740  0.00  0.00    +0.168 C 
ATOM     27  C   UNL     1     -11.952 -11.514  18.669  0.00  0.00    +0.028 C 
ENDBRANCH   1  26
ENDBRANCH  19   1
TORSDOF 5
ENDMDL
MODEL 8
REMARK VINA RESULT:      -6.5     29.783     32.588
REMARK  Name = 51137143
REMARK  7 active torsions:
REMARK  status: ('A' for Active; 'I' for Inactive)
REMARK    1  A    between atoms: S_1  and  C_19
REMARK    2  A    between atoms: S_1  and  C_26
REMARK    3  A    between atoms: N_5  and  C_11
REMARK    4  A    between atoms: C_7  and  C_12
REMARK    5  A    between atoms: C_11  and  C_13
REMARK    6  A    between atoms: C_16  and  C_23
REMARK    7  A    between atoms: C_26  and  C_27
REMARK                            x       y       z     vdW  Elec       q    Type
REMARK                         _______ _______ _______ _____ _____    ______ ____
ROOT
ATOM      2  O   UNL     1     -13.778   7.480  19.956  0.00  0.00    -0.439 OA
ATOM      6  N   UNL     1     -12.310   6.351  21.262  0.00  0.00    -0.213 NA
ATOM     12  C   UNL     1     -12.484   7.250  20.319  0.00  0.00    +0.201 A 
ATOM     14  C   UNL     1     -13.589   5.946  21.555  0.00  0.00    +0.111 A 
ATOM     15  C   UNL     1     -14.491   6.635  20.756  0.00  0.00    +0.155 A 
ATOM     18  C   UNL     1     -14.078   5.007  22.474  0.00  0.00    +0.058 A 
ATOM     19  C   UNL     1     -15.465   4.810  22.540  0.00  0.00    +0.090 A 
ATOM     20  C   UNL     1     -15.870   6.468  20.793  0.00  0.00    +0.050 A 
ATOM     21  C   UNL     1     -16.341   5.527  21.716  0.00  0.00    +0.030 A 
ENDROOT
BRANCH  12   7
ATOM      5  N   UNL     1     -11.175   9.823  18.063  0.00  0.00    -0.297 NA
ATOM      7  C   UNL     1     -11.439   8.061  19.587  0.00  0.00    +0.090 C 
ATOM      8  C   UNL     1     -11.027   7.498  18.216  0.00  0.00    +0.029 C 
ATOM      9  C   UNL     1     -11.894   9.498  19.297  0.00  0.00    +0.097 C 
ATOM     10  C   UNL     1     -11.295   8.627  17.229  0.00  0.00    +0.085 C 
BRANCH   5  11
ATOM     11  C   UNL     1     -11.705  11.010  17.408  0.00  0.00    +0.119 C 
BRANCH  11  13
ATOM     13  C   UNL     1     -10.677  12.107  17.319  0.00  0.00    -0.030 A 
ATOM     16  C   UNL     1     -10.864  13.321  17.979  0.00  0.00    -0.046 A 
ATOM     17  C   UNL     1      -9.524  11.895  16.563  0.00  0.00    +0.005 A 
ATOM     22  C   UNL     1      -9.899  14.324  17.883  0.00  0.00    +0.003 A 
ATOM     23  C   UNL     1     -12.090  13.572  18.794  0.00  0.00    +0.044 C 
ATOM     24  C   UNL     1      -8.559  12.897  16.467  0.00  0.00    +0.000 A 
ATOM     25  C   UNL     1      -8.746  14.112  17.127  0.00  0.00    +0.000 A 
ENDBRANCH  11  13
ENDBRANCH   5  11
ENDBRANCH  12   7
BRANCH  19   1
ATOM      1  S   UNL     1     -16.112   3.645  23.674  0.00  0.00    -0.003 S 
ATOM      3  O   UNL     1     -16.523   2.457  22.943  0.00  0.00    -0.169 OA
ATOM      4  O   UNL     1     -15.169   3.528  24.777  0.00  0.00    -0.169 OA
BRANCH   1  26
ATOM     26  C   UNL     1     -17.589   4.412  24.296  0.00  0.00    +0.168 C 
ATOM     27  C   UNL     1     -18.829   3.666  23.856  0.00  0.00    +0.028 C 
ENDBRANCH   1  26
ENDBRANCH  19   1
TORSDOF 5
ENDMDL
MODEL 9
REMARK VINA RESULT:      -6.3     28.229     32.902
REMARK  Name = 51137143
REMARK  7 active torsions:
REMARK  status: ('A' for Active; 'I' for Inactive)
REMARK    1  A    between atoms: S_1  and  C_19
REMARK    2  A    between atoms: S_1  and  C_26
REMARK    3  A    between atoms: N_5  and  C_11
REMARK    4  A    between atoms: C_7  and  C_12
REMARK    5  A    between atoms: C_11  and  C_13
REMARK    6  A    between atoms: C_16  and  C_23
REMARK    7  A    between atoms: C_26  and  C_27
REMARK                            x       y       z     vdW  Elec       q    Type
REMARK                         _______ _______ _______ _____ _____    ______ ____
ROOT
ATOM      2  O   UNL     1      -6.983  -9.930  18.184  0.00  0.00    -0.439 OA
ATOM      6  N   UNL     1      -7.056  -9.358  15.992  0.00  0.00    -0.213 NA
ATOM     12  C   UNL     1      -7.657  -9.333  17.161  0.00  0.00    +0.201 A 
ATOM     14  C   UNL     1      -5.884 -10.025  16.253  0.00  0.00    +0.111 A 
ATOM     15  C   UNL     1      -5.836 -10.378  17.594  0.00  0.00    +0.155 A 
ATOM     18  C   UNL     1      -4.811 -10.376  15.421  0.00  0.00    +0.058 A 
ATOM     19  C   UNL     1      -3.735 -11.071  15.991  0.00  0.00    +0.090 A 
ATOM     20  C   UNL     1      -4.789 -11.065  18.195  0.00  0.00    +0.050 A 
ATOM     21  C   UNL     1      -3.726 -11.407  17.351  0.00  0.00    +0.030 A 
ENDROOT
BRANCH  12   7
ATOM      5  N   UNL     1     -11.295  -9.184  17.567  0.00  0.00    -0.297 NA
ATOM      7  C   UNL     1      -8.996  -8.728  17.517  0.00  0.00    +0.090 C 
ATOM      8  C   UNL     1      -9.693  -7.979  16.369  0.00  0.00    +0.029 C 
ATOM      9  C   UNL     1     -10.020  -9.774  17.978  0.00  0.00    +0.097 C 
ATOM     10  C   UNL     1     -11.051  -8.655  16.225  0.00  0.00    +0.085 C 
BRANCH   5  11
ATOM     11  C   UNL     1     -12.387 -10.146  17.592  0.00  0.00    +0.119 C 
BRANCH  11  13
ATOM     13  C   UNL     1     -13.477  -9.732  18.544  0.00  0.00    -0.030 A 
ATOM     16  C   UNL     1     -14.700  -9.255  18.071  0.00  0.00    -0.046 A 
ATOM     17  C   UNL     1     -13.252  -9.831  19.917  0.00  0.00    +0.005 A 
ATOM     22  C   UNL     1     -15.697  -8.877  18.971  0.00  0.00    +0.003 A 
ATOM     23  C   UNL     1     -14.965  -9.140  16.606  0.00  0.00    +0.044 C 
ATOM     24  C   UNL     1     -14.248  -9.453  20.817  0.00  0.00    +0.000 A 
ATOM     25  C   UNL     1     -15.471  -8.976  20.343  0.00  0.00    +0.000 A 
ENDBRANCH  11  13
ENDBRANCH   5  11
ENDBRANCH  12   7
BRANCH  19   1
ATOM      1  S   UNL     1      -2.379 -11.527  14.985  0.00  0.00    -0.003 S 
ATOM      3  O   UNL     1      -1.147 -11.131  15.651  0.00  0.00    -0.169 OA
ATOM      4  O   UNL     1      -2.572 -12.911  14.580  0.00  0.00    -0.169 OA
BRANCH   1  26
ATOM     26  C   UNL     1      -2.541 -10.505  13.540  0.00  0.00    +0.168 C 
ATOM     27  C   UNL     1      -2.224 -11.275  12.278  0.00  0.00    +0.028 C 
ENDBRANCH   1  26
ENDBRANCH  19   1
TORSDOF 5
ENDMDL
MODEL 10
REMARK VINA RESULT:      -6.3     27.887     31.663
REMARK  Name = 51137143
REMARK  7 active torsions:
REMARK  status: ('A' for Active; 'I' for Inactive)
REMARK    1  A    between atoms: S_1  and  C_19
REMARK    2  A    between atoms: S_1  and  C_26
REMARK    3  A    between atoms: N_5  and  C_11
REMARK    4  A    between atoms: C_7  and  C_12
REMARK    5  A    between atoms: C_11  and  C_13
REMARK    6  A    between atoms: C_16  and  C_23
REMARK    7  A    between atoms: C_26  and  C_27
REMARK                            x       y       z     vdW  Elec       q    Type
REMARK                         _______ _______ _______ _____ _____    ______ ____
ROOT
ATOM      2  O   UNL     1      -8.592  -9.669  17.944  0.00  0.00    -0.439 OA
ATOM      6  N   UNL     1      -8.712 -10.941  19.816  0.00  0.00    -0.213 NA
ATOM     12  C   UNL     1      -7.945 -10.396  18.898  0.00  0.00    +0.201 A 
ATOM     14  C   UNL     1      -9.975 -10.547  19.448  0.00  0.00    +0.111 A 
ATOM     15  C   UNL     1      -9.906  -9.769  18.302  0.00  0.00    +0.155 A 
ATOM     18  C   UNL     1     -11.230 -10.800  20.021  0.00  0.00    +0.058 A 
ATOM     19  C   UNL     1     -12.361 -10.250  19.401  0.00  0.00    +0.090 A 
ATOM     20  C   UNL     1     -11.002  -9.206  17.660  0.00  0.00    +0.050 A 
ATOM     21  C   UNL     1     -12.247  -9.468  18.244  0.00  0.00    +0.030 A 
ENDROOT
BRANCH  12   7
ATOM      5  N   UNL     1      -4.726 -11.509  17.549  0.00  0.00    -0.297 NA
ATOM      7  C   UNL     1      -6.441 -10.470  18.763  0.00  0.00    +0.090 C 
ATOM      8  C   UNL     1      -5.765 -11.539  19.640  0.00  0.00    +0.029 C 
ATOM      9  C   UNL     1      -5.985 -10.793  17.334  0.00  0.00    +0.097 C 
ATOM     10  C   UNL     1      -4.993 -12.418  18.664  0.00  0.00    +0.085 C 
BRANCH   5  11
ATOM     11  C   UNL     1      -4.276 -12.212  16.357  0.00  0.00    +0.119 C 
BRANCH  11  13
ATOM     13  C   UNL     1      -3.263 -11.412  15.582  0.00  0.00    -0.030 A 
ATOM     16  C   UNL     1      -3.421 -11.184  14.215  0.00  0.00    -0.046 A 
ATOM     17  C   UNL     1      -2.153 -10.896  16.250  0.00  0.00    +0.005 A 
ATOM     22  C   UNL     1      -2.470 -10.440  13.517  0.00  0.00    +0.003 A 
ATOM     23  C   UNL     1      -4.601 -11.727  13.477  0.00  0.00    +0.044 C 
ATOM     24  C   UNL     1      -1.202 -10.152  15.553  0.00  0.00    +0.000 A 
ATOM     25  C   UNL     1      -1.361  -9.923  14.186  0.00  0.00    +0.000 A 
ENDBRANCH  11  13
ENDBRANCH   5  11
ENDBRANCH  12   7
BRANCH  19   1
ATOM      1  S   UNL     1     -13.943 -10.545  20.085  0.00  0.00    -0.003 S 
ATOM      3  O   UNL     1     -14.498  -9.281  20.544  0.00  0.00    -0.169 OA
ATOM      4  O   UNL     1     -14.689 -11.365  19.142  0.00  0.00    -0.169 OA
BRANCH   1  26
ATOM     26  C   UNL     1     -13.620 -11.527  21.530  0.00  0.00    +0.168 C 
ATOM     27  C   UNL     1     -14.119 -12.945  21.360  0.00  0.00    +0.028 C 
ENDBRANCH   1  26
ENDBRANCH  19   1
TORSDOF 5
ENDMDL
