MODEL 1
REMARK VINA RESULT:      -8.0      0.000      0.000
REMARK  Name = 25338976
REMARK  10 active torsions:
REMARK  status: ('A' for Active; 'I' for Inactive)
REMARK    1  A    between atoms: S_1  and  N_10
REMARK    2  A    between atoms: S_1  and  C_21
REMARK    3  A    between atoms: O_7  and  C_18
REMARK    4  A    between atoms: O_7  and  C_30
REMARK    5  A    between atoms: O_9  and  C_34
REMARK    6  A    between atoms: O_9  and  C_35
REMARK    7  A    between atoms: N_11  and  C_19
REMARK    8  A    between atoms: C_13  and  C_18
REMARK    9  A    between atoms: C_19  and  C_22
REMARK   10  A    between atoms: C_25  and  C_31
REMARK                            x       y       z     vdW  Elec       q    Type
REMARK                         _______ _______ _______ _____ _____    ______ ____
ROOT
ATOM     10  N   UNL     1      14.339   8.459  20.249  0.00  0.00    -0.157 NA
ATOM     11  N   UNL     1      11.280  10.037  21.728  0.00  0.00    -0.328 N 
ATOM     12  N   UNL     1      10.521   7.939  21.838  0.00  0.00    -0.240 NA
ATOM     13  C   UNL     1      13.607   7.242  19.736  0.00  0.00    +0.194 C 
ATOM     14  C   UNL     1      13.484   9.682  20.494  0.00  0.00    +0.165 C 
ATOM     15  C   UNL     1      12.457   6.802  20.665  0.00  0.00    +0.089 C 
ATOM     16  C   UNL     1      12.219   9.257  21.123  0.00  0.00    +0.057 A 
ATOM     17  C   UNL     1      11.729   7.976  21.198  0.00  0.00    +0.066 A 
ATOM     20  C   UNL     1      10.277   9.198  22.143  0.00  0.00    +0.200 A 
ENDROOT
BRANCH  10   1
ATOM      1  S   UNL     1      15.556   8.153  21.420  0.00  0.00    +0.062 S 
ATOM      5  O   UNL     1      14.989   7.372  22.496  0.00  0.00    -0.153 OA
ATOM      6  O   UNL     1      16.272   9.382  21.685  0.00  0.00    -0.153 OA
BRANCH   1  21
ATOM     21  C   UNL     1      16.620   7.097  20.487  0.00  0.00    +0.106 A 
ATOM     23  C   UNL     1      17.915   6.841  20.935  0.00  0.00    +0.041 A 
ATOM     24  C   UNL     1      16.165   6.520  19.302  0.00  0.00    +0.028 A 
ATOM     25  C   UNL     1      18.756   6.007  20.197  0.00  0.00    +0.057 A 
ATOM     28  C   UNL     1      17.005   5.685  18.564  0.00  0.00    +0.002 A 
ATOM     29  C   UNL     1      18.301   5.429  19.013  0.00  0.00    +0.012 A 
BRANCH  25  31
ATOM      2  F   UNL     1      20.246   5.777  22.036  0.00  0.00    -0.166 F 
ATOM      3  F   UNL     1      20.612   4.502  20.314  0.00  0.00    -0.166 F 
ATOM      4  F   UNL     1      21.069   6.619  20.208  0.00  0.00    -0.166 F 
ATOM     31  C   UNL     1      20.142   5.732  20.676  0.00  0.00    +0.417 C 
ENDBRANCH  25  31
ENDBRANCH   1  21
ENDBRANCH  10   1
BRANCH  13  18
ATOM      8  O   UNL     1      12.118   7.118  17.850  0.00  0.00    -0.249 OA
ATOM     18  C   UNL     1      13.133   7.575  18.355  0.00  0.00    +0.326 C 
BRANCH  18   7
ATOM      7  O   UNL     1      14.002   8.451  17.774  0.00  0.00    -0.467 OA
ATOM     30  C   UNL     1      14.015   8.447  16.344  0.00  0.00    +0.280 C 
ENDBRANCH  18   7
ENDBRANCH  13  18
BRANCH  11  19
ATOM     19  C   UNL     1      11.315  11.470  21.900  0.00  0.00    +0.158 C 
BRANCH  19  22
ATOM     22  C   UNL     1      11.858  11.898  23.240  0.00  0.00    -0.028 A 
ATOM     26  C   UNL     1      13.235  11.896  23.468  0.00  0.00    +0.009 A 
ATOM     27  C   UNL     1      10.984  12.298  24.252  0.00  0.00    +0.009 A 
ATOM     32  C   UNL     1      13.736  12.292  24.707  0.00  0.00    +0.046 A 
ATOM     33  C   UNL     1      11.487  12.694  25.491  0.00  0.00    +0.046 A 
ATOM     34  C   UNL     1      12.863  12.691  25.719  0.00  0.00    +0.120 A 
BRANCH  34   9
ATOM      9  O   UNL     1      13.353  13.079  26.928  0.00  0.00    -0.495 OA
ATOM     35  C   UNL     1      14.252  14.187  26.939  0.00  0.00    +0.277 C 
ENDBRANCH  34   9
ENDBRANCH  19  22
ENDBRANCH  11  19
TORSDOF 8
ENDMDL
MODEL 2
REMARK VINA RESULT:      -7.6     27.985     29.650
REMARK  Name = 25338976
REMARK  10 active torsions:
REMARK  status: ('A' for Active; 'I' for Inactive)
REMARK    1  A    between atoms: S_1  and  N_10
REMARK    2  A    between atoms: S_1  and  C_21
REMARK    3  A    between atoms: O_7  and  C_18
REMARK    4  A    between atoms: O_7  and  C_30
REMARK    5  A    between atoms: O_9  and  C_34
REMARK    6  A    between atoms: O_9  and  C_35
REMARK    7  A    between atoms: N_11  and  C_19
REMARK    8  A    between atoms: C_13  and  C_18
REMARK    9  A    between atoms: C_19  and  C_22
REMARK   10  A    between atoms: C_25  and  C_31
REMARK                            x       y       z     vdW  Elec       q    Type
REMARK                         _______ _______ _______ _____ _____    ______ ____
ROOT
ATOM     10  N   UNL     1      -5.516 -12.106  15.803  0.00  0.00    -0.157 NA
ATOM     11  N   UNL     1      -8.660 -12.052  17.839  0.00  0.00    -0.328 N 
ATOM     12  N   UNL     1      -7.300 -12.531  19.546  0.00  0.00    -0.240 NA
ATOM     13  C   UNL     1      -4.780 -13.027  16.748  0.00  0.00    +0.194 C 
ATOM     14  C   UNL     1      -7.025 -12.155  15.885  0.00  0.00    +0.165 C 
ATOM     15  C   UNL     1      -5.154 -12.789  18.225  0.00  0.00    +0.089 C 
ATOM     16  C   UNL     1      -7.420 -12.233  17.303  0.00  0.00    +0.057 A 
ATOM     17  C   UNL     1      -6.605 -12.530  18.368  0.00  0.00    +0.066 A 
ATOM     20  C   UNL     1      -8.537 -12.240  19.193  0.00  0.00    +0.200 A 
ENDROOT
BRANCH  10   1
ATOM      1  S   UNL     1      -4.830 -10.545  15.605  0.00  0.00    +0.062 S 
ATOM      5  O   UNL     1      -4.000 -10.246  16.751  0.00  0.00    -0.153 OA
ATOM      6  O   UNL     1      -5.864  -9.630  15.172  0.00  0.00    -0.153 OA
BRANCH   1  21
ATOM     21  C   UNL     1      -3.766 -10.850  14.230  0.00  0.00    +0.106 A 
ATOM     23  C   UNL     1      -3.993 -10.204  13.015  0.00  0.00    +0.041 A 
ATOM     24  C   UNL     1      -2.698 -11.737  14.360  0.00  0.00    +0.028 A 
ATOM     25  C   UNL     1      -3.152 -10.446  11.929  0.00  0.00    +0.057 A 
ATOM     28  C   UNL     1      -1.856 -11.979  13.274  0.00  0.00    +0.002 A 
ATOM     29  C   UNL     1      -2.084 -11.333  12.058  0.00  0.00    +0.012 A 
BRANCH  25  31
ATOM      2  F   UNL     1      -2.308  -9.053  10.197  0.00  0.00    -0.166 F 
ATOM      3  F   UNL     1      -3.710 -10.607   9.608  0.00  0.00    -0.166 F 
ATOM      4  F   UNL     1      -4.421  -8.855  10.671  0.00  0.00    -0.166 F 
ATOM     31  C   UNL     1      -3.395  -9.756  10.629  0.00  0.00    +0.417 C 
ENDBRANCH  25  31
ENDBRANCH   1  21
ENDBRANCH  10   1
BRANCH  13  18
ATOM      8  O   UNL     1      -5.563 -15.286  17.017  0.00  0.00    -0.249 OA
ATOM     18  C   UNL     1      -5.073 -14.425  16.300  0.00  0.00    +0.326 C 
BRANCH  18   7
ATOM      7  O   UNL     1      -4.710 -14.570  14.994  0.00  0.00    -0.467 OA
ATOM     30  C   UNL     1      -3.547 -15.371  14.763  0.00  0.00    +0.280 C 
ENDBRANCH  18   7
ENDBRANCH  13  18
BRANCH  11  19
ATOM     19  C   UNL     1      -9.878 -11.731  17.134  0.00  0.00    +0.158 C 
BRANCH  19  22
ATOM     22  C   UNL     1      -9.965 -10.284  16.719  0.00  0.00    -0.028 A 
ATOM     26  C   UNL     1      -9.940  -9.943  15.366  0.00  0.00    +0.009 A 
ATOM     27  C   UNL     1     -10.073  -9.286  17.688  0.00  0.00    +0.009 A 
ATOM     32  C   UNL     1     -10.020  -8.605  14.983  0.00  0.00    +0.046 A 
ATOM     33  C   UNL     1     -10.153  -7.947  17.304  0.00  0.00    +0.046 A 
ATOM     34  C   UNL     1     -10.128  -7.607  15.951  0.00  0.00    +0.120 A 
BRANCH  34   9
ATOM      9  O   UNL     1     -10.207  -6.301  15.577  0.00  0.00    -0.495 OA
ATOM     35  C   UNL     1     -11.497  -5.806  15.217  0.00  0.00    +0.277 C 
ENDBRANCH  34   9
ENDBRANCH  19  22
ENDBRANCH  11  19
TORSDOF 8
ENDMDL
MODEL 3
REMARK VINA RESULT:      -7.5     27.963     31.040
REMARK  Name = 25338976
REMARK  10 active torsions:
REMARK  status: ('A' for Active; 'I' for Inactive)
REMARK    1  A    between atoms: S_1  and  N_10
REMARK    2  A    between atoms: S_1  and  C_21
REMARK    3  A    between atoms: O_7  and  C_18
REMARK    4  A    between atoms: O_7  and  C_30
REMARK    5  A    between atoms: O_9  and  C_34
REMARK    6  A    between atoms: O_9  and  C_35
REMARK    7  A    between atoms: N_11  and  C_19
REMARK    8  A    between atoms: C_13  and  C_18
REMARK    9  A    between atoms: C_19  and  C_22
REMARK   10  A    between atoms: C_25  and  C_31
REMARK                            x       y       z     vdW  Elec       q    Type
REMARK                         _______ _______ _______ _____ _____    ______ ____
ROOT
ATOM     10  N   UNL     1      -9.222  -9.948  17.010  0.00  0.00    -0.157 NA
ATOM     11  N   UNL     1      -5.802 -11.374  17.568  0.00  0.00    -0.328 N 
ATOM     12  N   UNL     1      -6.889 -13.312  17.794  0.00  0.00    -0.240 NA
ATOM     13  C   UNL     1      -9.930 -11.036  17.782  0.00  0.00    +0.194 C 
ATOM     14  C   UNL     1      -7.759  -9.754  17.344  0.00  0.00    +0.165 C 
ATOM     15  C   UNL     1      -9.252 -12.413  17.631  0.00  0.00    +0.089 C 
ATOM     16  C   UNL     1      -7.131 -11.078  17.507  0.00  0.00    +0.057 A 
ATOM     17  C   UNL     1      -7.777 -12.282  17.653  0.00  0.00    +0.066 A 
ATOM     20  C   UNL     1      -5.707 -12.731  17.740  0.00  0.00    +0.200 A 
ENDROOT
BRANCH  10   1
ATOM      1  S   UNL     1      -9.627  -9.836  15.346  0.00  0.00    +0.062 S 
ATOM      5  O   UNL     1     -10.534 -10.911  15.008  0.00  0.00    -0.153 OA
ATOM      6  O   UNL     1      -8.418  -9.611  14.583  0.00  0.00    -0.153 OA
BRANCH   1  21
ATOM     21  C   UNL     1     -10.550  -8.332  15.356  0.00  0.00    +0.106 A 
ATOM     23  C   UNL     1     -11.380  -8.016  14.280  0.00  0.00    +0.041 A 
ATOM     24  C   UNL     1     -10.449  -7.459  16.438  0.00  0.00    +0.028 A 
ATOM     25  C   UNL     1     -12.109  -6.826  14.288  0.00  0.00    +0.057 A 
ATOM     28  C   UNL     1     -11.178  -6.269  16.447  0.00  0.00    +0.002 A 
ATOM     29  C   UNL     1     -12.008  -5.953  15.371  0.00  0.00    +0.012 A 
BRANCH  25  31
ATOM      2  F   UNL     1     -14.034  -5.677  13.497  0.00  0.00    -0.166 F 
ATOM      3  F   UNL     1     -12.355  -5.834  12.125  0.00  0.00    -0.166 F 
ATOM      4  F   UNL     1     -13.571  -7.578  12.550  0.00  0.00    -0.166 F 
ATOM     31  C   UNL     1     -12.997  -6.488  13.138  0.00  0.00    +0.417 C 
ENDBRANCH  25  31
ENDBRANCH   1  21
ENDBRANCH  10   1
BRANCH  13  18
ATOM      8  O   UNL     1      -9.368 -11.101  20.121  0.00  0.00    -0.249 OA
ATOM     18  C   UNL     1      -9.992 -10.581  19.207  0.00  0.00    +0.326 C 
BRANCH  18   7
ATOM      7  O   UNL     1     -10.839  -9.517  19.309  0.00  0.00    -0.467 OA
ATOM     30  C   UNL     1     -12.189  -9.765  18.905  0.00  0.00    +0.280 C 
ENDBRANCH  18   7
ENDBRANCH  13  18
BRANCH  11  19
ATOM     19  C   UNL     1      -4.697 -10.449  17.478  0.00  0.00    +0.158 C 
BRANCH  19  22
ATOM     22  C   UNL     1      -3.921 -10.570  16.191  0.00  0.00    -0.028 A 
ATOM     26  C   UNL     1      -2.532 -10.696  16.223  0.00  0.00    +0.009 A 
ATOM     27  C   UNL     1      -4.592 -10.556  14.968  0.00  0.00    +0.009 A 
ATOM     32  C   UNL     1      -1.814 -10.807  15.033  0.00  0.00    +0.046 A 
ATOM     33  C   UNL     1      -3.874 -10.667  13.777  0.00  0.00    +0.046 A 
ATOM     34  C   UNL     1      -2.485 -10.794  13.810  0.00  0.00    +0.120 A 
BRANCH  34   9
ATOM      9  O   UNL     1      -1.785 -10.903  12.648  0.00  0.00    -0.495 OA
ATOM     35  C   UNL     1      -2.276 -10.175  11.522  0.00  0.00    +0.277 C 
ENDBRANCH  34   9
ENDBRANCH  19  22
ENDBRANCH  11  19
TORSDOF 8
ENDMDL
MODEL 4
REMARK VINA RESULT:      -7.5     17.370     21.138
REMARK  Name = 25338976
REMARK  10 active torsions:
REMARK  status: ('A' for Active; 'I' for Inactive)
REMARK    1  A    between atoms: S_1  and  N_10
REMARK    2  A    between atoms: S_1  and  C_21
REMARK    3  A    between atoms: O_7  and  C_18
REMARK    4  A    between atoms: O_7  and  C_30
REMARK    5  A    between atoms: O_9  and  C_34
REMARK    6  A    between atoms: O_9  and  C_35
REMARK    7  A    between atoms: N_11  and  C_19
REMARK    8  A    between atoms: C_13  and  C_18
REMARK    9  A    between atoms: C_19  and  C_22
REMARK   10  A    between atoms: C_25  and  C_31
REMARK                            x       y       z     vdW  Elec       q    Type
REMARK                         _______ _______ _______ _____ _____    ______ ____
ROOT
ATOM     10  N   UNL     1      12.137   6.030   0.606  0.00  0.00    -0.157 NA
ATOM     11  N   UNL     1      10.171   7.621   3.370  0.00  0.00    -0.328 N 
ATOM     12  N   UNL     1      11.625   9.302   3.137  0.00  0.00    -0.240 NA
ATOM     13  C   UNL     1      13.405   6.793   0.910  0.00  0.00    +0.194 C 
ATOM     14  C   UNL     1      11.153   5.915   1.748  0.00  0.00    +0.165 C 
ATOM     15  C   UNL     1      13.134   8.226   1.411  0.00  0.00    +0.089 C 
ATOM     16  C   UNL     1      11.090   7.210   2.451  0.00  0.00    +0.057 A 
ATOM     17  C   UNL     1      11.974   8.255   2.330  0.00  0.00    +0.066 A 
ATOM     20  C   UNL     1      10.535   8.888   3.752  0.00  0.00    +0.200 A 
ENDROOT
BRANCH  10   1
ATOM      1  S   UNL     1      11.452   6.318  -0.942  0.00  0.00    +0.062 S 
ATOM      5  O   UNL     1      12.367   7.123  -1.720  0.00  0.00    -0.153 OA
ATOM      6  O   UNL     1      10.069   6.707  -0.777  0.00  0.00    -0.153 OA
BRANCH   1  21
ATOM     21  C   UNL     1      11.481   4.679  -1.598  0.00  0.00    +0.106 A 
ATOM     23  C   UNL     1      10.472   4.257  -2.464  0.00  0.00    +0.041 A 
ATOM     24  C   UNL     1      12.512   3.807  -1.251  0.00  0.00    +0.028 A 
ATOM     25  C   UNL     1      10.494   2.962  -2.981  0.00  0.00    +0.057 A 
ATOM     28  C   UNL     1      12.535   2.512  -1.769  0.00  0.00    +0.002 A 
ATOM     29  C   UNL     1      11.525   2.089  -2.634  0.00  0.00    +0.012 A 
BRANCH  25  31
ATOM      2  F   UNL     1       8.400   3.415  -4.012  0.00  0.00    -0.166 F 
ATOM      3  F   UNL     1       9.846   2.294  -5.185  0.00  0.00    -0.166 F 
ATOM      4  F   UNL     1       8.825   1.338  -3.528  0.00  0.00    -0.166 F 
ATOM     31  C   UNL     1       9.415   2.510  -3.907  0.00  0.00    +0.417 C 
ENDBRANCH  25  31
ENDBRANCH   1  21
ENDBRANCH  10   1
BRANCH  13  18
ATOM      8  O   UNL     1      14.281   6.259   3.086  0.00  0.00    -0.249 OA
ATOM     18  C   UNL     1      14.172   5.974   1.902  0.00  0.00    +0.326 C 
BRANCH  18   7
ATOM      7  O   UNL     1      14.710   4.888   1.277  0.00  0.00    -0.467 OA
ATOM     30  C   UNL     1      14.334   3.618   1.819  0.00  0.00    +0.280 C 
ENDBRANCH  18   7
ENDBRANCH  13  18
BRANCH  11  19
ATOM     19  C   UNL     1       9.035   6.879   3.861  0.00  0.00    +0.158 C 
BRANCH  19  22
ATOM     22  C   UNL     1       9.304   6.164   5.161  0.00  0.00    -0.028 A 
ATOM     26  C   UNL     1       9.111   6.826   6.374  0.00  0.00    +0.009 A 
ATOM     27  C   UNL     1       9.743   4.840   5.151  0.00  0.00    +0.009 A 
ATOM     32  C   UNL     1       9.360   6.164   7.576  0.00  0.00    +0.046 A 
ATOM     33  C   UNL     1       9.992   4.179   6.353  0.00  0.00    +0.046 A 
ATOM     34  C   UNL     1       9.800   4.841   7.566  0.00  0.00    +0.120 A 
BRANCH  34   9
ATOM      9  O   UNL     1      10.042   4.195   8.739  0.00  0.00    -0.495 OA
ATOM     35  C   UNL     1       9.344   4.663   9.894  0.00  0.00    +0.277 C 
ENDBRANCH  34   9
ENDBRANCH  19  22
ENDBRANCH  11  19
TORSDOF 8
ENDMDL
MODEL 5
REMARK VINA RESULT:      -7.4     27.943     30.006
REMARK  Name = 25338976
REMARK  10 active torsions:
REMARK  status: ('A' for Active; 'I' for Inactive)
REMARK    1  A    between atoms: S_1  and  N_10
REMARK    2  A    between atoms: S_1  and  C_21
REMARK    3  A    between atoms: O_7  and  C_18
REMARK    4  A    between atoms: O_7  and  C_30
REMARK    5  A    between atoms: O_9  and  C_34
REMARK    6  A    between atoms: O_9  and  C_35
REMARK    7  A    between atoms: N_11  and  C_19
REMARK    8  A    between atoms: C_13  and  C_18
REMARK    9  A    between atoms: C_19  and  C_22
REMARK   10  A    between atoms: C_25  and  C_31
REMARK                            x       y       z     vdW  Elec       q    Type
REMARK                         _______ _______ _______ _____ _____    ______ ____
ROOT
ATOM     10  N   UNL     1      -6.720 -10.615  13.011  0.00  0.00    -0.157 NA
ATOM     11  N   UNL     1      -9.692  -8.974  14.596  0.00  0.00    -0.328 N 
ATOM     12  N   UNL     1     -10.825  -9.900  12.908  0.00  0.00    -0.240 NA
ATOM     13  C   UNL     1      -7.329 -10.649  11.629  0.00  0.00    +0.194 C 
ATOM     14  C   UNL     1      -7.301  -9.586  13.956  0.00  0.00    +0.165 C 
ATOM     15  C   UNL     1      -8.854 -10.877  11.654  0.00  0.00    +0.089 C 
ATOM     16  C   UNL     1      -8.766  -9.563  13.789  0.00  0.00    +0.057 A 
ATOM     17  C   UNL     1      -9.484 -10.119  12.758  0.00  0.00    +0.066 A 
ATOM     20  C   UNL     1     -10.918  -9.205  14.025  0.00  0.00    +0.200 A 
ENDROOT
BRANCH  10   1
ATOM      1  S   UNL     1      -6.364 -12.145  13.702  0.00  0.00    +0.062 S 
ATOM      5  O   UNL     1      -5.734 -12.979  12.703  0.00  0.00    -0.153 OA
ATOM      6  O   UNL     1      -7.520 -12.607  14.440  0.00  0.00    -0.153 OA
BRANCH   1  21
ATOM     21  C   UNL     1      -5.128 -11.674  14.871  0.00  0.00    +0.106 A 
ATOM     23  C   UNL     1      -5.380 -11.788  16.237  0.00  0.00    +0.041 A 
ATOM     24  C   UNL     1      -3.899 -11.186  14.426  0.00  0.00    +0.028 A 
ATOM     25  C   UNL     1      -4.403 -11.414  17.160  0.00  0.00    +0.057 A 
ATOM     28  C   UNL     1      -2.921 -10.812  15.349  0.00  0.00    +0.002 A 
ATOM     29  C   UNL     1      -3.174 -10.927  16.717  0.00  0.00    +0.012 A 
BRANCH  25  31
ATOM      2  F   UNL     1      -3.543 -11.797  19.344  0.00  0.00    -0.166 F 
ATOM      3  F   UNL     1      -5.207 -10.408  19.176  0.00  0.00    -0.166 F 
ATOM      4  F   UNL     1      -5.547 -12.536  18.936  0.00  0.00    -0.166 F 
ATOM     31  C   UNL     1      -4.672 -11.536  18.622  0.00  0.00    +0.417 C 
ENDBRANCH  25  31
ENDBRANCH   1  21
ENDBRANCH  10   1
BRANCH  13  18
ATOM      8  O   UNL     1      -7.706  -8.711  10.254  0.00  0.00    -0.249 OA
ATOM     18  C   UNL     1      -6.951  -9.363  10.962  0.00  0.00    +0.326 C 
BRANCH  18   7
ATOM      7  O   UNL     1      -5.660  -9.051  11.270  0.00  0.00    -0.467 OA
ATOM     30  C   UNL     1      -4.954  -8.303  10.276  0.00  0.00    +0.280 C 
ENDBRANCH  18   7
ENDBRANCH  13  18
BRANCH  11  19
ATOM     19  C   UNL     1      -9.448  -8.240  15.815  0.00  0.00    +0.158 C 
BRANCH  19  22
ATOM     22  C   UNL     1      -9.518  -9.097  17.053  0.00  0.00    -0.028 A 
ATOM     26  C   UNL     1      -8.415  -9.861  17.437  0.00  0.00    +0.009 A 
ATOM     27  C   UNL     1     -10.685  -9.126  17.817  0.00  0.00    +0.009 A 
ATOM     32  C   UNL     1      -8.479 -10.653  18.582  0.00  0.00    +0.046 A 
ATOM     33  C   UNL     1     -10.749  -9.919  18.963  0.00  0.00    +0.046 A 
ATOM     34  C   UNL     1      -9.646 -10.682  19.346  0.00  0.00    +0.120 A 
BRANCH  34   9
ATOM      9  O   UNL     1      -9.709 -11.455  20.464  0.00  0.00    -0.495 OA
ATOM     35  C   UNL     1     -10.310 -12.743  20.330  0.00  0.00    +0.277 C 
ENDBRANCH  34   9
ENDBRANCH  19  22
ENDBRANCH  11  19
TORSDOF 8
ENDMDL
MODEL 6
REMARK VINA RESULT:      -7.4     17.450     21.100
REMARK  Name = 25338976
REMARK  10 active torsions:
REMARK  status: ('A' for Active; 'I' for Inactive)
REMARK    1  A    between atoms: S_1  and  N_10
REMARK    2  A    between atoms: S_1  and  C_21
REMARK    3  A    between atoms: O_7  and  C_18
REMARK    4  A    between atoms: O_7  and  C_30
REMARK    5  A    between atoms: O_9  and  C_34
REMARK    6  A    between atoms: O_9  and  C_35
REMARK    7  A    between atoms: N_11  and  C_19
REMARK    8  A    between atoms: C_13  and  C_18
REMARK    9  A    between atoms: C_19  and  C_22
REMARK   10  A    between atoms: C_25  and  C_31
REMARK                            x       y       z     vdW  Elec       q    Type
REMARK                         _______ _______ _______ _____ _____    ______ ____
ROOT
ATOM     10  N   UNL     1      11.889   5.842   0.804  0.00  0.00    -0.157 NA
ATOM     11  N   UNL     1      10.574   7.687   3.788  0.00  0.00    -0.328 N 
ATOM     12  N   UNL     1       8.846   8.164   2.454  0.00  0.00    -0.240 NA
ATOM     13  C   UNL     1      11.124   6.676  -0.196  0.00  0.00    +0.194 C 
ATOM     14  C   UNL     1      12.119   6.486   2.153  0.00  0.00    +0.165 C 
ATOM     15  C   UNL     1       9.742   7.119   0.328  0.00  0.00    +0.089 C 
ATOM     16  C   UNL     1      10.888   7.188   2.559  0.00  0.00    +0.057 A 
ATOM     17  C   UNL     1       9.816   7.498   1.758  0.00  0.00    +0.066 A 
ATOM     20  C   UNL     1       9.334   8.264   3.675  0.00  0.00    +0.200 A 
ENDROOT
BRANCH  10   1
ATOM      1  S   UNL     1      11.493   4.172   0.833  0.00  0.00    +0.062 S 
ATOM      5  O   UNL     1      10.080   4.027   1.106  0.00  0.00    -0.153 OA
ATOM      6  O   UNL     1      12.482   3.469   1.622  0.00  0.00    -0.153 OA
BRANCH   1  21
ATOM     21  C   UNL     1      11.762   3.764  -0.863  0.00  0.00    +0.106 A 
ATOM     23  C   UNL     1      10.694   3.349  -1.658  0.00  0.00    +0.041 A 
ATOM     24  C   UNL     1      13.042   3.855  -1.408  0.00  0.00    +0.028 A 
ATOM     25  C   UNL     1      10.906   3.025  -2.998  0.00  0.00    +0.057 A 
ATOM     28  C   UNL     1      13.255   3.533  -2.748  0.00  0.00    +0.002 A 
ATOM     29  C   UNL     1      12.186   3.117  -3.543  0.00  0.00    +0.012 A 
BRANCH  25  31
ATOM      2  F   UNL     1       9.264   1.371  -3.467  0.00  0.00    -0.166 F 
ATOM      3  F   UNL     1       8.701   3.439  -3.828  0.00  0.00    -0.166 F 
ATOM      4  F   UNL     1      10.086   2.445  -5.169  0.00  0.00    -0.166 F 
ATOM     31  C   UNL     1       9.764   2.582  -3.849  0.00  0.00    +0.417 C 
ENDBRANCH  25  31
ENDBRANCH   1  21
ENDBRANCH  10   1
BRANCH  13  18
ATOM      8  O   UNL     1      11.720   9.004  -0.319  0.00  0.00    -0.249 OA
ATOM     18  C   UNL     1      12.002   7.836  -0.549  0.00  0.00    +0.326 C 
BRANCH  18   7
ATOM      7  O   UNL     1      13.137   7.382  -1.153  0.00  0.00    -0.467 OA
ATOM     30  C   UNL     1      13.069   7.260  -2.577  0.00  0.00    +0.280 C 
ENDBRANCH  18   7
ENDBRANCH  13  18
BRANCH  11  19
ATOM     19  C   UNL     1      11.380   7.634   4.984  0.00  0.00    +0.158 C 
BRANCH  19  22
ATOM     22  C   UNL     1      10.850   6.674   6.020  0.00  0.00    -0.028 A 
ATOM     26  C   UNL     1      10.347   5.433   5.628  0.00  0.00    +0.009 A 
ATOM     27  C   UNL     1      10.864   7.027   7.370  0.00  0.00    +0.009 A 
ATOM     32  C   UNL     1       9.857   4.546   6.586  0.00  0.00    +0.046 A 
ATOM     33  C   UNL     1      10.374   6.139   8.327  0.00  0.00    +0.046 A 
ATOM     34  C   UNL     1       9.871   4.898   7.936  0.00  0.00    +0.120 A 
BRANCH  34   9
ATOM      9  O   UNL     1       9.393   4.032   8.871  0.00  0.00    -0.495 OA
ATOM     35  C   UNL     1       9.034   4.579  10.139  0.00  0.00    +0.277 C 
ENDBRANCH  34   9
ENDBRANCH  19  22
ENDBRANCH  11  19
TORSDOF 8
ENDMDL
MODEL 7
REMARK VINA RESULT:      -7.3     27.221     29.744
REMARK  Name = 25338976
REMARK  10 active torsions:
REMARK  status: ('A' for Active; 'I' for Inactive)
REMARK    1  A    between atoms: S_1  and  N_10
REMARK    2  A    between atoms: S_1  and  C_21
REMARK    3  A    between atoms: O_7  and  C_18
REMARK    4  A    between atoms: O_7  and  C_30
REMARK    5  A    between atoms: O_9  and  C_34
REMARK    6  A    between atoms: O_9  and  C_35
REMARK    7  A    between atoms: N_11  and  C_19
REMARK    8  A    between atoms: C_13  and  C_18
REMARK    9  A    between atoms: C_19  and  C_22
REMARK   10  A    between atoms: C_25  and  C_31
REMARK                            x       y       z     vdW  Elec       q    Type
REMARK                         _______ _______ _______ _____ _____    ______ ____
ROOT
ATOM     10  N   UNL     1      -6.256 -11.429  15.881  0.00  0.00    -0.157 NA
ATOM     11  N   UNL     1      -9.227  -9.648  17.309  0.00  0.00    -0.328 N 
ATOM     12  N   UNL     1      -9.868 -11.692  17.943  0.00  0.00    -0.240 NA
ATOM     13  C   UNL     1      -6.976 -12.747  15.719  0.00  0.00    +0.194 C 
ATOM     14  C   UNL     1      -7.141 -10.204  15.951  0.00  0.00    +0.165 C 
ATOM     15  C   UNL     1      -8.006 -13.005  16.838  0.00  0.00    +0.089 C 
ATOM     16  C   UNL     1      -8.315 -10.516  16.787  0.00  0.00    +0.057 A 
ATOM     17  C   UNL     1      -8.733 -11.763  17.185  0.00  0.00    +0.066 A 
ATOM     20  C   UNL     1     -10.141 -10.403  17.998  0.00  0.00    +0.200 A 
ENDROOT
BRANCH  10   1
ATOM      1  S   UNL     1      -4.916 -11.443  16.953  0.00  0.00    +0.062 S 
ATOM      5  O   UNL     1      -4.659 -12.803  17.370  0.00  0.00    -0.153 OA
ATOM      6  O   UNL     1      -5.081 -10.382  17.923  0.00  0.00    -0.153 OA
BRANCH   1  21
ATOM     21  C   UNL     1      -3.630 -10.966  15.841  0.00  0.00    +0.106 A 
ATOM     23  C   UNL     1      -3.884 -10.888  14.472  0.00  0.00    +0.041 A 
ATOM     24  C   UNL     1      -2.359 -10.667  16.333  0.00  0.00    +0.028 A 
ATOM     25  C   UNL     1      -2.867 -10.513  13.594  0.00  0.00    +0.057 A 
ATOM     28  C   UNL     1      -1.342 -10.290  15.455  0.00  0.00    +0.002 A 
ATOM     29  C   UNL     1      -1.597 -10.213  14.085  0.00  0.00    +0.012 A 
BRANCH  25  31
ATOM      2  F   UNL     1      -3.447 -11.642  11.583  0.00  0.00    -0.166 F 
ATOM      3  F   UNL     1      -4.184  -9.610  11.813  0.00  0.00    -0.166 F 
ATOM      4  F   UNL     1      -2.083  -9.958  11.403  0.00  0.00    -0.166 F 
ATOM     31  C   UNL     1      -3.139 -10.430  12.130  0.00  0.00    +0.417 C 
ENDBRANCH  25  31
ENDBRANCH   1  21
ENDBRANCH  10   1
BRANCH  13  18
ATOM      8  O   UNL     1      -8.802 -12.822  14.154  0.00  0.00    -0.249 OA
ATOM     18  C   UNL     1      -7.599 -12.733  14.358  0.00  0.00    +0.326 C 
BRANCH  18   7
ATOM      7  O   UNL     1      -6.625 -12.606  13.412  0.00  0.00    -0.467 OA
ATOM     30  C   UNL     1      -6.922 -11.706  12.340  0.00  0.00    +0.280 C 
ENDBRANCH  18   7
ENDBRANCH  13  18
BRANCH  11  19
ATOM     19  C   UNL     1      -9.245  -8.212  17.168  0.00  0.00    +0.158 C 
BRANCH  19  22
ATOM     22  C   UNL     1     -10.309  -7.717  16.222  0.00  0.00    -0.028 A 
ATOM     26  C   UNL     1     -11.058  -6.584  16.543  0.00  0.00    +0.009 A 
ATOM     27  C   UNL     1     -10.544  -8.391  15.023  0.00  0.00    +0.009 A 
ATOM     32  C   UNL     1     -12.042  -6.127  15.668  0.00  0.00    +0.046 A 
ATOM     33  C   UNL     1     -11.529  -7.933  14.147  0.00  0.00    +0.046 A 
ATOM     34  C   UNL     1     -12.277  -6.801  14.469  0.00  0.00    +0.120 A 
BRANCH  34   9
ATOM      9  O   UNL     1     -13.237  -6.354  13.614  0.00  0.00    -0.495 OA
ATOM     35  C   UNL     1     -12.799  -5.852  12.351  0.00  0.00    +0.277 C 
ENDBRANCH  34   9
ENDBRANCH  19  22
ENDBRANCH  11  19
TORSDOF 8
ENDMDL
MODEL 8
REMARK VINA RESULT:      -7.2     14.912     19.842
REMARK  Name = 25338976
REMARK  10 active torsions:
REMARK  status: ('A' for Active; 'I' for Inactive)
REMARK    1  A    between atoms: S_1  and  N_10
REMARK    2  A    between atoms: S_1  and  C_21
REMARK    3  A    between atoms: O_7  and  C_18
REMARK    4  A    between atoms: O_7  and  C_30
REMARK    5  A    between atoms: O_9  and  C_34
REMARK    6  A    between atoms: O_9  and  C_35
REMARK    7  A    between atoms: N_11  and  C_19
REMARK    8  A    between atoms: C_13  and  C_18
REMARK    9  A    between atoms: C_19  and  C_22
REMARK   10  A    between atoms: C_25  and  C_31
REMARK                            x       y       z     vdW  Elec       q    Type
REMARK                         _______ _______ _______ _____ _____    ______ ____
ROOT
ATOM     10  N   UNL     1      12.213   8.139   4.551  0.00  0.00    -0.157 NA
ATOM     11  N   UNL     1      13.534   5.602   2.131  0.00  0.00    -0.328 N 
ATOM     12  N   UNL     1      15.188   7.075   1.832  0.00  0.00    -0.240 NA
ATOM     13  C   UNL     1      12.899   9.307   3.882  0.00  0.00    +0.194 C 
ATOM     14  C   UNL     1      11.997   6.922   3.680  0.00  0.00    +0.165 C 
ATOM     15  C   UNL     1      14.273   8.933   3.290  0.00  0.00    +0.089 C 
ATOM     16  C   UNL     1      13.204   6.705   2.862  0.00  0.00    +0.057 A 
ATOM     17  C   UNL     1      14.230   7.595   2.658  0.00  0.00    +0.066 A 
ATOM     20  C   UNL     1      14.738   5.873   1.530  0.00  0.00    +0.200 A 
ENDROOT
BRANCH  10   1
ATOM      1  S   UNL     1      12.695   7.823   6.168  0.00  0.00    +0.062 S 
ATOM      5  O   UNL     1      13.212   9.040   6.753  0.00  0.00    -0.153 OA
ATOM      6  O   UNL     1      13.461   6.596   6.198  0.00  0.00    -0.153 OA
BRANCH   1  21
ATOM     21  C   UNL     1      11.121   7.498   6.898  0.00  0.00    +0.106 A 
ATOM     23  C   UNL     1      10.970   6.430   7.782  0.00  0.00    +0.041 A 
ATOM     24  C   UNL     1      10.030   8.309   6.591  0.00  0.00    +0.028 A 
ATOM     25  C   UNL     1       9.725   6.172   8.358  0.00  0.00    +0.057 A 
ATOM     28  C   UNL     1       8.785   8.053   7.168  0.00  0.00    +0.002 A 
ATOM     29  C   UNL     1       8.634   6.984   8.052  0.00  0.00    +0.012 A 
BRANCH  25  31
ATOM      2  F   UNL     1       8.348   5.032   9.925  0.00  0.00    -0.166 F 
ATOM      3  F   UNL     1       9.664   3.806   8.704  0.00  0.00    -0.166 F 
ATOM      4  F   UNL     1      10.489   5.013  10.306  0.00  0.00    -0.166 F 
ATOM     31  C   UNL     1       9.563   5.030   9.303  0.00  0.00    +0.417 C 
ENDBRANCH  25  31
ENDBRANCH   1  21
ENDBRANCH  10   1
BRANCH  13  18
ATOM      8  O   UNL     1      12.242   9.989   1.671  0.00  0.00    -0.249 OA
ATOM     18  C   UNL     1      11.951   9.828   2.847  0.00  0.00    +0.326 C 
BRANCH  18   7
ATOM      7  O   UNL     1      10.742  10.083   3.424  0.00  0.00    -0.467 OA
ATOM     30  C   UNL     1      10.634  11.342   4.094  0.00  0.00    +0.280 C 
ENDBRANCH  18   7
ENDBRANCH  13  18
BRANCH  11  19
ATOM     19  C   UNL     1      12.774   4.383   1.999  0.00  0.00    +0.158 C 
BRANCH  19  22
ATOM     22  C   UNL     1      12.251   4.152   0.603  0.00  0.00    -0.028 A 
ATOM     26  C   UNL     1      12.868   3.217  -0.228  0.00  0.00    +0.009 A 
ATOM     27  C   UNL     1      11.149   4.875   0.143  0.00  0.00    +0.009 A 
ATOM     32  C   UNL     1      12.384   3.004  -1.518  0.00  0.00    +0.046 A 
ATOM     33  C   UNL     1      10.666   4.662  -1.147  0.00  0.00    +0.046 A 
ATOM     34  C   UNL     1      11.283   3.726  -1.978  0.00  0.00    +0.120 A 
BRANCH  34   9
ATOM      9  O   UNL     1      10.810   3.518  -3.237  0.00  0.00    -0.495 OA
ATOM     35  C   UNL     1       9.460   3.903  -3.496  0.00  0.00    +0.277 C 
ENDBRANCH  34   9
ENDBRANCH  19  22
ENDBRANCH  11  19
TORSDOF 8
ENDMDL
MODEL 9
REMARK VINA RESULT:      -7.2     15.084     18.370
REMARK  Name = 25338976
REMARK  10 active torsions:
REMARK  status: ('A' for Active; 'I' for Inactive)
REMARK    1  A    between atoms: S_1  and  N_10
REMARK    2  A    between atoms: S_1  and  C_21
REMARK    3  A    between atoms: O_7  and  C_18
REMARK    4  A    between atoms: O_7  and  C_30
REMARK    5  A    between atoms: O_9  and  C_34
REMARK    6  A    between atoms: O_9  and  C_35
REMARK    7  A    between atoms: N_11  and  C_19
REMARK    8  A    between atoms: C_13  and  C_18
REMARK    9  A    between atoms: C_19  and  C_22
REMARK   10  A    between atoms: C_25  and  C_31
REMARK                            x       y       z     vdW  Elec       q    Type
REMARK                         _______ _______ _______ _____ _____    ______ ____
ROOT
ATOM     10  N   UNL     1      12.661   8.596   3.237  0.00  0.00    -0.157 NA
ATOM     11  N   UNL     1       9.266   8.946   4.783  0.00  0.00    -0.328 N 
ATOM     12  N   UNL     1       9.789  11.115   4.904  0.00  0.00    -0.240 NA
ATOM     13  C   UNL     1      13.220   9.832   3.901  0.00  0.00    +0.194 C 
ATOM     14  C   UNL     1      11.459   7.976   3.915  0.00  0.00    +0.165 C 
ATOM     15  C   UNL     1      12.170  10.951   4.058  0.00  0.00    +0.089 C 
ATOM     16  C   UNL     1      10.556   9.055   4.356  0.00  0.00    +0.057 A 
ATOM     17  C   UNL     1      10.855  10.393   4.444  0.00  0.00    +0.066 A 
ATOM     20  C   UNL     1       8.847  10.213   5.100  0.00  0.00    +0.200 A 
ENDROOT
BRANCH  10   1
ATOM      1  S   UNL     1      12.612   8.633   1.522  0.00  0.00    +0.062 S 
ATOM      5  O   UNL     1      13.965   8.688   1.013  0.00  0.00    -0.153 OA
ATOM      6  O   UNL     1      11.616   9.593   1.101  0.00  0.00    -0.153 OA
BRANCH   1  21
ATOM     21  C   UNL     1      11.979   7.017   1.198  0.00  0.00    +0.106 A 
ATOM     23  C   UNL     1      12.792   5.899   1.385  0.00  0.00    +0.041 A 
ATOM     24  C   UNL     1      10.666   6.859   0.756  0.00  0.00    +0.028 A 
ATOM     25  C   UNL     1      12.291   4.622   1.128  0.00  0.00    +0.057 A 
ATOM     28  C   UNL     1      10.164   5.582   0.500  0.00  0.00    +0.002 A 
ATOM     29  C   UNL     1      10.978   4.464   0.686  0.00  0.00    +0.012 A 
BRANCH  25  31
ATOM      2  F   UNL     1      13.503   2.825   0.151  0.00  0.00    -0.166 F 
ATOM      3  F   UNL     1      14.341   3.706   1.953  0.00  0.00    -0.166 F 
ATOM      4  F   UNL     1      12.580   2.448   2.083  0.00  0.00    -0.166 F 
ATOM     31  C   UNL     1      13.160   3.426   1.327  0.00  0.00    +0.417 C 
ENDBRANCH  25  31
ENDBRANCH   1  21
ENDBRANCH  10   1
BRANCH  13  18
ATOM      8  O   UNL     1      13.493   9.889   6.290  0.00  0.00    -0.249 OA
ATOM     18  C   UNL     1      13.792   9.394   5.213  0.00  0.00    +0.326 C 
BRANCH  18   7
ATOM      7  O   UNL     1      14.678   8.378   5.007  0.00  0.00    -0.467 OA
ATOM     30  C   UNL     1      15.903   8.472   5.741  0.00  0.00    +0.280 C 
ENDBRANCH  18   7
ENDBRANCH  13  18
BRANCH  11  19
ATOM     19  C   UNL     1       8.482   7.739   4.892  0.00  0.00    +0.158 C 
BRANCH  19  22
ATOM     22  C   UNL     1       8.882   6.869   6.058  0.00  0.00    -0.028 A 
ATOM     26  C   UNL     1       9.423   5.604   5.831  0.00  0.00    +0.009 A 
ATOM     27  C   UNL     1       8.712   7.332   7.363  0.00  0.00    +0.009 A 
ATOM     32  C   UNL     1       9.793   4.801   6.908  0.00  0.00    +0.046 A 
ATOM     33  C   UNL     1       9.082   6.527   8.441  0.00  0.00    +0.046 A 
ATOM     34  C   UNL     1       9.623   5.262   8.214  0.00  0.00    +0.120 A 
BRANCH  34   9
ATOM      9  O   UNL     1       9.985   4.478   9.266  0.00  0.00    -0.495 OA
ATOM     35  C   UNL     1       9.037   4.331  10.323  0.00  0.00    +0.277 C 
ENDBRANCH  34   9
ENDBRANCH  19  22
ENDBRANCH  11  19
TORSDOF 8
ENDMDL
MODEL 10
REMARK VINA RESULT:      -7.1     15.137     18.453
REMARK  Name = 25338976
REMARK  10 active torsions:
REMARK  status: ('A' for Active; 'I' for Inactive)
REMARK    1  A    between atoms: S_1  and  N_10
REMARK    2  A    between atoms: S_1  and  C_21
REMARK    3  A    between atoms: O_7  and  C_18
REMARK    4  A    between atoms: O_7  and  C_30
REMARK    5  A    between atoms: O_9  and  C_34
REMARK    6  A    between atoms: O_9  and  C_35
REMARK    7  A    between atoms: N_11  and  C_19
REMARK    8  A    between atoms: C_13  and  C_18
REMARK    9  A    between atoms: C_19  and  C_22
REMARK   10  A    between atoms: C_25  and  C_31
REMARK                            x       y       z     vdW  Elec       q    Type
REMARK                         _______ _______ _______ _____ _____    ______ ____
ROOT
ATOM     10  N   UNL     1      12.492   8.043   3.047  0.00  0.00    -0.157 NA
ATOM     11  N   UNL     1       9.123   8.740   4.531  0.00  0.00    -0.328 N 
ATOM     12  N   UNL     1       9.710  10.883   4.298  0.00  0.00    -0.240 NA
ATOM     13  C   UNL     1      13.093   9.353   3.501  0.00  0.00    +0.194 C 
ATOM     14  C   UNL     1      11.279   7.577   3.821  0.00  0.00    +0.165 C 
ATOM     15  C   UNL     1      12.078  10.514   3.480  0.00  0.00    +0.089 C 
ATOM     16  C   UNL     1      10.412   8.740   4.087  0.00  0.00    +0.057 A 
ATOM     17  C   UNL     1      10.750  10.065   3.957  0.00  0.00    +0.066 A 
ATOM     20  C   UNL     1       8.744  10.054   4.641  0.00  0.00    +0.200 A 
ENDROOT
BRANCH  10   1
ATOM      1  S   UNL     1      12.429   7.805   1.349  0.00  0.00    +0.062 S 
ATOM      5  O   UNL     1      13.393   8.677   0.714  0.00  0.00    -0.153 OA
ATOM      6  O   UNL     1      11.045   7.789   0.928  0.00  0.00    -0.153 OA
BRANCH   1  21
ATOM     21  C   UNL     1      13.045   6.153   1.248  0.00  0.00    +0.106 A 
ATOM     23  C   UNL     1      14.238   5.894   0.573  0.00  0.00    +0.041 A 
ATOM     24  C   UNL     1      12.339   5.109   1.843  0.00  0.00    +0.028 A 
ATOM     25  C   UNL     1      14.724   4.589   0.493  0.00  0.00    +0.057 A 
ATOM     28  C   UNL     1      12.825   3.803   1.763  0.00  0.00    +0.002 A 
ATOM     29  C   UNL     1      14.018   3.544   1.088  0.00  0.00    +0.012 A 
BRANCH  25  31
ATOM      2  F   UNL     1      16.692   3.266   0.312  0.00  0.00    -0.166 F 
ATOM      3  F   UNL     1      15.825   3.992  -1.545  0.00  0.00    -0.166 F 
ATOM      4  F   UNL     1      16.869   5.364  -0.230  0.00  0.00    -0.166 F 
ATOM     31  C   UNL     1      16.000   4.311  -0.229  0.00  0.00    +0.417 C 
ENDBRANCH  25  31
ENDBRANCH   1  21
ENDBRANCH  10   1
BRANCH  13  18
ATOM      8  O   UNL     1      13.502   9.865   5.816  0.00  0.00    -0.249 OA
ATOM     18  C   UNL     1      13.664   9.114   4.864  0.00  0.00    +0.326 C 
BRANCH  18   7
ATOM      7  O   UNL     1      14.374   7.951   4.864  0.00  0.00    -0.467 OA
ATOM     30  C   UNL     1      14.657   7.402   6.155  0.00  0.00    +0.280 C 
ENDBRANCH  18   7
ENDBRANCH  13  18
BRANCH  11  19
ATOM     19  C   UNL     1       8.304   7.591   4.837  0.00  0.00    +0.158 C 
BRANCH  19  22
ATOM     22  C   UNL     1       8.754   6.848   6.070  0.00  0.00    -0.028 A 
ATOM     26  C   UNL     1       8.632   7.443   7.326  0.00  0.00    +0.009 A 
ATOM     27  C   UNL     1       9.289   5.565   5.955  0.00  0.00    +0.009 A 
ATOM     32  C   UNL     1       9.047   6.756   8.466  0.00  0.00    +0.046 A 
ATOM     33  C   UNL     1       9.704   4.878   7.095  0.00  0.00    +0.046 A 
ATOM     34  C   UNL     1       9.583   5.473   8.351  0.00  0.00    +0.120 A 
BRANCH  34   9
ATOM      9  O   UNL     1       9.987   4.802   9.464  0.00  0.00    -0.495 OA
ATOM     35  C   UNL     1       8.986   4.485  10.431  0.00  0.00    +0.277 C 
ENDBRANCH  34   9
ENDBRANCH  19  22
ENDBRANCH  11  19
TORSDOF 8
ENDMDL
