MODEL 1
REMARK VINA RESULT:      -6.6      0.000      0.000
REMARK  Name = 75367721
REMARK  8 active torsions:
REMARK  status: ('A' for Active; 'I' for Inactive)
REMARK    1  A    between atoms: S_1  and  C_20
REMARK    2  A    between atoms: S_1  and  C_26
REMARK    3  A    between atoms: O_3  and  C_9
REMARK    4  A    between atoms: O_3  and  C_15
REMARK    5  A    between atoms: O_4  and  C_25
REMARK    6  A    between atoms: O_4  and  C_27
REMARK    7  A    between atoms: N_7  and  C_12
REMARK    8  A    between atoms: C_12  and  C_14
REMARK                            x       y       z     vdW  Elec       q    Type
REMARK                         _______ _______ _______ _____ _____    ______ ____
ROOT
ATOM      2  O   UNL     1      12.211   7.315  17.472  0.00  0.00    -0.375 OA
ATOM      7  N   UNL     1      13.195   9.825  19.039  0.00  0.00    -0.292 NA
ATOM      8  C   UNL     1      14.052   8.815  19.666  0.00  0.00    +0.131 C 
ATOM      9  C   UNL     1      13.955   7.370  19.150  0.00  0.00    +0.213 C 
ATOM     10  C   UNL     1      13.010   9.650  17.597  0.00  0.00    +0.113 C 
ATOM     11  C   UNL     1      12.541   6.923  18.800  0.00  0.00    +0.205 C 
ATOM     13  C   UNL     1      11.855   8.684  17.334  0.00  0.00    +0.175 C 
ENDROOT
BRANCH   9   3
ATOM      3  O   UNL     1      14.452   6.500  20.167  0.00  0.00    -0.485 OA
BRANCH   3  15
ATOM     15  C   UNL     1      15.812   6.430  20.301  0.00  0.00    +0.121 A 
ATOM     18  C   UNL     1      16.595   5.989  19.234  0.00  0.00    +0.047 A 
ATOM     19  C   UNL     1      16.414   6.800  21.503  0.00  0.00    +0.047 A 
ATOM     20  C   UNL     1      18.585   6.289  20.572  0.00  0.00    +0.088 A 
ATOM     23  C   UNL     1      17.982   5.919  19.369  0.00  0.00    +0.030 A 
ATOM     24  C   UNL     1      17.800   6.729  21.639  0.00  0.00    +0.030 A 
BRANCH  20   1
ATOM      1  S   UNL     1      20.319   6.197  20.744  0.00  0.00    -0.006 S 
ATOM      5  O   UNL     1      20.781   4.924  20.207  0.00  0.00    -0.170 OA
ATOM      6  O   UNL     1      20.885   7.441  20.240  0.00  0.00    -0.170 OA
ATOM     26  C   UNL     1      20.588   6.147  22.500  0.00  0.00    +0.200 C 
ENDBRANCH  20   1
ENDBRANCH   3  15
ENDBRANCH   9   3
BRANCH   7  12
ATOM     12  C   UNL     1      13.684  11.168  19.357  0.00  0.00    +0.119 C 
BRANCH  12  14
ATOM     14  C   UNL     1      13.141  11.666  20.670  0.00  0.00    -0.033 A 
ATOM     16  C   UNL     1      11.834  11.356  21.047  0.00  0.00    +0.008 A 
ATOM     17  C   UNL     1      13.945  12.435  21.511  0.00  0.00    +0.008 A 
ATOM     21  C   UNL     1      11.332  11.816  22.263  0.00  0.00    +0.046 A 
ATOM     22  C   UNL     1      13.443  12.896  22.728  0.00  0.00    +0.046 A 
ATOM     25  C   UNL     1      12.135  12.586  23.104  0.00  0.00    +0.120 A 
BRANCH  25   4
ATOM      4  O   UNL     1      11.644  13.036  24.290  0.00  0.00    -0.495 OA
ATOM     27  C   UNL     1      12.348  12.654  25.472  0.00  0.00    +0.277 C 
ENDBRANCH  25   4
ENDBRANCH  12  14
ENDBRANCH   7  12
TORSDOF 6
ENDMDL
MODEL 2
REMARK VINA RESULT:      -6.4      1.935      2.486
REMARK  Name = 75367721
REMARK  8 active torsions:
REMARK  status: ('A' for Active; 'I' for Inactive)
REMARK    1  A    between atoms: S_1  and  C_20
REMARK    2  A    between atoms: S_1  and  C_26
REMARK    3  A    between atoms: O_3  and  C_9
REMARK    4  A    between atoms: O_3  and  C_15
REMARK    5  A    between atoms: O_4  and  C_25
REMARK    6  A    between atoms: O_4  and  C_27
REMARK    7  A    between atoms: N_7  and  C_12
REMARK    8  A    between atoms: C_12  and  C_14
REMARK                            x       y       z     vdW  Elec       q    Type
REMARK                         _______ _______ _______ _____ _____    ______ ____
ROOT
ATOM      2  O   UNL     1      13.253   8.644  16.916  0.00  0.00    -0.375 OA
ATOM      7  N   UNL     1      12.145   7.467  19.583  0.00  0.00    -0.292 NA
ATOM      8  C   UNL     1      13.525   6.981  19.676  0.00  0.00    +0.131 C 
ATOM      9  C   UNL     1      14.503   7.382  18.561  0.00  0.00    +0.213 C 
ATOM     10  C   UNL     1      12.017   8.824  19.048  0.00  0.00    +0.113 C 
ATOM     11  C   UNL     1      13.893   7.397  17.166  0.00  0.00    +0.205 C 
ATOM     13  C   UNL     1      11.975   8.781  17.521  0.00  0.00    +0.175 C 
ENDROOT
BRANCH   9   3
ATOM      3  O   UNL     1      15.583   6.446  18.559  0.00  0.00    -0.485 OA
BRANCH   3  15
ATOM     15  C   UNL     1      16.590   6.674  19.456  0.00  0.00    +0.121 A 
ATOM     18  C   UNL     1      16.488   7.725  20.367  0.00  0.00    +0.047 A 
ATOM     19  C   UNL     1      17.719   5.855  19.459  0.00  0.00    +0.047 A 
ATOM     20  C   UNL     1      18.644   7.138  21.286  0.00  0.00    +0.088 A 
ATOM     23  C   UNL     1      17.515   7.957  21.283  0.00  0.00    +0.030 A 
ATOM     24  C   UNL     1      18.746   6.087  20.374  0.00  0.00    +0.030 A 
BRANCH  20   1
ATOM      1  S   UNL     1      19.931   7.429  22.428  0.00  0.00    -0.006 S 
ATOM      5  O   UNL     1      19.725   8.730  23.051  0.00  0.00    -0.170 OA
ATOM      6  O   UNL     1      20.067   6.243  23.263  0.00  0.00    -0.170 OA
ATOM     26  C   UNL     1      21.393   7.561  21.425  0.00  0.00    +0.200 C 
ENDBRANCH  20   1
ENDBRANCH   3  15
ENDBRANCH   9   3
BRANCH   7  12
ATOM     12  C   UNL     1      11.477   7.338  20.879  0.00  0.00    +0.119 C 
BRANCH  12  14
ATOM     14  C   UNL     1      11.668   8.563  21.733  0.00  0.00    -0.033 A 
ATOM     16  C   UNL     1      10.563   9.193  22.306  0.00  0.00    +0.008 A 
ATOM     17  C   UNL     1      12.949   9.067  21.953  0.00  0.00    +0.008 A 
ATOM     21  C   UNL     1      10.740  10.327  23.097  0.00  0.00    +0.046 A 
ATOM     22  C   UNL     1      13.127  10.202  22.745  0.00  0.00    +0.046 A 
ATOM     25  C   UNL     1      12.022  10.832  23.317  0.00  0.00    +0.120 A 
BRANCH  25   4
ATOM      4  O   UNL     1      12.194  11.940  24.088  0.00  0.00    -0.495 OA
ATOM     27  C   UNL     1      11.193  12.212  25.068  0.00  0.00    +0.277 C 
ENDBRANCH  25   4
ENDBRANCH  12  14
ENDBRANCH   7  12
TORSDOF 6
ENDMDL
MODEL 3
REMARK VINA RESULT:      -6.2     27.550     29.709
REMARK  Name = 75367721
REMARK  8 active torsions:
REMARK  status: ('A' for Active; 'I' for Inactive)
REMARK    1  A    between atoms: S_1  and  C_20
REMARK    2  A    between atoms: S_1  and  C_26
REMARK    3  A    between atoms: O_3  and  C_9
REMARK    4  A    between atoms: O_3  and  C_15
REMARK    5  A    between atoms: O_4  and  C_25
REMARK    6  A    between atoms: O_4  and  C_27
REMARK    7  A    between atoms: N_7  and  C_12
REMARK    8  A    between atoms: C_12  and  C_14
REMARK                            x       y       z     vdW  Elec       q    Type
REMARK                         _______ _______ _______ _____ _____    ______ ____
ROOT
ATOM      2  O   UNL     1      -3.479 -13.600  15.128  0.00  0.00    -0.375 OA
ATOM      7  N   UNL     1      -2.688 -11.444  13.019  0.00  0.00    -0.292 NA
ATOM      8  C   UNL     1      -2.654 -10.608  14.223  0.00  0.00    +0.131 C 
ATOM      9  C   UNL     1      -2.934 -11.284  15.574  0.00  0.00    +0.213 C 
ATOM     10  C   UNL     1      -2.153 -12.794  13.205  0.00  0.00    +0.113 C 
ATOM     11  C   UNL     1      -4.024 -12.348  15.530  0.00  0.00    +0.205 C 
ATOM     13  C   UNL     1      -3.249 -13.721  13.731  0.00  0.00    +0.175 C 
ENDROOT
BRANCH   9   3
ATOM      3  O   UNL     1      -3.341 -10.276  16.501  0.00  0.00    -0.485 OA
BRANCH   3  15
ATOM     15  C   UNL     1      -4.623 -10.359  16.971  0.00  0.00    +0.121 A 
ATOM     18  C   UNL     1      -4.887 -11.047  18.155  0.00  0.00    +0.047 A 
ATOM     19  C   UNL     1      -5.664  -9.756  16.266  0.00  0.00    +0.047 A 
ATOM     20  C   UNL     1      -7.237 -10.528  17.930  0.00  0.00    +0.088 A 
ATOM     23  C   UNL     1      -6.195 -11.131  18.635  0.00  0.00    +0.030 A 
ATOM     24  C   UNL     1      -6.971  -9.840  16.745  0.00  0.00    +0.030 A 
BRANCH  20   1
ATOM      1  S   UNL     1      -8.873 -10.636  18.528  0.00  0.00    -0.006 S 
ATOM      5  O   UNL     1      -8.837 -10.884  19.963  0.00  0.00    -0.170 OA
ATOM      6  O   UNL     1      -9.615  -9.493  18.012  0.00  0.00    -0.170 OA
ATOM     26  C   UNL     1      -9.528 -12.101  17.764  0.00  0.00    +0.200 C 
ENDBRANCH  20   1
ENDBRANCH   3  15
ENDBRANCH   9   3
BRANCH   7  12
ATOM     12  C   UNL     1      -2.028 -10.755  11.908  0.00  0.00    +0.119 C 
BRANCH  12  14
ATOM     14  C   UNL     1      -2.982 -10.471  10.779  0.00  0.00    -0.033 A 
ATOM     16  C   UNL     1      -3.714 -11.512  10.206  0.00  0.00    +0.008 A 
ATOM     17  C   UNL     1      -3.135  -9.169  10.305  0.00  0.00    +0.008 A 
ATOM     21  C   UNL     1      -4.598 -11.249   9.160  0.00  0.00    +0.046 A 
ATOM     22  C   UNL     1      -4.020  -8.905   9.259  0.00  0.00    +0.046 A 
ATOM     25  C   UNL     1      -4.751  -9.947   8.686  0.00  0.00    +0.120 A 
BRANCH  25   4
ATOM      4  O   UNL     1      -5.612  -9.691   7.665  0.00  0.00    -0.495 OA
ATOM     27  C   UNL     1      -6.870  -9.108   8.006  0.00  0.00    +0.277 C 
ENDBRANCH  25   4
ENDBRANCH  12  14
ENDBRANCH   7  12
TORSDOF 6
ENDMDL
MODEL 4
REMARK VINA RESULT:      -6.1     28.569     31.412
REMARK  Name = 75367721
REMARK  8 active torsions:
REMARK  status: ('A' for Active; 'I' for Inactive)
REMARK    1  A    between atoms: S_1  and  C_20
REMARK    2  A    between atoms: S_1  and  C_26
REMARK    3  A    between atoms: O_3  and  C_9
REMARK    4  A    between atoms: O_3  and  C_15
REMARK    5  A    between atoms: O_4  and  C_25
REMARK    6  A    between atoms: O_4  and  C_27
REMARK    7  A    between atoms: N_7  and  C_12
REMARK    8  A    between atoms: C_12  and  C_14
REMARK                            x       y       z     vdW  Elec       q    Type
REMARK                         _______ _______ _______ _____ _____    ______ ____
ROOT
ATOM      2  O   UNL     1     -18.414   3.220  23.050  0.00  0.00    -0.375 OA
ATOM      7  N   UNL     1     -17.114   3.826  25.819  0.00  0.00    -0.292 NA
ATOM      8  C   UNL     1     -15.981   4.173  24.956  0.00  0.00    +0.131 C 
ATOM      9  C   UNL     1     -16.184   4.081  23.435  0.00  0.00    +0.213 C 
ATOM     10  C   UNL     1     -18.418   4.241  25.300  0.00  0.00    +0.113 C 
ATOM     11  C   UNL     1     -17.029   2.896  22.985  0.00  0.00    +0.205 C 
ATOM     13  C   UNL     1     -18.969   3.171  24.357  0.00  0.00    +0.175 C 
ENDROOT
BRANCH   9   3
ATOM      3  O   UNL     1     -14.899   3.963  22.821  0.00  0.00    -0.485 OA
BRANCH   3  15
ATOM     15  C   UNL     1     -14.462   5.044  22.107  0.00  0.00    +0.121 A 
ATOM     18  C   UNL     1     -13.099   5.336  22.047  0.00  0.00    +0.047 A 
ATOM     19  C   UNL     1     -15.379   5.855  21.438  0.00  0.00    +0.047 A 
ATOM     20  C   UNL     1     -13.570   7.250  20.649  0.00  0.00    +0.088 A 
ATOM     23  C   UNL     1     -12.653   6.439  21.318  0.00  0.00    +0.030 A 
ATOM     24  C   UNL     1     -14.934   6.958  20.709  0.00  0.00    +0.030 A 
BRANCH  20   1
ATOM      1  S   UNL     1     -13.014   8.632  19.740  0.00  0.00    -0.006 S 
ATOM      5  O   UNL     1     -14.142   9.520  19.492  0.00  0.00    -0.170 OA
ATOM      6  O   UNL     1     -11.820   9.148  20.395  0.00  0.00    -0.170 OA
ATOM     26  C   UNL     1     -12.527   7.961  18.168  0.00  0.00    +0.200 C 
ENDBRANCH  20   1
ENDBRANCH   3  15
ENDBRANCH   9   3
BRANCH   7  12
ATOM     12  C   UNL     1     -16.889   4.336  27.173  0.00  0.00    +0.119 C 
BRANCH  12  14
ATOM     14  C   UNL     1     -16.232   3.309  28.057  0.00  0.00    -0.033 A 
ATOM     16  C   UNL     1     -16.513   1.953  27.879  0.00  0.00    +0.008 A 
ATOM     17  C   UNL     1     -15.342   3.711  29.052  0.00  0.00    +0.008 A 
ATOM     21  C   UNL     1     -15.905   1.003  28.697  0.00  0.00    +0.046 A 
ATOM     22  C   UNL     1     -14.733   2.760  29.870  0.00  0.00    +0.046 A 
ATOM     25  C   UNL     1     -15.015   1.405  29.692  0.00  0.00    +0.120 A 
BRANCH  25   4
ATOM      4  O   UNL     1     -14.422   0.477  30.491  0.00  0.00    -0.495 OA
ATOM     27  C   UNL     1     -13.601  -0.501  29.853  0.00  0.00    +0.277 C 
ENDBRANCH  25   4
ENDBRANCH  12  14
ENDBRANCH   7  12
TORSDOF 6
ENDMDL
MODEL 5
REMARK VINA RESULT:      -5.8      3.343      6.845
REMARK  Name = 75367721
REMARK  8 active torsions:
REMARK  status: ('A' for Active; 'I' for Inactive)
REMARK    1  A    between atoms: S_1  and  C_20
REMARK    2  A    between atoms: S_1  and  C_26
REMARK    3  A    between atoms: O_3  and  C_9
REMARK    4  A    between atoms: O_3  and  C_15
REMARK    5  A    between atoms: O_4  and  C_25
REMARK    6  A    between atoms: O_4  and  C_27
REMARK    7  A    between atoms: N_7  and  C_12
REMARK    8  A    between atoms: C_12  and  C_14
REMARK                            x       y       z     vdW  Elec       q    Type
REMARK                         _______ _______ _______ _____ _____    ______ ____
ROOT
ATOM      2  O   UNL     1      12.937   7.664  17.086  0.00  0.00    -0.375 OA
ATOM      7  N   UNL     1      14.627   7.711  19.706  0.00  0.00    -0.292 NA
ATOM      8  C   UNL     1      13.295   7.552  20.298  0.00  0.00    +0.131 C 
ATOM      9  C   UNL     1      12.098   7.419  19.344  0.00  0.00    +0.213 C 
ATOM     10  C   UNL     1      14.841   6.936  18.482  0.00  0.00    +0.113 C 
ATOM     11  C   UNL     1      12.178   8.304  18.107  0.00  0.00    +0.205 C 
ATOM     13  C   UNL     1      14.344   7.726  17.271  0.00  0.00    +0.175 C 
ENDROOT
BRANCH   9   3
ATOM      3  O   UNL     1      10.915   7.772  20.062  0.00  0.00    -0.485 OA
BRANCH   3  15
ATOM     15  C   UNL     1      11.056   8.708  21.049  0.00  0.00    +0.121 A 
ATOM     18  C   UNL     1      11.604   9.957  20.752  0.00  0.00    +0.047 A 
ATOM     19  C   UNL     1      10.652   8.415  22.351  0.00  0.00    +0.047 A 
ATOM     20  C   UNL     1      11.344  10.619  23.062  0.00  0.00    +0.088 A 
ATOM     23  C   UNL     1      11.748  10.912  21.759  0.00  0.00    +0.030 A 
ATOM     24  C   UNL     1      10.797   9.369  23.358  0.00  0.00    +0.030 A 
BRANCH  20   1
ATOM      1  S   UNL     1      11.527  11.811  24.323  0.00  0.00    -0.006 S 
ATOM      5  O   UNL     1      10.918  11.304  25.545  0.00  0.00    -0.170 OA
ATOM      6  O   UNL     1      12.919  12.241  24.335  0.00  0.00    -0.170 OA
ATOM     26  C   UNL     1      10.537  13.184  23.781  0.00  0.00    +0.200 C 
ENDBRANCH  20   1
ENDBRANCH   3  15
ENDBRANCH   9   3
BRANCH   7  12
ATOM     12  C   UNL     1      15.659   7.428  20.706  0.00  0.00    +0.119 C 
BRANCH  12  14
ATOM     14  C   UNL     1      16.620   8.577  20.859  0.00  0.00    -0.033 A 
ATOM     16  C   UNL     1      17.891   8.357  21.392  0.00  0.00    +0.008 A 
ATOM     17  C   UNL     1      16.241   9.861  20.469  0.00  0.00    +0.008 A 
ATOM     21  C   UNL     1      18.780   9.421  21.534  0.00  0.00    +0.046 A 
ATOM     22  C   UNL     1      17.131  10.925  20.610  0.00  0.00    +0.046 A 
ATOM     25  C   UNL     1      18.401  10.705  21.144  0.00  0.00    +0.120 A 
BRANCH  25   4
ATOM      4  O   UNL     1      19.269  11.743  21.283  0.00  0.00    -0.495 OA
ATOM     27  C   UNL     1      18.727  13.060  21.190  0.00  0.00    +0.277 C 
ENDBRANCH  25   4
ENDBRANCH  12  14
ENDBRANCH   7  12
TORSDOF 6
ENDMDL
MODEL 6
REMARK VINA RESULT:      -5.8     27.606     29.560
REMARK  Name = 75367721
REMARK  8 active torsions:
REMARK  status: ('A' for Active; 'I' for Inactive)
REMARK    1  A    between atoms: S_1  and  C_20
REMARK    2  A    between atoms: S_1  and  C_26
REMARK    3  A    between atoms: O_3  and  C_9
REMARK    4  A    between atoms: O_3  and  C_15
REMARK    5  A    between atoms: O_4  and  C_25
REMARK    6  A    between atoms: O_4  and  C_27
REMARK    7  A    between atoms: N_7  and  C_12
REMARK    8  A    between atoms: C_12  and  C_14
REMARK                            x       y       z     vdW  Elec       q    Type
REMARK                         _______ _______ _______ _____ _____    ______ ____
ROOT
ATOM      2  O   UNL     1      -4.096 -13.489  13.114  0.00  0.00    -0.375 OA
ATOM      7  N   UNL     1      -2.984 -11.590  15.323  0.00  0.00    -0.292 NA
ATOM      8  C   UNL     1      -3.122 -10.617  14.235  0.00  0.00    +0.131 C 
ATOM      9  C   UNL     1      -3.714 -11.108  12.904  0.00  0.00    +0.213 C 
ATOM     10  C   UNL     1      -4.075 -12.563  15.405  0.00  0.00    +0.113 C 
ATOM     11  C   UNL     1      -3.270 -12.507  12.497  0.00  0.00    +0.205 C 
ATOM     13  C   UNL     1      -3.790 -13.745  14.477  0.00  0.00    +0.175 C 
ENDROOT
BRANCH   9   3
ATOM      3  O   UNL     1      -3.310 -10.202  11.876  0.00  0.00    -0.485 OA
BRANCH   3  15
ATOM     15  C   UNL     1      -4.301  -9.709  11.072  0.00  0.00    +0.121 A 
ATOM     18  C   UNL     1      -5.560  -9.434  11.607  0.00  0.00    +0.047 A 
ATOM     19  C   UNL     1      -4.052  -9.482   9.719  0.00  0.00    +0.047 A 
ATOM     20  C   UNL     1      -6.322  -8.704   9.433  0.00  0.00    +0.088 A 
ATOM     23  C   UNL     1      -6.570  -8.931  10.787  0.00  0.00    +0.030 A 
ATOM     24  C   UNL     1      -5.062  -8.979   8.899  0.00  0.00    +0.030 A 
BRANCH  20   1
ATOM      1  S   UNL     1      -7.586  -8.077   8.405  0.00  0.00    -0.006 S 
ATOM      5  O   UNL     1      -7.485  -6.625   8.363  0.00  0.00    -0.170 OA
ATOM      6  O   UNL     1      -7.572  -8.838   7.163  0.00  0.00    -0.170 OA
ATOM     26  C   UNL     1      -9.091  -8.468   9.267  0.00  0.00    +0.200 C 
ENDBRANCH  20   1
ENDBRANCH   3  15
ENDBRANCH   9   3
BRANCH   7  12
ATOM     12  C   UNL     1      -2.789 -10.896  16.597  0.00  0.00    +0.119 C 
BRANCH  12  14
ATOM     14  C   UNL     1      -4.025 -10.945  17.457  0.00  0.00    -0.033 A 
ATOM     16  C   UNL     1      -4.042 -11.734  18.608  0.00  0.00    +0.008 A 
ATOM     17  C   UNL     1      -5.151 -10.204  17.103  0.00  0.00    +0.008 A 
ATOM     21  C   UNL     1      -5.186 -11.779  19.404  0.00  0.00    +0.046 A 
ATOM     22  C   UNL     1      -6.296 -10.248  17.899  0.00  0.00    +0.046 A 
ATOM     25  C   UNL     1      -6.312 -11.037  19.050  0.00  0.00    +0.120 A 
BRANCH  25   4
ATOM      4  O   UNL     1      -7.429 -11.082  19.827  0.00  0.00    -0.495 OA
ATOM     27  C   UNL     1      -8.682 -11.210  19.156  0.00  0.00    +0.277 C 
ENDBRANCH  25   4
ENDBRANCH  12  14
ENDBRANCH   7  12
TORSDOF 6
ENDMDL
MODEL 7
REMARK VINA RESULT:      -5.7      1.918      2.568
REMARK  Name = 75367721
REMARK  8 active torsions:
REMARK  status: ('A' for Active; 'I' for Inactive)
REMARK    1  A    between atoms: S_1  and  C_20
REMARK    2  A    between atoms: S_1  and  C_26
REMARK    3  A    between atoms: O_3  and  C_9
REMARK    4  A    between atoms: O_3  and  C_15
REMARK    5  A    between atoms: O_4  and  C_25
REMARK    6  A    between atoms: O_4  and  C_27
REMARK    7  A    between atoms: N_7  and  C_12
REMARK    8  A    between atoms: C_12  and  C_14
REMARK                            x       y       z     vdW  Elec       q    Type
REMARK                         _______ _______ _______ _____ _____    ______ ____
ROOT
ATOM      2  O   UNL     1      13.098   8.115  16.727  0.00  0.00    -0.375 OA
ATOM      7  N   UNL     1      12.992  10.053  19.168  0.00  0.00    -0.292 NA
ATOM      8  C   UNL     1      13.831   9.001  19.750  0.00  0.00    +0.131 C 
ATOM      9  C   UNL     1      14.214   7.812  18.854  0.00  0.00    +0.213 C 
ATOM     10  C   UNL     1      13.283  10.351  17.764  0.00  0.00    +0.113 C 
ATOM     11  C   UNL     1      13.103   7.343  17.923  0.00  0.00    +0.205 C 
ATOM     13  C   UNL     1      12.503   9.398  16.857  0.00  0.00    +0.175 C 
ENDROOT
BRANCH   9   3
ATOM      3  O   UNL     1      14.572   6.717  19.698  0.00  0.00    -0.485 OA
BRANCH   3  15
ATOM     15  C   UNL     1      15.906   6.552  19.952  0.00  0.00    +0.121 A 
ATOM     18  C   UNL     1      16.730   5.959  18.995  0.00  0.00    +0.047 A 
ATOM     19  C   UNL     1      16.442   6.977  21.167  0.00  0.00    +0.047 A 
ATOM     20  C   UNL     1      18.627   6.216  20.469  0.00  0.00    +0.088 A 
ATOM     23  C   UNL     1      18.091   5.791  19.254  0.00  0.00    +0.030 A 
ATOM     24  C   UNL     1      17.802   6.809  21.427  0.00  0.00    +0.030 A 
BRANCH  20   1
ATOM      1  S   UNL     1      20.329   6.004  20.796  0.00  0.00    -0.006 S 
ATOM      5  O   UNL     1      20.713   4.646  20.434  0.00  0.00    -0.170 OA
ATOM      6  O   UNL     1      21.040   7.134  20.216  0.00  0.00    -0.170 OA
ATOM     26  C   UNL     1      20.459   6.126  22.564  0.00  0.00    +0.200 C 
ENDBRANCH  20   1
ENDBRANCH   3  15
ENDBRANCH   9   3
BRANCH   7  12
ATOM     12  C   UNL     1      13.053  11.260  19.995  0.00  0.00    +0.119 C 
BRANCH  12  14
ATOM     14  C   UNL     1      14.337  11.339  20.777  0.00  0.00    -0.033 A 
ATOM     16  C   UNL     1      14.337  11.064  22.146  0.00  0.00    +0.008 A 
ATOM     17  C   UNL     1      15.526  11.685  20.136  0.00  0.00    +0.008 A 
ATOM     21  C   UNL     1      15.526  11.136  22.870  0.00  0.00    +0.046 A 
ATOM     22  C   UNL     1      16.715  11.757  20.861  0.00  0.00    +0.046 A 
ATOM     25  C   UNL     1      16.715  11.482  22.229  0.00  0.00    +0.120 A 
BRANCH  25   4
ATOM      4  O   UNL     1      17.875  11.554  22.937  0.00  0.00    -0.495 OA
ATOM     27  C   UNL     1      19.077  11.756  22.195  0.00  0.00    +0.277 C 
ENDBRANCH  25   4
ENDBRANCH  12  14
ENDBRANCH   7  12
TORSDOF 6
ENDMDL
MODEL 8
REMARK VINA RESULT:      -5.6     28.308     31.639
REMARK  Name = 75367721
REMARK  8 active torsions:
REMARK  status: ('A' for Active; 'I' for Inactive)
REMARK    1  A    between atoms: S_1  and  C_20
REMARK    2  A    between atoms: S_1  and  C_26
REMARK    3  A    between atoms: O_3  and  C_9
REMARK    4  A    between atoms: O_3  and  C_15
REMARK    5  A    between atoms: O_4  and  C_25
REMARK    6  A    between atoms: O_4  and  C_27
REMARK    7  A    between atoms: N_7  and  C_12
REMARK    8  A    between atoms: C_12  and  C_14
REMARK                            x       y       z     vdW  Elec       q    Type
REMARK                         _______ _______ _______ _____ _____    ______ ____
ROOT
ATOM      2  O   UNL     1     -15.888   6.363  34.297  0.00  0.00    -0.375 OA
ATOM      7  N   UNL     1     -14.431   4.341  32.422  0.00  0.00    -0.292 NA
ATOM      8  C   UNL     1     -13.585   5.516  32.191  0.00  0.00    +0.131 C 
ATOM      9  C   UNL     1     -13.901   6.795  32.982  0.00  0.00    +0.213 C 
ATOM     10  C   UNL     1     -14.859   4.169  33.812  0.00  0.00    +0.113 C 
ATOM     11  C   UNL     1     -15.389   7.069  33.165  0.00  0.00    +0.205 C 
ATOM     13  C   UNL     1     -16.129   4.981  34.070  0.00  0.00    +0.175 C 
ENDROOT
BRANCH   9   3
ATOM      3  O   UNL     1     -13.333   7.904  32.283  0.00  0.00    -0.485 OA
BRANCH   3  15
ATOM     15  C   UNL     1     -12.317   8.568  32.913  0.00  0.00    +0.121 A 
ATOM     18  C   UNL     1     -11.201   8.985  32.186  0.00  0.00    +0.047 A 
ATOM     19  C   UNL     1     -12.396   8.828  34.281  0.00  0.00    +0.047 A 
ATOM     20  C   UNL     1     -10.244   9.923  34.197  0.00  0.00    +0.088 A 
ATOM     23  C   UNL     1     -10.165   9.663  32.829  0.00  0.00    +0.030 A 
ATOM     24  C   UNL     1     -11.360   9.504  34.923  0.00  0.00    +0.030 A 
BRANCH  20   1
ATOM      1  S   UNL     1      -8.946  10.767  35.002  0.00  0.00    -0.006 S 
ATOM      5  O   UNL     1      -7.804   9.871  35.127  0.00  0.00    -0.170 OA
ATOM      6  O   UNL     1      -8.781  12.060  34.352  0.00  0.00    -0.170 OA
ATOM     26  C   UNL     1      -9.558  11.057  36.645  0.00  0.00    +0.200 C 
ENDBRANCH  20   1
ENDBRANCH   3  15
ENDBRANCH   9   3
BRANCH   7  12
ATOM     12  C   UNL     1     -13.772   3.138  31.912  0.00  0.00    +0.119 C 
BRANCH  12  14
ATOM     14  C   UNL     1     -14.598   2.451  30.858  0.00  0.00    -0.033 A 
ATOM     16  C   UNL     1     -15.021   3.158  29.732  0.00  0.00    +0.008 A 
ATOM     17  C   UNL     1     -14.940   1.107  31.005  0.00  0.00    +0.008 A 
ATOM     21  C   UNL     1     -15.785   2.521  28.756  0.00  0.00    +0.046 A 
ATOM     22  C   UNL     1     -15.704   0.469  30.028  0.00  0.00    +0.046 A 
ATOM     25  C   UNL     1     -16.127   1.177  28.903  0.00  0.00    +0.120 A 
BRANCH  25   4
ATOM      4  O   UNL     1     -16.874   0.556  27.950  0.00  0.00    -0.495 OA
ATOM     27  C   UNL     1     -16.679   0.971  26.599  0.00  0.00    +0.277 C 
ENDBRANCH  25   4
ENDBRANCH  12  14
ENDBRANCH   7  12
TORSDOF 6
ENDMDL
MODEL 9
REMARK VINA RESULT:      -5.6      4.279      6.726
REMARK  Name = 75367721
REMARK  8 active torsions:
REMARK  status: ('A' for Active; 'I' for Inactive)
REMARK    1  A    between atoms: S_1  and  C_20
REMARK    2  A    between atoms: S_1  and  C_26
REMARK    3  A    between atoms: O_3  and  C_9
REMARK    4  A    between atoms: O_3  and  C_15
REMARK    5  A    between atoms: O_4  and  C_25
REMARK    6  A    between atoms: O_4  and  C_27
REMARK    7  A    between atoms: N_7  and  C_12
REMARK    8  A    between atoms: C_12  and  C_14
REMARK                            x       y       z     vdW  Elec       q    Type
REMARK                         _______ _______ _______ _____ _____    ______ ____
ROOT
ATOM      2  O   UNL     1      10.360  12.262  25.472  0.00  0.00    -0.375 OA
ATOM      7  N   UNL     1      11.589  13.469  22.872  0.00  0.00    -0.292 NA
ATOM      8  C   UNL     1      11.631  12.050  22.506  0.00  0.00    +0.131 C 
ATOM      9  C   UNL     1      11.050  11.034  23.503  0.00  0.00    +0.213 C 
ATOM     10  C   UNL     1      10.381  13.870  23.596  0.00  0.00    +0.113 C 
ATOM     11  C   UNL     1      11.334  11.356  24.964  0.00  0.00    +0.205 C 
ATOM     13  C   UNL     1      10.562  13.616  25.093  0.00  0.00    +0.175 C 
ENDROOT
BRANCH   9   3
ATOM      3  O   UNL     1      11.617   9.755  23.216  0.00  0.00    -0.485 OA
BRANCH   3  15
ATOM     15  C   UNL     1      11.824   9.460  21.896  0.00  0.00    +0.121 A 
ATOM     18  C   UNL     1      13.051   9.755  21.300  0.00  0.00    +0.047 A 
ATOM     19  C   UNL     1      10.809   8.865  21.148  0.00  0.00    +0.047 A 
ATOM     20  C   UNL     1      12.246   8.859  19.205  0.00  0.00    +0.088 A 
ATOM     23  C   UNL     1      13.262   9.453  19.954  0.00  0.00    +0.030 A 
ATOM     24  C   UNL     1      11.020   8.564  19.802  0.00  0.00    +0.030 A 
BRANCH  20   1
ATOM      1  S   UNL     1      12.508   8.485  17.520  0.00  0.00    -0.006 S 
ATOM      5  O   UNL     1      11.519   7.504  17.095  0.00  0.00    -0.170 OA
ATOM      6  O   UNL     1      12.635   9.743  16.797  0.00  0.00    -0.170 OA
ATOM     26  C   UNL     1      14.090   7.674  17.487  0.00  0.00    +0.200 C 
ENDBRANCH  20   1
ENDBRANCH   3  15
ENDBRANCH   9   3
BRANCH   7  12
ATOM     12  C   UNL     1      11.804  14.301  21.687  0.00  0.00    +0.119 C 
BRANCH  12  14
ATOM     14  C   UNL     1      12.898  13.754  20.810  0.00  0.00    -0.033 A 
ATOM     16  C   UNL     1      14.192  13.610  21.315  0.00  0.00    +0.008 A 
ATOM     17  C   UNL     1      12.621  13.389  19.493  0.00  0.00    +0.008 A 
ATOM     21  C   UNL     1      15.204  13.103  20.502  0.00  0.00    +0.046 A 
ATOM     22  C   UNL     1      13.634  12.882  18.680  0.00  0.00    +0.046 A 
ATOM     25  C   UNL     1      14.927  12.739  19.185  0.00  0.00    +0.120 A 
BRANCH  25   4
ATOM      4  O   UNL     1      15.915  12.245  18.392  0.00  0.00    -0.495 OA
ATOM     27  C   UNL     1      15.561  11.890  17.056  0.00  0.00    +0.277 C 
ENDBRANCH  25   4
ENDBRANCH  12  14
ENDBRANCH   7  12
TORSDOF 6
ENDMDL
MODEL 10
REMARK VINA RESULT:      -5.6      2.088      3.221
REMARK  Name = 75367721
REMARK  8 active torsions:
REMARK  status: ('A' for Active; 'I' for Inactive)
REMARK    1  A    between atoms: S_1  and  C_20
REMARK    2  A    between atoms: S_1  and  C_26
REMARK    3  A    between atoms: O_3  and  C_9
REMARK    4  A    between atoms: O_3  and  C_15
REMARK    5  A    between atoms: O_4  and  C_25
REMARK    6  A    between atoms: O_4  and  C_27
REMARK    7  A    between atoms: N_7  and  C_12
REMARK    8  A    between atoms: C_12  and  C_14
REMARK                            x       y       z     vdW  Elec       q    Type
REMARK                         _______ _______ _______ _____ _____    ______ ____
ROOT
ATOM      2  O   UNL     1      15.895   6.193  20.115  0.00  0.00    -0.375 OA
ATOM      7  N   UNL     1      14.904   9.114  20.574  0.00  0.00    -0.292 NA
ATOM      8  C   UNL     1      16.265   9.250  21.102  0.00  0.00    +0.131 C 
ATOM      9  C   UNL     1      17.190   8.024  21.027  0.00  0.00    +0.213 C 
ATOM     10  C   UNL     1      14.802   8.281  19.374  0.00  0.00    +0.113 C 
ATOM     11  C   UNL     1      16.496   6.697  21.304  0.00  0.00    +0.205 C 
ATOM     13  C   UNL     1      14.663   6.811  19.770  0.00  0.00    +0.175 C 
ENDROOT
BRANCH   9   3
ATOM      3  O   UNL     1      18.226   8.189  21.996  0.00  0.00    -0.485 OA
BRANCH   3  15
ATOM     15  C   UNL     1      19.274   7.313  21.925  0.00  0.00    +0.121 A 
ATOM     18  C   UNL     1      19.575   6.683  20.717  0.00  0.00    +0.047 A 
ATOM     19  C   UNL     1      20.041   7.050  23.059  0.00  0.00    +0.047 A 
ATOM     20  C   UNL     1      21.412   5.526  21.779  0.00  0.00    +0.088 A 
ATOM     23  C   UNL     1      20.644   5.790  20.644  0.00  0.00    +0.030 A 
ATOM     24  C   UNL     1      21.110   6.157  22.987  0.00  0.00    +0.030 A 
BRANCH  20   1
ATOM      1  S   UNL     1      22.747   4.406  21.690  0.00  0.00    -0.006 S 
ATOM      5  O   UNL     1      22.336   3.134  22.269  0.00  0.00    -0.170 OA
ATOM      6  O   UNL     1      23.274   4.444  20.333  0.00  0.00    -0.170 OA
ATOM     26  C   UNL     1      23.977   5.096  22.773  0.00  0.00    +0.200 C 
ENDBRANCH  20   1
ENDBRANCH   3  15
ENDBRANCH   9   3
BRANCH   7  12
ATOM     12  C   UNL     1      14.312  10.436  20.361  0.00  0.00    +0.119 C 
BRANCH  12  14
ATOM     14  C   UNL     1      13.281  10.763  21.408  0.00  0.00    -0.033 A 
ATOM     16  C   UNL     1      13.574  11.689  22.411  0.00  0.00    +0.008 A 
ATOM     17  C   UNL     1      12.032  10.143  21.376  0.00  0.00    +0.008 A 
ATOM     21  C   UNL     1      12.619  11.992  23.380  0.00  0.00    +0.046 A 
ATOM     22  C   UNL     1      11.076  10.447  22.346  0.00  0.00    +0.046 A 
ATOM     25  C   UNL     1      11.371  11.372  23.348  0.00  0.00    +0.120 A 
BRANCH  25   4
ATOM      4  O   UNL     1      10.439  11.668  24.295  0.00  0.00    -0.495 OA
ATOM     27  C   UNL     1      10.501  12.966  24.884  0.00  0.00    +0.277 C 
ENDBRANCH  25   4
ENDBRANCH  12  14
ENDBRANCH   7  12
TORSDOF 6
ENDMDL
