MODEL 1
REMARK VINA RESULT:      -6.7      0.000      0.000
REMARK  Name = 56775566
REMARK  6 active torsions:
REMARK  status: ('A' for Active; 'I' for Inactive)
REMARK    1  A    between atoms: N_4  and  C_6
REMARK    2  A    between atoms: N_4  and  C_10
REMARK    3  A    between atoms: C_6  and  C_9
REMARK    4  A    between atoms: C_9  and  C_11
REMARK    5  A    between atoms: C_10  and  C_12
REMARK    6  A    between atoms: C_14  and  C_17
REMARK                            x       y       z     vdW  Elec       q    Type
REMARK                         _______ _______ _______ _____ _____    ______ ____
ROOT
ATOM      2  O   UNL     1      10.562   7.056  21.754  0.00  0.00    -0.376 OA
ATOM      6  C   UNL     1      12.065   8.542  21.453  0.00  0.00    +0.072 C 
ATOM      7  C   UNL     1      12.008   7.041  21.714  0.00  0.00    +0.184 C 
ATOM      8  C   UNL     1      10.543   8.462  21.415  0.00  0.00    +0.184 C 
ENDROOT
BRANCH   6   4
ATOM      4  N   UNL     1      12.469   9.216  22.681  0.00  0.00    -0.302 NA
ATOM     26  H   UNL     1      11.800   9.175  23.447  0.00  0.00    +0.123 HD
BRANCH   4  10
ATOM     10  C   UNL     1      12.824  10.602  22.389  0.00  0.00    +0.118 C 
BRANCH  10  12
ATOM      1 CL   UNL     1      11.668  13.019  20.851  0.00  0.00    -0.083 Cl
ATOM     12  C   UNL     1      11.955  11.573  23.144  0.00  0.00    -0.015 A 
ATOM     15  C   UNL     1      11.395  12.690  22.523  0.00  0.00    +0.045 A 
ATOM     16  C   UNL     1      11.716  11.335  24.497  0.00  0.00    +0.006 A 
ATOM     18  C   UNL     1      10.596  13.568  23.256  0.00  0.00    +0.020 A 
ATOM     19  C   UNL     1      10.918  12.212  25.229  0.00  0.00    +0.000 A 
ATOM     20  C   UNL     1      10.358  13.329  24.609  0.00  0.00    +0.001 A 
ENDBRANCH  10  12
ENDBRANCH   4  10
ENDBRANCH   6   4
BRANCH   6   9
ATOM      9  C   UNL     1      12.814   9.055  20.216  0.00  0.00    +0.085 C 
BRANCH   9  11
ATOM      3  O   UNL     1      15.372   6.896  18.970  0.00  0.00    -0.354 OA
ATOM      5  N   UNL     1      14.113   7.478  18.897  0.00  0.00    -0.083 NA
ATOM     11  C   UNL     1      14.033   8.270  19.970  0.00  0.00    +0.086 A 
ATOM     13  C   UNL     1      15.202   8.228  20.750  0.00  0.00    +0.076 A 
ATOM     14  C   UNL     1      16.011   7.350  20.079  0.00  0.00    +0.167 A 
BRANCH  14  17
ATOM     17  C   UNL     1      17.341   6.832  20.291  0.00  0.00    +0.020 A 
ATOM     21  C   UNL     1      17.811   5.777  19.509  0.00  0.00    +0.011 A 
ATOM     22  C   UNL     1      18.156   7.386  21.278  0.00  0.00    +0.011 A 
ATOM     23  C   UNL     1      19.096   5.276  19.714  0.00  0.00    +0.001 A 
ATOM     24  C   UNL     1      19.441   6.885  21.484  0.00  0.00    +0.001 A 
ATOM     25  C   UNL     1      19.912   5.830  20.700  0.00  0.00    +0.000 A 
ENDBRANCH  14  17
ENDBRANCH   9  11
ENDBRANCH   6   9
TORSDOF 6
ENDMDL
MODEL 2
REMARK VINA RESULT:      -6.2      2.565      3.375
REMARK  Name = 56775566
REMARK  6 active torsions:
REMARK  status: ('A' for Active; 'I' for Inactive)
REMARK    1  A    between atoms: N_4  and  C_6
REMARK    2  A    between atoms: N_4  and  C_10
REMARK    3  A    between atoms: C_6  and  C_9
REMARK    4  A    between atoms: C_9  and  C_11
REMARK    5  A    between atoms: C_10  and  C_12
REMARK    6  A    between atoms: C_14  and  C_17
REMARK                            x       y       z     vdW  Elec       q    Type
REMARK                         _______ _______ _______ _____ _____    ______ ____
ROOT
ATOM      2  O   UNL     1      10.497   7.389  20.859  0.00  0.00    -0.376 OA
ATOM      6  C   UNL     1      12.602   7.666  20.635  0.00  0.00    +0.072 C 
ATOM      7  C   UNL     1      11.664   6.613  21.216  0.00  0.00    +0.184 C 
ATOM      8  C   UNL     1      11.324   8.380  20.206  0.00  0.00    +0.184 C 
ENDROOT
BRANCH   6   4
ATOM      4  N   UNL     1      13.209   8.409  21.731  0.00  0.00    -0.302 NA
ATOM     26  H   UNL     1      12.811   8.240  22.653  0.00  0.00    +0.123 HD
BRANCH   4  10
ATOM     10  C   UNL     1      13.197   9.837  21.425  0.00  0.00    +0.118 C 
BRANCH  10  12
ATOM      1 CL   UNL     1      13.757  11.001  18.619  0.00  0.00    -0.083 Cl
ATOM     12  C   UNL     1      14.580  10.360  21.138  0.00  0.00    -0.015 A 
ATOM     15  C   UNL     1      14.914  10.901  19.896  0.00  0.00    +0.045 A 
ATOM     16  C   UNL     1      15.537  10.293  22.149  0.00  0.00    +0.006 A 
ATOM     18  C   UNL     1      16.206  11.375  19.666  0.00  0.00    +0.020 A 
ATOM     19  C   UNL     1      16.828  10.766  21.920  0.00  0.00    +0.000 A 
ATOM     20  C   UNL     1      17.163  11.307  20.679  0.00  0.00    +0.001 A 
ENDBRANCH  10  12
ENDBRANCH   4  10
ENDBRANCH   6   4
BRANCH   6   9
ATOM      9  C   UNL     1      13.616   7.248  19.561  0.00  0.00    +0.085 C 
BRANCH   9  11
ATOM      3  O   UNL     1      16.394   6.163  21.527  0.00  0.00    -0.354 OA
ATOM      5  N   UNL     1      15.035   6.208  21.240  0.00  0.00    -0.083 NA
ATOM     11  C   UNL     1      14.935   6.979  20.153  0.00  0.00    +0.086 A 
ATOM     13  C   UNL     1      16.187   7.445  19.714  0.00  0.00    +0.076 A 
ATOM     14  C   UNL     1      17.069   6.904  20.611  0.00  0.00    +0.167 A 
BRANCH  14  17
ATOM     17  C   UNL     1      18.501   6.951  20.778  0.00  0.00    +0.020 A 
ATOM     21  C   UNL     1      19.276   5.830  20.478  0.00  0.00    +0.011 A 
ATOM     22  C   UNL     1      19.111   8.118  21.239  0.00  0.00    +0.011 A 
ATOM     23  C   UNL     1      20.660   5.876  20.640  0.00  0.00    +0.001 A 
ATOM     24  C   UNL     1      20.496   8.163  21.402  0.00  0.00    +0.001 A 
ATOM     25  C   UNL     1      21.271   7.042  21.101  0.00  0.00    +0.000 A 
ENDBRANCH  14  17
ENDBRANCH   9  11
ENDBRANCH   6   9
TORSDOF 6
ENDMDL
MODEL 3
REMARK VINA RESULT:      -6.2     27.127     28.629
REMARK  Name = 56775566
REMARK  6 active torsions:
REMARK  status: ('A' for Active; 'I' for Inactive)
REMARK    1  A    between atoms: N_4  and  C_6
REMARK    2  A    between atoms: N_4  and  C_10
REMARK    3  A    between atoms: C_6  and  C_9
REMARK    4  A    between atoms: C_9  and  C_11
REMARK    5  A    between atoms: C_10  and  C_12
REMARK    6  A    between atoms: C_14  and  C_17
REMARK                            x       y       z     vdW  Elec       q    Type
REMARK                         _______ _______ _______ _____ _____    ______ ____
ROOT
ATOM      2  O   UNL     1      -2.444 -13.897  13.218  0.00  0.00    -0.376 OA
ATOM      6  C   UNL     1      -2.716 -12.063  14.277  0.00  0.00    +0.072 C 
ATOM      7  C   UNL     1      -1.576 -13.033  13.987  0.00  0.00    +0.184 C 
ATOM      8  C   UNL     1      -3.545 -12.972  13.375  0.00  0.00    +0.184 C 
ENDROOT
BRANCH   6   4
ATOM      4  N   UNL     1      -3.149 -12.249  15.656  0.00  0.00    -0.302 NA
ATOM     26  H   UNL     1      -4.047 -12.713  15.778  0.00  0.00    +0.123 HD
BRANCH   4  10
ATOM     10  C   UNL     1      -3.143 -10.964  16.352  0.00  0.00    +0.118 C 
BRANCH  10  12
ATOM      1 CL   UNL     1      -3.733 -11.997  19.203  0.00  0.00    -0.083 Cl
ATOM     12  C   UNL     1      -4.485 -10.648  16.956  0.00  0.00    -0.015 A 
ATOM     15  C   UNL     1      -4.830 -11.078  18.238  0.00  0.00    +0.045 A 
ATOM     16  C   UNL     1      -5.394  -9.907  16.201  0.00  0.00    +0.006 A 
ATOM     18  C   UNL     1      -6.084 -10.766  18.764  0.00  0.00    +0.020 A 
ATOM     19  C   UNL     1      -6.647  -9.595  16.727  0.00  0.00    +0.000 A 
ATOM     20  C   UNL     1      -6.992 -10.025  18.009  0.00  0.00    +0.001 A 
ENDBRANCH  10  12
ENDBRANCH   4  10
ENDBRANCH   6   4
BRANCH   6   9
ATOM      9  C   UNL     1      -2.552 -10.586  13.896  0.00  0.00    +0.085 C 
BRANCH   9  11
ATOM      3  O   UNL     1      -2.954 -10.091  10.381  0.00  0.00    -0.354 OA
ATOM      5  N   UNL     1      -2.181 -10.366  11.502  0.00  0.00    -0.083 NA
ATOM     11  C   UNL     1      -3.035 -10.334  12.529  0.00  0.00    +0.086 A 
ATOM     13  C   UNL     1      -4.349 -10.046  12.120  0.00  0.00    +0.076 A 
ATOM     14  C   UNL     1      -4.244  -9.903  10.762  0.00  0.00    +0.167 A 
BRANCH  14  17
ATOM     17  C   UNL     1      -5.174  -9.608   9.699  0.00  0.00    +0.020 A 
ATOM     21  C   UNL     1      -4.873  -9.978   8.388  0.00  0.00    +0.011 A 
ATOM     22  C   UNL     1      -6.373  -8.954   9.982  0.00  0.00    +0.011 A 
ATOM     23  C   UNL     1      -5.772  -9.693   7.360  0.00  0.00    +0.001 A 
ATOM     24  C   UNL     1      -7.271  -8.669   8.954  0.00  0.00    +0.001 A 
ATOM     25  C   UNL     1      -6.971  -9.039   7.643  0.00  0.00    +0.000 A 
ENDBRANCH  14  17
ENDBRANCH   9  11
ENDBRANCH   6   9
TORSDOF 6
ENDMDL
MODEL 4
REMARK VINA RESULT:      -6.1      1.654      2.041
REMARK  Name = 56775566
REMARK  6 active torsions:
REMARK  status: ('A' for Active; 'I' for Inactive)
REMARK    1  A    between atoms: N_4  and  C_6
REMARK    2  A    between atoms: N_4  and  C_10
REMARK    3  A    between atoms: C_6  and  C_9
REMARK    4  A    between atoms: C_9  and  C_11
REMARK    5  A    between atoms: C_10  and  C_12
REMARK    6  A    between atoms: C_14  and  C_17
REMARK                            x       y       z     vdW  Elec       q    Type
REMARK                         _______ _______ _______ _____ _____    ______ ____
ROOT
ATOM      2  O   UNL     1      11.586   6.951  19.852  0.00  0.00    -0.376 OA
ATOM      6  C   UNL     1      13.168   8.308  20.315  0.00  0.00    +0.072 C 
ATOM      7  C   UNL     1      12.917   6.807  20.399  0.00  0.00    +0.184 C 
ATOM      8  C   UNL     1      11.794   8.369  19.657  0.00  0.00    +0.184 C 
ENDROOT
BRANCH   6   4
ATOM      4  N   UNL     1      13.073   8.875  21.654  0.00  0.00    -0.302 NA
ATOM     26  H   UNL     1      12.129   9.004  22.013  0.00  0.00    +0.123 HD
BRANCH   4  10
ATOM     10  C   UNL     1      13.815  10.133  21.711  0.00  0.00    +0.118 C 
BRANCH  10  12
ATOM      1 CL   UNL     1      14.646  11.502  24.352  0.00  0.00    -0.083 Cl
ATOM     12  C   UNL     1      12.961  11.263  22.221  0.00  0.00    -0.015 A 
ATOM     15  C   UNL     1      13.268  11.934  23.406  0.00  0.00    +0.045 A 
ATOM     16  C   UNL     1      11.841  11.635  21.479  0.00  0.00    +0.006 A 
ATOM     18  C   UNL     1      12.453  12.976  23.848  0.00  0.00    +0.020 A 
ATOM     19  C   UNL     1      11.027  12.677  21.921  0.00  0.00    +0.000 A 
ATOM     20  C   UNL     1      11.332  13.348  23.105  0.00  0.00    +0.001 A 
ENDBRANCH  10  12
ENDBRANCH   4  10
ENDBRANCH   6   4
BRANCH   6   9
ATOM      9  C   UNL     1      14.388   8.817  19.535  0.00  0.00    +0.085 C 
BRANCH   9  11
ATOM      3  O   UNL     1      16.758   6.158  19.263  0.00  0.00    -0.354 OA
ATOM      5  N   UNL     1      15.581   6.797  18.893  0.00  0.00    -0.083 NA
ATOM     11  C   UNL     1      15.523   7.889  19.660  0.00  0.00    +0.086 A 
ATOM     13  C   UNL     1      16.626   7.990  20.527  0.00  0.00    +0.076 A 
ATOM     14  C   UNL     1      17.371   6.878  20.237  0.00  0.00    +0.167 A 
BRANCH  14  17
ATOM     17  C   UNL     1      18.615   6.336  20.725  0.00  0.00    +0.020 A 
ATOM     21  C   UNL     1      19.282   5.352  19.995  0.00  0.00    +0.011 A 
ATOM     22  C   UNL     1      19.153   6.797  21.927  0.00  0.00    +0.011 A 
ATOM     23  C   UNL     1      20.485   4.828  20.467  0.00  0.00    +0.001 A 
ATOM     24  C   UNL     1      20.356   6.273  22.400  0.00  0.00    +0.001 A 
ATOM     25  C   UNL     1      21.023   5.288  21.669  0.00  0.00    +0.000 A 
ENDBRANCH  14  17
ENDBRANCH   9  11
ENDBRANCH   6   9
TORSDOF 6
ENDMDL
MODEL 5
REMARK VINA RESULT:      -6.1      2.690      4.286
REMARK  Name = 56775566
REMARK  6 active torsions:
REMARK  status: ('A' for Active; 'I' for Inactive)
REMARK    1  A    between atoms: N_4  and  C_6
REMARK    2  A    between atoms: N_4  and  C_10
REMARK    3  A    between atoms: C_6  and  C_9
REMARK    4  A    between atoms: C_9  and  C_11
REMARK    5  A    between atoms: C_10  and  C_12
REMARK    6  A    between atoms: C_14  and  C_17
REMARK                            x       y       z     vdW  Elec       q    Type
REMARK                         _______ _______ _______ _____ _____    ______ ____
ROOT
ATOM      2  O   UNL     1      13.983  12.297  26.444  0.00  0.00    -0.376 OA
ATOM      6  C   UNL     1      13.575  11.839  24.399  0.00  0.00    +0.072 C 
ATOM      7  C   UNL     1      13.125  12.869  25.430  0.00  0.00    +0.184 C 
ATOM      8  C   UNL     1      14.522  11.353  25.491  0.00  0.00    +0.184 C 
ENDROOT
BRANCH   6   4
ATOM      4  N   UNL     1      12.514  10.856  24.226  0.00  0.00    -0.302 NA
ATOM     26  H   UNL     1      12.818   9.886  24.163  0.00  0.00    +0.123 HD
BRANCH   4  10
ATOM     10  C   UNL     1      11.698  11.210  23.067  0.00  0.00    +0.118 C 
BRANCH  10  12
ATOM      1 CL   UNL     1      12.418  11.433  20.072  0.00  0.00    -0.083 Cl
ATOM     12  C   UNL     1      11.433  10.019  22.184  0.00  0.00    -0.015 A 
ATOM     15  C   UNL     1      11.730  10.039  20.821  0.00  0.00    +0.045 A 
ATOM     16  C   UNL     1      10.877   8.877  22.760  0.00  0.00    +0.006 A 
ATOM     18  C   UNL     1      11.470   8.916  20.035  0.00  0.00    +0.020 A 
ATOM     19  C   UNL     1      10.617   7.755  21.975  0.00  0.00    +0.000 A 
ATOM     20  C   UNL     1      10.913   7.774  20.612  0.00  0.00    +0.001 A 
ENDBRANCH  10  12
ENDBRANCH   4  10
ENDBRANCH   6   4
BRANCH   6   9
ATOM      9  C   UNL     1      14.162  12.326  23.068  0.00  0.00    +0.085 C 
BRANCH   9  11
ATOM      3  O   UNL     1      17.187  10.698  22.087  0.00  0.00    -0.354 OA
ATOM      5  N   UNL     1      16.488  11.779  22.609  0.00  0.00    -0.083 NA
ATOM     11  C   UNL     1      15.204  11.409  22.581  0.00  0.00    +0.086 A 
ATOM     13  C   UNL     1      15.034  10.116  22.054  0.00  0.00    +0.076 A 
ATOM     14  C   UNL     1      16.310   9.714  21.760  0.00  0.00    +0.167 A 
BRANCH  14  17
ATOM     17  C   UNL     1      16.893   8.518  21.203  0.00  0.00    +0.020 A 
ATOM     21  C   UNL     1      16.171   7.753  20.285  0.00  0.00    +0.011 A 
ATOM     22  C   UNL     1      18.176   8.125  21.582  0.00  0.00    +0.011 A 
ATOM     23  C   UNL     1      16.734   6.597  19.746  0.00  0.00    +0.001 A 
ATOM     24  C   UNL     1      18.739   6.967  21.044  0.00  0.00    +0.001 A 
ATOM     25  C   UNL     1      18.017   6.203  20.125  0.00  0.00    +0.000 A 
ENDBRANCH  14  17
ENDBRANCH   9  11
ENDBRANCH   6   9
TORSDOF 6
ENDMDL
MODEL 6
REMARK VINA RESULT:      -6.1      4.221      7.057
REMARK  Name = 56775566
REMARK  6 active torsions:
REMARK  status: ('A' for Active; 'I' for Inactive)
REMARK    1  A    between atoms: N_4  and  C_6
REMARK    2  A    between atoms: N_4  and  C_10
REMARK    3  A    between atoms: C_6  and  C_9
REMARK    4  A    between atoms: C_9  and  C_11
REMARK    5  A    between atoms: C_10  and  C_12
REMARK    6  A    between atoms: C_14  and  C_17
REMARK                            x       y       z     vdW  Elec       q    Type
REMARK                         _______ _______ _______ _____ _____    ______ ____
ROOT
ATOM      2  O   UNL     1      11.791   8.158  21.272  0.00  0.00    -0.376 OA
ATOM      6  C   UNL     1      12.585   8.260  19.293  0.00  0.00    +0.072 C 
ATOM      7  C   UNL     1      12.047   7.186  20.232  0.00  0.00    +0.184 C 
ATOM      8  C   UNL     1      12.199   9.236  20.400  0.00  0.00    +0.184 C 
ENDROOT
BRANCH   6   4
ATOM      4  N   UNL     1      14.038   8.157  19.245  0.00  0.00    -0.302 NA
ATOM     26  H   UNL     1      14.491   8.662  18.487  0.00  0.00    +0.123 HD
BRANCH   4  10
ATOM     10  C   UNL     1      14.432   6.750  19.226  0.00  0.00    +0.118 C 
BRANCH  10  12
ATOM      1 CL   UNL     1      15.062   7.619  22.122  0.00  0.00    -0.083 Cl
ATOM     12  C   UNL     1      15.835   6.555  19.735  0.00  0.00    -0.015 A 
ATOM     15  C   UNL     1      16.201   6.921  21.030  0.00  0.00    +0.045 A 
ATOM     16  C   UNL     1      16.779   5.993  18.876  0.00  0.00    +0.006 A 
ATOM     18  C   UNL     1      17.512   6.725  21.466  0.00  0.00    +0.020 A 
ATOM     19  C   UNL     1      18.089   5.797  19.311  0.00  0.00    +0.000 A 
ATOM     20  C   UNL     1      18.456   6.163  20.606  0.00  0.00    +0.001 A 
ENDBRANCH  10  12
ENDBRANCH   4  10
ENDBRANCH   6   4
BRANCH   6   9
ATOM      9  C   UNL     1      11.951   8.422  17.905  0.00  0.00    +0.085 C 
BRANCH   9  11
ATOM      3  O   UNL     1      14.300   9.137  15.311  0.00  0.00    -0.354 OA
ATOM      5  N   UNL     1      13.482   8.267  16.022  0.00  0.00    -0.083 NA
ATOM     11  C   UNL     1      12.899   9.024  16.955  0.00  0.00    +0.086 A 
ATOM     13  C   UNL     1      13.308  10.368  16.883  0.00  0.00    +0.076 A 
ATOM     14  C   UNL     1      14.188  10.385  15.834  0.00  0.00    +0.167 A 
BRANCH  14  17
ATOM     17  C   UNL     1      14.983  11.405  15.194  0.00  0.00    +0.020 A 
ATOM     21  C   UNL     1      15.690  11.109  14.029  0.00  0.00    +0.011 A 
ATOM     22  C   UNL     1      15.044  12.686  15.741  0.00  0.00    +0.011 A 
ATOM     23  C   UNL     1      16.459  12.095  13.411  0.00  0.00    +0.001 A 
ATOM     24  C   UNL     1      15.814  13.672  15.123  0.00  0.00    +0.001 A 
ATOM     25  C   UNL     1      16.521  13.376  13.957  0.00  0.00    +0.000 A 
ENDBRANCH  14  17
ENDBRANCH   9  11
ENDBRANCH   6   9
TORSDOF 6
ENDMDL
MODEL 7
REMARK VINA RESULT:      -6.1     28.446     30.839
REMARK  Name = 56775566
REMARK  6 active torsions:
REMARK  status: ('A' for Active; 'I' for Inactive)
REMARK    1  A    between atoms: N_4  and  C_6
REMARK    2  A    between atoms: N_4  and  C_10
REMARK    3  A    between atoms: C_6  and  C_9
REMARK    4  A    between atoms: C_9  and  C_11
REMARK    5  A    between atoms: C_10  and  C_12
REMARK    6  A    between atoms: C_14  and  C_17
REMARK                            x       y       z     vdW  Elec       q    Type
REMARK                         _______ _______ _______ _____ _____    ______ ____
ROOT
ATOM      2  O   UNL     1     -11.750 -10.567  18.442  0.00  0.00    -0.376 OA
ATOM      6  C   UNL     1     -10.252  -9.307  17.590  0.00  0.00    +0.072 C 
ATOM      7  C   UNL     1     -11.554  -9.963  17.143  0.00  0.00    +0.184 C 
ATOM      8  C   UNL     1     -10.576  -9.899  18.958  0.00  0.00    +0.184 C 
ENDROOT
BRANCH   6   4
ATOM      4  N   UNL     1      -9.134 -10.043  17.013  0.00  0.00    -0.302 NA
ATOM     26  H   UNL     1      -8.995 -10.986  17.371  0.00  0.00    +0.123 HD
BRANCH   4  10
ATOM     10  C   UNL     1      -7.907  -9.262  17.149  0.00  0.00    +0.118 C 
BRANCH  10  12
ATOM      1 CL   UNL     1      -5.467  -9.928  15.377  0.00  0.00    -0.083 Cl
ATOM     12  C   UNL     1      -6.792 -10.072  17.755  0.00  0.00    -0.015 A 
ATOM     15  C   UNL     1      -5.656 -10.415  17.022  0.00  0.00    +0.045 A 
ATOM     16  C   UNL     1      -6.915 -10.480  19.083  0.00  0.00    +0.006 A 
ATOM     18  C   UNL     1      -4.643 -11.168  17.617  0.00  0.00    +0.020 A 
ATOM     19  C   UNL     1      -5.903 -11.232  19.678  0.00  0.00    +0.000 A 
ATOM     20  C   UNL     1      -4.767 -11.576  18.945  0.00  0.00    +0.001 A 
ENDBRANCH  10  12
ENDBRANCH   4  10
ENDBRANCH   6   4
BRANCH   6   9
ATOM      9  C   UNL     1     -10.100  -7.786  17.455  0.00  0.00    +0.085 C 
BRANCH   9  11
ATOM      3  O   UNL     1     -11.301  -7.191  14.144  0.00  0.00    -0.354 OA
ATOM      5  N   UNL     1     -10.539  -7.898  15.066  0.00  0.00    -0.083 NA
ATOM     11  C   UNL     1     -10.759  -7.293  16.236  0.00  0.00    +0.086 A 
ATOM     13  C   UNL     1     -11.642  -6.205  16.116  0.00  0.00    +0.076 A 
ATOM     14  C   UNL     1     -11.953  -6.185  14.782  0.00  0.00    +0.167 A 
BRANCH  14  17
ATOM     17  C   UNL     1     -12.792  -5.357  13.950  0.00  0.00    +0.020 A 
ATOM     21  C   UNL     1     -14.178  -5.511  13.985  0.00  0.00    +0.011 A 
ATOM     22  C   UNL     1     -12.218  -4.403  13.110  0.00  0.00    +0.011 A 
ATOM     23  C   UNL     1     -14.990  -4.712  13.181  0.00  0.00    +0.001 A 
ATOM     24  C   UNL     1     -13.029  -3.604  12.305  0.00  0.00    +0.001 A 
ATOM     25  C   UNL     1     -14.416  -3.758  12.341  0.00  0.00    +0.000 A 
ENDBRANCH  14  17
ENDBRANCH   9  11
ENDBRANCH   6   9
TORSDOF 6
ENDMDL
MODEL 8
REMARK VINA RESULT:      -5.9     18.596     21.197
REMARK  Name = 56775566
REMARK  6 active torsions:
REMARK  status: ('A' for Active; 'I' for Inactive)
REMARK    1  A    between atoms: N_4  and  C_6
REMARK    2  A    between atoms: N_4  and  C_10
REMARK    3  A    between atoms: C_6  and  C_9
REMARK    4  A    between atoms: C_9  and  C_11
REMARK    5  A    between atoms: C_10  and  C_12
REMARK    6  A    between atoms: C_14  and  C_17
REMARK                            x       y       z     vdW  Elec       q    Type
REMARK                         _______ _______ _______ _____ _____    ______ ____
ROOT
ATOM      2  O   UNL     1      10.066   7.799   0.083  0.00  0.00    -0.376 OA
ATOM      6  C   UNL     1      11.047   6.120   0.964  0.00  0.00    +0.072 C 
ATOM      7  C   UNL     1      11.335   7.139  -0.133  0.00  0.00    +0.184 C 
ATOM      8  C   UNL     1       9.773   6.924   1.197  0.00  0.00    +0.184 C 
ENDROOT
BRANCH   6   4
ATOM      4  N   UNL     1      10.694   4.850   0.343  0.00  0.00    -0.302 NA
ATOM     26  H   UNL     1       9.950   4.327   0.801  0.00  0.00    +0.123 HD
BRANCH   4  10
ATOM     10  C   UNL     1      11.888   4.020   0.203  0.00  0.00    +0.118 C 
BRANCH  10  12
ATOM      1 CL   UNL     1      14.398   5.356  -1.003  0.00  0.00    -0.083 Cl
ATOM     12  C   UNL     1      12.212   3.745  -1.242  0.00  0.00    -0.015 A 
ATOM     15  C   UNL     1      13.327   4.309  -1.862  0.00  0.00    +0.045 A 
ATOM     16  C   UNL     1      11.365   2.903  -1.962  0.00  0.00    +0.006 A 
ATOM     18  C   UNL     1      13.595   4.031  -3.202  0.00  0.00    +0.020 A 
ATOM     19  C   UNL     1      11.633   2.625  -3.302  0.00  0.00    +0.000 A 
ATOM     20  C   UNL     1      12.747   3.189  -3.922  0.00  0.00    +0.001 A 
ENDBRANCH  10  12
ENDBRANCH   4  10
ENDBRANCH   6   4
BRANCH   6   9
ATOM      9  C   UNL     1      12.049   5.964   2.116  0.00  0.00    +0.085 C 
BRANCH   9  11
ATOM      3  O   UNL     1      10.307   4.196   4.686  0.00  0.00    -0.354 OA
ATOM      5  N   UNL     1      10.852   4.288   3.411  0.00  0.00    -0.083 NA
ATOM     11  C   UNL     1      11.377   5.515   3.346  0.00  0.00    +0.086 A 
ATOM     13  C   UNL     1      11.195   6.236   4.539  0.00  0.00    +0.076 A 
ATOM     14  C   UNL     1      10.518   5.363   5.348  0.00  0.00    +0.167 A 
BRANCH  14  17
ATOM     17  C   UNL     1      10.006   5.418   6.695  0.00  0.00    +0.020 A 
ATOM     21  C   UNL     1      10.052   4.284   7.506  0.00  0.00    +0.011 A 
ATOM     22  C   UNL     1       9.466   6.606   7.188  0.00  0.00    +0.011 A 
ATOM     23  C   UNL     1       9.557   4.337   8.809  0.00  0.00    +0.001 A 
ATOM     24  C   UNL     1       8.970   6.659   8.491  0.00  0.00    +0.001 A 
ATOM     25  C   UNL     1       9.017   5.524   9.302  0.00  0.00    +0.000 A 
ENDBRANCH  14  17
ENDBRANCH   9  11
ENDBRANCH   6   9
TORSDOF 6
ENDMDL
MODEL 9
REMARK VINA RESULT:      -5.8     33.032     35.405
REMARK  Name = 56775566
REMARK  6 active torsions:
REMARK  status: ('A' for Active; 'I' for Inactive)
REMARK    1  A    between atoms: N_4  and  C_6
REMARK    2  A    between atoms: N_4  and  C_10
REMARK    3  A    between atoms: C_6  and  C_9
REMARK    4  A    between atoms: C_9  and  C_11
REMARK    5  A    between atoms: C_10  and  C_12
REMARK    6  A    between atoms: C_14  and  C_17
REMARK                            x       y       z     vdW  Elec       q    Type
REMARK                         _______ _______ _______ _____ _____    ______ ____
ROOT
ATOM      2  O   UNL     1       4.347 -14.291  -0.961  0.00  0.00    -0.376 OA
ATOM      6  C   UNL     1       2.291 -14.356  -1.530  0.00  0.00    +0.072 C 
ATOM      7  C   UNL     1       3.604 -14.977  -1.995  0.00  0.00    +0.184 C 
ATOM      8  C   UNL     1       3.127 -13.745  -0.411  0.00  0.00    +0.184 C 
ENDROOT
BRANCH   6   4
ATOM      4  N   UNL     1       1.913 -13.303  -2.463  0.00  0.00    -0.302 NA
ATOM     26  H   UNL     1       1.427 -12.507  -2.057  0.00  0.00    +0.123 HD
BRANCH   4  10
ATOM     10  C   UNL     1       1.131 -13.872  -3.559  0.00  0.00    +0.118 C 
BRANCH  10  12
ATOM      1 CL   UNL     1      -0.845 -12.094  -5.131  0.00  0.00    -0.083 Cl
ATOM     12  C   UNL     1       1.570 -13.337  -4.896  0.00  0.00    -0.015 A 
ATOM     15  C   UNL     1       0.737 -12.527  -5.669  0.00  0.00    +0.045 A 
ATOM     16  C   UNL     1       2.843 -13.669  -5.358  0.00  0.00    +0.006 A 
ATOM     18  C   UNL     1       1.178 -12.050  -6.904  0.00  0.00    +0.020 A 
ATOM     19  C   UNL     1       3.284 -13.193  -6.592  0.00  0.00    +0.000 A 
ATOM     20  C   UNL     1       2.451 -12.383  -7.365  0.00  0.00    +0.001 A 
ENDBRANCH  10  12
ENDBRANCH   4  10
ENDBRANCH   6   4
BRANCH   6   9
ATOM      9  C   UNL     1       1.120 -15.279  -1.164  0.00  0.00    +0.085 C 
BRANCH   9  11
ATOM      3  O   UNL     1      -1.313 -13.321   0.571  0.00  0.00    -0.354 OA
ATOM      5  N   UNL     1      -0.642 -13.706  -0.583  0.00  0.00    -0.083 NA
ATOM     11  C   UNL     1       0.227 -14.639  -0.185  0.00  0.00    +0.086 A 
ATOM     13  C   UNL     1       0.150 -14.883   1.197  0.00  0.00    +0.076 A 
ATOM     14  C   UNL     1      -0.833 -14.029   1.625  0.00  0.00    +0.167 A 
BRANCH  14  17
ATOM     17  C   UNL     1      -1.438 -13.740   2.901  0.00  0.00    +0.020 A 
ATOM     21  C   UNL     1      -0.968 -14.368   4.055  0.00  0.00    +0.011 A 
ATOM     22  C   UNL     1      -2.493 -12.831   2.983  0.00  0.00    +0.011 A 
ATOM     23  C   UNL     1      -1.553 -14.088   5.289  0.00  0.00    +0.001 A 
ATOM     24  C   UNL     1      -3.079 -12.552   4.217  0.00  0.00    +0.001 A 
ATOM     25  C   UNL     1      -2.609 -13.180   5.371  0.00  0.00    +0.000 A 
ENDBRANCH  14  17
ENDBRANCH   9  11
ENDBRANCH   6   9
TORSDOF 6
ENDMDL
MODEL 10
REMARK VINA RESULT:      -5.8     27.174     29.958
REMARK  Name = 56775566
REMARK  6 active torsions:
REMARK  status: ('A' for Active; 'I' for Inactive)
REMARK    1  A    between atoms: N_4  and  C_6
REMARK    2  A    between atoms: N_4  and  C_10
REMARK    3  A    between atoms: C_6  and  C_9
REMARK    4  A    between atoms: C_9  and  C_11
REMARK    5  A    between atoms: C_10  and  C_12
REMARK    6  A    between atoms: C_14  and  C_17
REMARK                            x       y       z     vdW  Elec       q    Type
REMARK                         _______ _______ _______ _____ _____    ______ ____
ROOT
ATOM      2  O   UNL     1      -7.441 -13.344  18.285  0.00  0.00    -0.376 OA
ATOM      6  C   UNL     1      -6.555 -11.615  17.401  0.00  0.00    +0.072 C 
ATOM      7  C   UNL     1      -7.833 -12.429  17.236  0.00  0.00    +0.184 C 
ATOM      8  C   UNL     1      -6.256 -12.563  18.558  0.00  0.00    +0.184 C 
ENDROOT
BRANCH   6   4
ATOM      4  N   UNL     1      -5.656 -11.924  16.297  0.00  0.00    -0.302 NA
ATOM     26  H   UNL     1      -5.341 -12.890  16.241  0.00  0.00    +0.123 HD
BRANCH   4  10
ATOM     10  C   UNL     1      -4.510 -11.017  16.325  0.00  0.00    +0.118 C 
BRANCH  10  12
ATOM      1 CL   UNL     1      -1.457 -10.613  16.088  0.00  0.00    -0.083 Cl
ATOM     12  C   UNL     1      -3.928 -10.808  14.953  0.00  0.00    -0.015 A 
ATOM     15  C   UNL     1      -2.559 -10.617  14.760  0.00  0.00    +0.045 A 
ATOM     16  C   UNL     1      -4.793 -10.806  13.859  0.00  0.00    +0.006 A 
ATOM     18  C   UNL     1      -2.056 -10.426  13.473  0.00  0.00    +0.020 A 
ATOM     19  C   UNL     1      -4.291 -10.615  12.573  0.00  0.00    +0.000 A 
ATOM     20  C   UNL     1      -2.922 -10.425  12.379  0.00  0.00    +0.001 A 
ENDBRANCH  10  12
ENDBRANCH   4  10
ENDBRANCH   6   4
BRANCH   6   9
ATOM      9  C   UNL     1      -6.662 -10.110  17.682  0.00  0.00    +0.085 C 
BRANCH   9  11
ATOM      3  O   UNL     1      -8.946  -8.909  15.212  0.00  0.00    -0.354 OA
ATOM      5  N   UNL     1      -7.780  -9.562  15.593  0.00  0.00    -0.083 NA
ATOM     11  C   UNL     1      -7.771  -9.507  16.927  0.00  0.00    +0.086 A 
ATOM     13  C   UNL     1      -8.896  -8.837  17.440  0.00  0.00    +0.076 A 
ATOM     14  C   UNL     1      -9.602  -8.482  16.321  0.00  0.00    +0.167 A 
BRANCH  14  17
ATOM     17  C   UNL     1     -10.841  -7.783  16.084  0.00  0.00    +0.020 A 
ATOM     21  C   UNL     1     -10.825  -6.505  15.524  0.00  0.00    +0.011 A 
ATOM     22  C   UNL     1     -12.055  -8.384  16.414  0.00  0.00    +0.011 A 
ATOM     23  C   UNL     1     -12.023  -5.829  15.295  0.00  0.00    +0.001 A 
ATOM     24  C   UNL     1     -13.254  -7.707  16.186  0.00  0.00    +0.001 A 
ATOM     25  C   UNL     1     -13.237  -6.430  15.625  0.00  0.00    +0.000 A 
ENDBRANCH  14  17
ENDBRANCH   9  11
ENDBRANCH   6   9
TORSDOF 6
ENDMDL
