MODEL 1
REMARK VINA RESULT:      -7.1      0.000      0.000
REMARK  Name = 11865736
REMARK  11 active torsions:
REMARK  status: ('A' for Active; 'I' for Inactive)
REMARK    1  A    between atoms: N_6  and  C_11
REMARK    2  A    between atoms: N_7  and  C_17
REMARK    3  A    between atoms: N_8  and  C_27
REMARK    4  A    between atoms: C_12  and  C_15
REMARK    5  A    between atoms: C_16  and  C_20
REMARK    6  A    between atoms: C_17  and  C_19
REMARK    7  A    between atoms: C_17  and  C_22
REMARK    8  A    between atoms: C_19  and  C_21
REMARK    9  A    between atoms: C_24  and  C_29
REMARK   10  A    between atoms: C_24  and  C_30
REMARK   11  A    between atoms: C_27  and  C_34
REMARK                            x       y       z     vdW  Elec       q    Type
REMARK                         _______ _______ _______ _____ _____    ______ ____
ROOT
ATOM      1  O   UNL     1      -5.796  -9.544  15.426  0.00  0.00    -0.274 OA
ATOM      7  N   UNL     1      -5.900 -11.233  17.025  0.00  0.00    -0.302 N 
ATOM     15  C   UNL     1      -6.409 -10.425  16.023  0.00  0.00    +0.234 C 
ATOM     37  H   UNL     1      -6.526 -11.870  17.508  0.00  0.00    +0.150 HD
ENDROOT
BRANCH  15  12
ATOM      2  O   UNL     1      -8.662  -8.909  17.724  0.00  0.00    -0.271 OA
ATOM      5  N   UNL     1      -8.568  -9.511  15.487  0.00  0.00    -0.285 N 
ATOM     11  C   UNL     1      -8.145 -10.422  13.329  0.00  0.00    +0.094 C 
ATOM     12  C   UNL     1      -7.836 -10.752  15.700  0.00  0.00    +0.164 C 
ATOM     13  C   UNL     1      -7.953 -11.514  14.382  0.00  0.00    +0.056 C 
ATOM     14  C   UNL     1      -8.919  -9.338  14.075  0.00  0.00    +0.131 C 
ATOM     16  C   UNL     1      -8.984  -8.725  16.550  0.00  0.00    +0.240 C 
BRANCH  11   6
ATOM      3  O   UNL     1      -7.703  -8.949  10.888  0.00  0.00    -0.253 OA
ATOM      6  N   UNL     1      -6.886  -9.933  12.827  0.00  0.00    -0.295 N 
ATOM      8  N   UNL     1      -5.438  -8.875  11.385  0.00  0.00    -0.296 N 
ATOM     18  C   UNL     1      -6.763  -9.227  11.632  0.00  0.00    +0.300 C 
ATOM     36  H   UNL     1      -6.039 -10.166  13.335  0.00  0.00    +0.151 HD
ATOM     38  H   UNL     1      -4.730  -9.133  12.067  0.00  0.00    +0.151 HD
BRANCH   8  27
ATOM     27  C   UNL     1      -5.029  -8.138  10.214  0.00  0.00    +0.132 C 
BRANCH  27  34
ATOM     34  C   UNL     1      -4.278  -9.050   9.301  0.00  0.00    -0.016 C 
ATOM     35  C   UNL     1      -4.862  -9.859   8.410  0.00  0.00    +0.005 C 
ENDBRANCH  27  34
ENDBRANCH   8  27
ENDBRANCH  11   6
BRANCH  16  20
ATOM     20  C   UNL     1      -9.874  -7.593  16.229  0.00  0.00    +0.066 C 
ATOM     24  C   UNL     1     -11.209  -7.595  16.392  0.00  0.00    -0.071 C 
ATOM     29  C   UNL     1     -11.892  -8.822  16.938  0.00  0.00    +0.039 C 
ATOM     30  C   UNL     1     -12.147  -6.463  16.078  0.00  0.00    +0.039 C 
ENDBRANCH  16  20
ENDBRANCH  15  12
BRANCH   7  17
ATOM     17  C   UNL     1      -4.540 -11.135  17.505  0.00  0.00    +0.163 C 
BRANCH  17  22
ATOM      4  O   UNL     1      -5.532 -11.467  19.698  0.00  0.00    -0.274 OA
ATOM     10  N   UNL     1      -3.350 -12.106  19.371  0.00  0.00    -0.328 N 
ATOM     22  C   UNL     1      -4.550 -11.558  18.966  0.00  0.00    +0.231 C 
ATOM     40  H   UNL     1      -2.554 -12.197  18.748  0.00  0.00    +0.145 HD
ATOM     41  H   UNL     1      -3.226 -12.443  20.320  0.00  0.00    +0.145 HD
ENDBRANCH  17  22
BRANCH  17  19
ATOM     19  C   UNL     1      -3.575 -12.013  16.698  0.00  0.00    +0.069 C 
BRANCH  19  21
ATOM      9  N   UNL     1      -1.390  -9.827  14.707  0.00  0.00    -0.360 N 
ATOM     21  C   UNL     1      -2.808 -11.245  15.659  0.00  0.00    -0.020 A 
ATOM     23  C   UNL     1      -2.937 -11.368  14.247  0.00  0.00    +0.003 A 
ATOM     25  C   UNL     1      -1.849 -10.290  15.911  0.00  0.00    +0.087 A 
ATOM     26  C   UNL     1      -2.037 -10.468  13.674  0.00  0.00    +0.047 A 
ATOM     28  C   UNL     1      -3.736 -12.161  13.401  0.00  0.00    +0.010 A 
ATOM     31  C   UNL     1      -1.895 -10.321  12.289  0.00  0.00    +0.026 A 
ATOM     32  C   UNL     1      -3.605 -12.025  12.013  0.00  0.00    +0.001 A 
ATOM     33  C   UNL     1      -2.698 -11.118  11.468  0.00  0.00    +0.002 A 
ATOM     39  H   UNL     1      -0.681  -9.116  14.593  0.00  0.00    +0.165 HD
ENDBRANCH  19  21
ENDBRANCH  17  19
ENDBRANCH   7  17
TORSDOF 9
ENDMDL
MODEL 2
REMARK VINA RESULT:      -6.6     27.013     30.152
REMARK  Name = 11865736
REMARK  11 active torsions:
REMARK  status: ('A' for Active; 'I' for Inactive)
REMARK    1  A    between atoms: N_6  and  C_11
REMARK    2  A    between atoms: N_7  and  C_17
REMARK    3  A    between atoms: N_8  and  C_27
REMARK    4  A    between atoms: C_12  and  C_15
REMARK    5  A    between atoms: C_16  and  C_20
REMARK    6  A    between atoms: C_17  and  C_19
REMARK    7  A    between atoms: C_17  and  C_22
REMARK    8  A    between atoms: C_19  and  C_21
REMARK    9  A    between atoms: C_24  and  C_29
REMARK   10  A    between atoms: C_24  and  C_30
REMARK   11  A    between atoms: C_27  and  C_34
REMARK                            x       y       z     vdW  Elec       q    Type
REMARK                         _______ _______ _______ _____ _____    ______ ____
ROOT
ATOM      1  O   UNL     1      15.061  10.274  19.548  0.00  0.00    -0.274 OA
ATOM      7  N   UNL     1      13.575   8.703  20.408  0.00  0.00    -0.302 N 
ATOM     15  C   UNL     1      14.706   9.500  20.433  0.00  0.00    +0.234 C 
ATOM     37  H   UNL     1      13.428   8.036  21.161  0.00  0.00    +0.150 HD
ENDROOT
BRANCH  15  12
ATOM      2  O   UNL     1      15.616   6.531  21.221  0.00  0.00    -0.271 OA
ATOM      5  N   UNL     1      16.688   8.575  21.432  0.00  0.00    -0.285 N 
ATOM     11  C   UNL     1      17.367  10.850  21.603  0.00  0.00    +0.094 C 
ATOM     12  C   UNL     1      15.482   9.345  21.706  0.00  0.00    +0.164 C 
ATOM     13  C   UNL     1      15.980  10.692  22.227  0.00  0.00    +0.056 C 
ATOM     14  C   UNL     1      17.884   9.417  21.512  0.00  0.00    +0.131 C 
ATOM     16  C   UNL     1      16.648   7.198  21.284  0.00  0.00    +0.240 C 
BRANCH  11   6
ATOM      3  O   UNL     1      19.529  12.133  20.188  0.00  0.00    -0.253 OA
ATOM      6  N   UNL     1      17.303  11.481  20.308  0.00  0.00    -0.295 N 
ATOM      8  N   UNL     1      18.063  12.611  18.454  0.00  0.00    -0.296 N 
ATOM     18  C   UNL     1      18.402  12.080  19.696  0.00  0.00    +0.300 C 
ATOM     36  H   UNL     1      16.402  11.547  19.846  0.00  0.00    +0.151 HD
ATOM     38  H   UNL     1      17.109  12.503  18.121  0.00  0.00    +0.151 HD
BRANCH   8  27
ATOM     27  C   UNL     1      19.015  13.289  17.606  0.00  0.00    +0.132 C 
BRANCH  27  34
ATOM     34  C   UNL     1      18.406  13.498  16.259  0.00  0.00    -0.016 C 
ATOM     35  C   UNL     1      18.162  12.510  15.390  0.00  0.00    +0.005 C 
ENDBRANCH  27  34
ENDBRANCH   8  27
ENDBRANCH  11   6
BRANCH  16  20
ATOM     20  C   UNL     1      17.947   6.503  21.196  0.00  0.00    +0.066 C 
ATOM     24  C   UNL     1      18.386   5.831  20.118  0.00  0.00    -0.071 C 
ATOM     29  C   UNL     1      17.525   5.754  18.884  0.00  0.00    +0.039 C 
ATOM     30  C   UNL     1      19.700   5.112  19.990  0.00  0.00    +0.039 C 
ENDBRANCH  16  20
ENDBRANCH  15  12
BRANCH   7  17
ATOM     17  C   UNL     1      12.644   8.684  19.302  0.00  0.00    +0.163 C 
BRANCH  17  22
ATOM      4  O   UNL     1      13.320   7.207  17.495  0.00  0.00    -0.274 OA
ATOM     10  N   UNL     1      12.369   6.283  19.370  0.00  0.00    -0.328 N 
ATOM     22  C   UNL     1      12.809   7.342  18.603  0.00  0.00    +0.231 C 
ATOM     40  H   UNL     1      11.970   6.408  20.295  0.00  0.00    +0.145 HD
ATOM     41  H   UNL     1      12.433   5.331  19.028  0.00  0.00    +0.145 HD
ENDBRANCH  17  22
BRANCH  17  19
ATOM     19  C   UNL     1      11.193   8.875  19.761  0.00  0.00    +0.069 C 
BRANCH  19  21
ATOM      9  N   UNL     1      10.753   8.903  23.410  0.00  0.00    -0.360 N 
ATOM     21  C   UNL     1      11.073   9.167  21.229  0.00  0.00    -0.020 A 
ATOM     23  C   UNL     1      11.253  10.429  21.861  0.00  0.00    +0.003 A 
ATOM     25  C   UNL     1      10.767   8.248  22.208  0.00  0.00    +0.087 A 
ATOM     26  C   UNL     1      11.047  10.236  23.228  0.00  0.00    +0.047 A 
ATOM     28  C   UNL     1      11.573  11.721  21.398  0.00  0.00    +0.010 A 
ATOM     31  C   UNL     1      11.144  11.275  24.161  0.00  0.00    +0.026 A 
ATOM     32  C   UNL     1      11.674  12.770  22.320  0.00  0.00    +0.001 A 
ATOM     33  C   UNL     1      11.462  12.548  23.679  0.00  0.00    +0.002 A 
ATOM     39  H   UNL     1      10.553   8.471  24.301  0.00  0.00    +0.165 HD
ENDBRANCH  19  21
ENDBRANCH  17  19
ENDBRANCH   7  17
TORSDOF 9
ENDMDL
MODEL 3
REMARK VINA RESULT:      -6.4      1.587      2.172
REMARK  Name = 11865736
REMARK  11 active torsions:
REMARK  status: ('A' for Active; 'I' for Inactive)
REMARK    1  A    between atoms: N_6  and  C_11
REMARK    2  A    between atoms: N_7  and  C_17
REMARK    3  A    between atoms: N_8  and  C_27
REMARK    4  A    between atoms: C_12  and  C_15
REMARK    5  A    between atoms: C_16  and  C_20
REMARK    6  A    between atoms: C_17  and  C_19
REMARK    7  A    between atoms: C_17  and  C_22
REMARK    8  A    between atoms: C_19  and  C_21
REMARK    9  A    between atoms: C_24  and  C_29
REMARK   10  A    between atoms: C_24  and  C_30
REMARK   11  A    between atoms: C_27  and  C_34
REMARK                            x       y       z     vdW  Elec       q    Type
REMARK                         _______ _______ _______ _____ _____    ______ ____
ROOT
ATOM      1  O   UNL     1      -6.967  -9.546  16.189  0.00  0.00    -0.274 OA
ATOM      7  N   UNL     1      -7.436 -11.418  17.489  0.00  0.00    -0.302 N 
ATOM     15  C   UNL     1      -7.726 -10.439  16.555  0.00  0.00    +0.234 C 
ATOM     37  H   UNL     1      -8.174 -12.055  17.778  0.00  0.00    +0.150 HD
ENDROOT
BRANCH  15  12
ATOM      2  O   UNL     1      -9.986  -8.485  17.713  0.00  0.00    -0.271 OA
ATOM      5  N   UNL     1      -9.586  -9.276  15.571  0.00  0.00    -0.285 N 
ATOM     11  C   UNL     1      -8.930 -10.412  13.585  0.00  0.00    +0.094 C 
ATOM     12  C   UNL     1      -9.105 -10.586  15.986  0.00  0.00    +0.164 C 
ATOM     13  C   UNL     1      -9.100 -11.430  14.713  0.00  0.00    +0.056 C 
ATOM     14  C   UNL     1      -9.648  -9.172  14.111  0.00  0.00    +0.131 C 
ATOM     16  C   UNL     1     -10.060  -8.355  16.491  0.00  0.00    +0.240 C 
BRANCH  11   6
ATOM      3  O   UNL     1      -7.835  -9.226  11.193  0.00  0.00    -0.253 OA
ATOM      6  N   UNL     1      -7.541 -10.149  13.304  0.00  0.00    -0.295 N 
ATOM      8  N   UNL     1      -5.712  -9.430  12.107  0.00  0.00    -0.296 N 
ATOM     18  C   UNL     1      -7.098  -9.571  12.117  0.00  0.00    +0.300 C 
ATOM     36  H   UNL     1      -6.845 -10.456  13.976  0.00  0.00    +0.151 HD
ATOM     38  H   UNL     1      -5.186  -9.728  12.924  0.00  0.00    +0.151 HD
BRANCH   8  27
ATOM     27  C   UNL     1      -4.991  -8.859  10.995  0.00  0.00    +0.132 C 
BRANCH  27  34
ATOM     34  C   UNL     1      -3.828  -9.736  10.665  0.00  0.00    -0.016 C 
ATOM     35  C   UNL     1      -2.599  -9.276  10.403  0.00  0.00    +0.005 C 
ENDBRANCH  27  34
ENDBRANCH   8  27
ENDBRANCH  11   6
BRANCH  16  20
ATOM     20  C   UNL     1     -10.693  -7.138  15.946  0.00  0.00    +0.066 C 
ATOM     24  C   UNL     1     -12.006  -7.004  15.691  0.00  0.00    -0.071 C 
ATOM     29  C   UNL     1     -12.941  -8.154  15.965  0.00  0.00    +0.039 C 
ATOM     30  C   UNL     1     -12.687  -5.783  15.138  0.00  0.00    +0.039 C 
ENDBRANCH  16  20
ENDBRANCH  15  12
BRANCH   7  17
ATOM     17  C   UNL     1      -6.164 -11.512  18.168  0.00  0.00    +0.163 C 
BRANCH  17  22
ATOM      4  O   UNL     1      -5.987 -11.119  20.560  0.00  0.00    -0.274 OA
ATOM     10  N   UNL     1      -7.360 -12.806  19.823  0.00  0.00    -0.328 N 
ATOM     22  C   UNL     1      -6.460 -11.777  19.637  0.00  0.00    +0.231 C 
ATOM     40  H   UNL     1      -7.761 -13.326  19.049  0.00  0.00    +0.145 HD
ATOM     41  H   UNL     1      -7.654 -13.077  20.754  0.00  0.00    +0.145 HD
ENDBRANCH  17  22
BRANCH  17  19
ATOM     19  C   UNL     1      -5.278 -12.622  17.591  0.00  0.00    +0.069 C 
BRANCH  19  21
ATOM      9  N   UNL     1      -4.634 -12.258  13.989  0.00  0.00    -0.360 N 
ATOM     21  C   UNL     1      -4.785 -12.322  16.203  0.00  0.00    -0.020 A 
ATOM     23  C   UNL     1      -3.628 -11.569  15.859  0.00  0.00    +0.003 A 
ATOM     25  C   UNL     1      -5.384 -12.731  15.033  0.00  0.00    +0.087 A 
ATOM     26  C   UNL     1      -3.556 -11.544  14.465  0.00  0.00    +0.047 A 
ATOM     28  C   UNL     1      -2.632 -10.906  16.602  0.00  0.00    +0.010 A 
ATOM     31  C   UNL     1      -2.533 -10.886  13.773  0.00  0.00    +0.026 A 
ATOM     32  C   UNL     1      -1.602 -10.243  15.924  0.00  0.00    +0.001 A 
ATOM     33  C   UNL     1      -1.555 -10.235  14.531  0.00  0.00    +0.002 A 
ATOM     39  H   UNL     1      -4.840 -12.411  13.013  0.00  0.00    +0.165 HD
ENDBRANCH  19  21
ENDBRANCH  17  19
ENDBRANCH   7  17
TORSDOF 9
ENDMDL
MODEL 4
REMARK VINA RESULT:      -6.3     26.748     29.331
REMARK  Name = 11865736
REMARK  11 active torsions:
REMARK  status: ('A' for Active; 'I' for Inactive)
REMARK    1  A    between atoms: N_6  and  C_11
REMARK    2  A    between atoms: N_7  and  C_17
REMARK    3  A    between atoms: N_8  and  C_27
REMARK    4  A    between atoms: C_12  and  C_15
REMARK    5  A    between atoms: C_16  and  C_20
REMARK    6  A    between atoms: C_17  and  C_19
REMARK    7  A    between atoms: C_17  and  C_22
REMARK    8  A    between atoms: C_19  and  C_21
REMARK    9  A    between atoms: C_24  and  C_29
REMARK   10  A    between atoms: C_24  and  C_30
REMARK   11  A    between atoms: C_27  and  C_34
REMARK                            x       y       z     vdW  Elec       q    Type
REMARK                         _______ _______ _______ _____ _____    ______ ____
ROOT
ATOM      1  O   UNL     1      15.221   8.536  19.848  0.00  0.00    -0.274 OA
ATOM      7  N   UNL     1      16.405   8.604  21.851  0.00  0.00    -0.302 N 
ATOM     15  C   UNL     1      15.277   8.421  21.069  0.00  0.00    +0.234 C 
ATOM     37  H   UNL     1      16.313   8.567  22.862  0.00  0.00    +0.150 HD
ENDROOT
BRANCH  15  12
ATOM      2  O   UNL     1      14.359  10.451  23.371  0.00  0.00    -0.271 OA
ATOM      5  N   UNL     1      13.139   9.137  21.902  0.00  0.00    -0.285 N 
ATOM     11  C   UNL     1      12.278   7.551  20.349  0.00  0.00    +0.094 C 
ATOM     12  C   UNL     1      14.081   8.027  21.882  0.00  0.00    +0.164 C 
ATOM     13  C   UNL     1      13.320   6.870  21.237  0.00  0.00    +0.056 C 
ATOM     14  C   UNL     1      11.946   8.834  21.108  0.00  0.00    +0.131 C 
ATOM     16  C   UNL     1      13.336  10.238  22.720  0.00  0.00    +0.240 C 
BRANCH  11   6
ATOM      3  O   UNL     1      10.817   8.621  18.102  0.00  0.00    -0.253 OA
ATOM      6  N   UNL     1      12.792   7.825  19.031  0.00  0.00    -0.295 N 
ATOM      8  N   UNL     1      12.757   8.511  16.835  0.00  0.00    -0.296 N 
ATOM     18  C   UNL     1      12.012   8.344  18.000  0.00  0.00    +0.300 C 
ATOM     36  H   UNL     1      13.753   7.572  18.824  0.00  0.00    +0.151 HD
ATOM     38  H   UNL     1      13.745   8.271  16.849  0.00  0.00    +0.151 HD
BRANCH   8  27
ATOM     27  C   UNL     1      12.194   9.032  15.613  0.00  0.00    +0.132 C 
BRANCH  27  34
ATOM     34  C   UNL     1      12.907  10.291  15.244  0.00  0.00    -0.016 C 
ATOM     35  C   UNL     1      14.029  10.713  15.838  0.00  0.00    +0.005 C 
ENDBRANCH  27  34
ENDBRANCH   8  27
ENDBRANCH  11   6
BRANCH  16  20
ATOM     20  C   UNL     1      12.231  11.212  22.799  0.00  0.00    +0.066 C 
ATOM     24  C   UNL     1      12.070  12.261  21.974  0.00  0.00    -0.071 C 
ATOM     29  C   UNL     1      13.067  12.501  20.869  0.00  0.00    +0.039 C 
ATOM     30  C   UNL     1      10.959  13.272  22.023  0.00  0.00    +0.039 C 
ENDBRANCH  16  20
ENDBRANCH  15  12
BRANCH   7  17
ATOM     17  C   UNL     1      17.694   8.966  21.306  0.00  0.00    +0.163 C 
BRANCH  17  22
ATOM      4  O   UNL     1      18.392  11.208  20.681  0.00  0.00    -0.274 OA
ATOM     10  N   UNL     1      17.291  10.916  22.676  0.00  0.00    -0.328 N 
ATOM     22  C   UNL     1      17.857  10.466  21.501  0.00  0.00    +0.231 C 
ATOM     40  H   UNL     1      16.831  10.294  23.333  0.00  0.00    +0.145 HD
ATOM     41  H   UNL     1      17.317  11.900  22.922  0.00  0.00    +0.145 HD
ENDBRANCH  17  22
BRANCH  17  19
ATOM     19  C   UNL     1      18.844   8.210  21.984  0.00  0.00    +0.069 C 
BRANCH  19  21
ATOM      9  N   UNL     1      19.224   5.272  19.807  0.00  0.00    -0.360 N 
ATOM     21  C   UNL     1      19.214   6.940  21.272  0.00  0.00    -0.020 A 
ATOM     23  C   UNL     1      20.255   6.039  21.632  0.00  0.00    +0.003 A 
ATOM     25  C   UNL     1      18.599   6.442  20.146  0.00  0.00    +0.087 A 
ATOM     26  C   UNL     1      20.240   5.001  20.698  0.00  0.00    +0.047 A 
ATOM     28  C   UNL     1      21.211   6.007  22.667  0.00  0.00    +0.010 A 
ATOM     31  C   UNL     1      21.137   3.928  20.746  0.00  0.00    +0.026 A 
ATOM     32  C   UNL     1      22.115   4.939  22.727  0.00  0.00    +0.001 A 
ATOM     33  C   UNL     1      22.077   3.917  21.781  0.00  0.00    +0.002 A 
ATOM     39  H   UNL     1      18.975   4.690  19.021  0.00  0.00    +0.165 HD
ENDBRANCH  19  21
ENDBRANCH  17  19
ENDBRANCH   7  17
TORSDOF 9
ENDMDL
MODEL 5
REMARK VINA RESULT:      -6.1      2.064      2.698
REMARK  Name = 11865736
REMARK  11 active torsions:
REMARK  status: ('A' for Active; 'I' for Inactive)
REMARK    1  A    between atoms: N_6  and  C_11
REMARK    2  A    between atoms: N_7  and  C_17
REMARK    3  A    between atoms: N_8  and  C_27
REMARK    4  A    between atoms: C_12  and  C_15
REMARK    5  A    between atoms: C_16  and  C_20
REMARK    6  A    between atoms: C_17  and  C_19
REMARK    7  A    between atoms: C_17  and  C_22
REMARK    8  A    between atoms: C_19  and  C_21
REMARK    9  A    between atoms: C_24  and  C_29
REMARK   10  A    between atoms: C_24  and  C_30
REMARK   11  A    between atoms: C_27  and  C_34
REMARK                            x       y       z     vdW  Elec       q    Type
REMARK                         _______ _______ _______ _____ _____    ______ ____
ROOT
ATOM      1  O   UNL     1      -7.437 -10.112  17.184  0.00  0.00    -0.274 OA
ATOM      7  N   UNL     1      -6.443 -12.125  17.799  0.00  0.00    -0.302 N 
ATOM     15  C   UNL     1      -7.511 -11.297  17.496  0.00  0.00    +0.234 C 
ATOM     37  H   UNL     1      -6.631 -13.067  18.129  0.00  0.00    +0.150 HD
ENDROOT
BRANCH  15  12
ATOM      2  O   UNL     1      -9.215 -10.963  20.189  0.00  0.00    -0.271 OA
ATOM      5  N   UNL     1      -9.859 -11.076  17.965  0.00  0.00    -0.285 N 
ATOM     11  C   UNL     1     -10.106 -11.381  15.617  0.00  0.00    +0.094 C 
ATOM     12  C   UNL     1      -8.824 -12.018  17.560  0.00  0.00    +0.164 C 
ATOM     13  C   UNL     1      -9.258 -12.519  16.185  0.00  0.00    +0.056 C 
ATOM     14  C   UNL     1     -10.765 -10.775  16.853  0.00  0.00    +0.131 C 
ATOM     16  C   UNL     1     -10.004 -10.685  19.286  0.00  0.00    +0.240 C 
BRANCH  11   6
ATOM      3  O   UNL     1      -9.049 -11.627  12.943  0.00  0.00    -0.253 OA
ATOM      6  N   UNL     1      -9.304 -10.415  14.908  0.00  0.00    -0.295 N 
ATOM      8  N   UNL     1      -8.085  -9.528  13.170  0.00  0.00    -0.296 N 
ATOM     18  C   UNL     1      -8.833 -10.617  13.613  0.00  0.00    +0.300 C 
ATOM     36  H   UNL     1      -9.016  -9.574  15.397  0.00  0.00    +0.151 HD
ATOM     38  H   UNL     1      -7.975  -8.729  13.787  0.00  0.00    +0.151 HD
BRANCH   8  27
ATOM     27  C   UNL     1      -7.479  -9.476  11.861  0.00  0.00    +0.132 C 
BRANCH  27  34
ATOM     34  C   UNL     1      -6.113  -8.883  11.979  0.00  0.00    -0.016 C 
ATOM     35  C   UNL     1      -5.306  -8.657  10.937  0.00  0.00    +0.005 C 
ENDBRANCH  27  34
ENDBRANCH   8  27
ENDBRANCH  11   6
BRANCH  16  20
ATOM     20  C   UNL     1     -11.196  -9.877  19.611  0.00  0.00    +0.066 C 
ATOM     24  C   UNL     1     -12.307 -10.351  20.199  0.00  0.00    -0.071 C 
ATOM     29  C   UNL     1     -12.391 -11.809  20.572  0.00  0.00    +0.039 C 
ATOM     30  C   UNL     1     -13.538  -9.561  20.547  0.00  0.00    +0.039 C 
ENDBRANCH  16  20
ENDBRANCH  15  12
BRANCH   7  17
ATOM     17  C   UNL     1      -5.068 -11.678  17.787  0.00  0.00    +0.163 C 
BRANCH  17  22
ATOM      4  O   UNL     1      -5.173 -11.568  20.212  0.00  0.00    -0.274 OA
ATOM     10  N   UNL     1      -3.263 -12.383  19.231  0.00  0.00    -0.328 N 
ATOM     22  C   UNL     1      -4.532 -11.842  19.201  0.00  0.00    +0.231 C 
ATOM     40  H   UNL     1      -2.754 -12.628  18.387  0.00  0.00    +0.145 HD
ATOM     41  H   UNL     1      -2.793 -12.558  20.112  0.00  0.00    +0.145 HD
ENDBRANCH  17  22
BRANCH  17  19
ATOM     19  C   UNL     1      -4.210 -12.470  16.792  0.00  0.00    +0.069 C 
BRANCH  19  21
ATOM      9  N   UNL     1      -2.096  -9.992  15.087  0.00  0.00    -0.360 N 
ATOM     21  C   UNL     1      -3.431 -11.591  15.855  0.00  0.00    -0.020 A 
ATOM     23  C   UNL     1      -3.387 -11.693  14.437  0.00  0.00    +0.003 A 
ATOM     25  C   UNL     1      -2.627 -10.537  16.226  0.00  0.00    +0.087 A 
ATOM     26  C   UNL     1      -2.543 -10.679  13.980  0.00  0.00    +0.047 A 
ATOM     28  C   UNL     1      -3.987 -12.552  13.496  0.00  0.00    +0.010 A 
ATOM     31  C   UNL     1      -2.267 -10.480  12.622  0.00  0.00    +0.026 A 
ATOM     32  C   UNL     1      -3.720 -12.366  12.134  0.00  0.00    +0.001 A 
ATOM     33  C   UNL     1      -2.873 -11.345  11.706  0.00  0.00    +0.002 A 
ATOM     39  H   UNL     1      -1.470  -9.201  15.063  0.00  0.00    +0.165 HD
ENDBRANCH  19  21
ENDBRANCH  17  19
ENDBRANCH   7  17
TORSDOF 9
ENDMDL
MODEL 6
REMARK VINA RESULT:      -6.0     24.180     27.583
REMARK  Name = 11865736
REMARK  11 active torsions:
REMARK  status: ('A' for Active; 'I' for Inactive)
REMARK    1  A    between atoms: N_6  and  C_11
REMARK    2  A    between atoms: N_7  and  C_17
REMARK    3  A    between atoms: N_8  and  C_27
REMARK    4  A    between atoms: C_12  and  C_15
REMARK    5  A    between atoms: C_16  and  C_20
REMARK    6  A    between atoms: C_17  and  C_19
REMARK    7  A    between atoms: C_17  and  C_22
REMARK    8  A    between atoms: C_19  and  C_21
REMARK    9  A    between atoms: C_24  and  C_29
REMARK   10  A    between atoms: C_24  and  C_30
REMARK   11  A    between atoms: C_27  and  C_34
REMARK                            x       y       z     vdW  Elec       q    Type
REMARK                         _______ _______ _______ _____ _____    ______ ____
ROOT
ATOM      1  O   UNL     1      12.165   6.099   3.842  0.00  0.00    -0.274 OA
ATOM      7  N   UNL     1      11.121   6.760   5.814  0.00  0.00    -0.302 N 
ATOM     15  C   UNL     1      11.938   6.936   4.711  0.00  0.00    +0.234 C 
ATOM     37  H   UNL     1      11.075   7.495   6.514  0.00  0.00    +0.150 HD
ENDROOT
BRANCH  15  12
ATOM      2  O   UNL     1      14.113   7.669   6.946  0.00  0.00    -0.271 OA
ATOM      5  N   UNL     1      13.980   8.206   4.695  0.00  0.00    -0.285 N 
ATOM     11  C   UNL     1      13.399   8.649   2.430  0.00  0.00    +0.094 C 
ATOM     12  C   UNL     1      12.528   8.313   4.656  0.00  0.00    +0.164 C 
ATOM     13  C   UNL     1      12.216   9.005   3.331  0.00  0.00    +0.056 C 
ATOM     14  C   UNL     1      14.572   8.554   3.401  0.00  0.00    +0.131 C 
ATOM     16  C   UNL     1      14.654   7.959   5.880  0.00  0.00    +0.240 C 
BRANCH  11   6
ATOM      3  O   UNL     1      11.927   8.278  -0.024  0.00  0.00    -0.253 OA
ATOM      6  N   UNL     1      13.183   7.410   1.726  0.00  0.00    -0.295 N 
ATOM      8  N   UNL     1      12.402   6.009   0.075  0.00  0.00    -0.296 N 
ATOM     18  C   UNL     1      12.456   7.321   0.541  0.00  0.00    +0.300 C 
ATOM     36  H   UNL     1      13.525   6.550   2.143  0.00  0.00    +0.151 HD
ATOM     38  H   UNL     1      12.885   5.286   0.600  0.00  0.00    +0.151 HD
BRANCH   8  27
ATOM     27  C   UNL     1      11.711   5.635  -1.135  0.00  0.00    +0.132 C 
BRANCH  27  34
ATOM     34  C   UNL     1      10.512   4.820  -0.779  0.00  0.00    -0.016 C 
ATOM     35  C   UNL     1      10.035   4.697   0.465  0.00  0.00    +0.005 C 
ENDBRANCH  27  34
ENDBRANCH   8  27
ENDBRANCH  11   6
BRANCH  16  20
ATOM     20  C   UNL     1      16.127   8.056   5.837  0.00  0.00    +0.066 C 
ATOM     24  C   UNL     1      16.829   9.183   6.046  0.00  0.00    -0.071 C 
ATOM     29  C   UNL     1      16.104  10.469   6.348  0.00  0.00    +0.039 C 
ATOM     30  C   UNL     1      18.326   9.320   6.012  0.00  0.00    +0.039 C 
ENDBRANCH  16  20
ENDBRANCH  15  12
BRANCH   7  17
ATOM     17  C   UNL     1      10.414   5.528   6.086  0.00  0.00    +0.163 C 
BRANCH  17  22
ATOM      4  O   UNL     1      10.128   6.344   8.357  0.00  0.00    -0.274 OA
ATOM     10  N   UNL     1      10.399   4.087   8.026  0.00  0.00    -0.328 N 
ATOM     22  C   UNL     1      10.313   5.396   7.598  0.00  0.00    +0.231 C 
ATOM     40  H   UNL     1      10.528   3.311   7.385  0.00  0.00    +0.145 HD
ATOM     41  H   UNL     1      10.332   3.857   9.012  0.00  0.00    +0.145 HD
ENDBRANCH  17  22
BRANCH  17  19
ATOM     19  C   UNL     1       9.018   5.507   5.451  0.00  0.00    +0.069 C 
BRANCH  19  21
ATOM      9  N   UNL     1       7.459   8.835   5.556  0.00  0.00    -0.360 N 
ATOM     21  C   UNL     1       8.457   6.881   5.217  0.00  0.00    -0.020 A 
ATOM     23  C   UNL     1       8.484   7.612   3.996  0.00  0.00    +0.003 A 
ATOM     25  C   UNL     1       7.821   7.659   6.158  0.00  0.00    +0.087 A 
ATOM     26  C   UNL     1       7.852   8.834   4.236  0.00  0.00    +0.047 A 
ATOM     28  C   UNL     1       8.987   7.350   2.707  0.00  0.00    +0.010 A 
ATOM     31  C   UNL     1       7.697   9.811   3.247  0.00  0.00    +0.026 A 
ATOM     32  C   UNL     1       8.839   8.318   1.707  0.00  0.00    +0.001 A 
ATOM     33  C   UNL     1       8.203   9.529   1.975  0.00  0.00    +0.002 A 
ATOM     39  H   UNL     1       6.972   9.592   6.014  0.00  0.00    +0.165 HD
ENDBRANCH  19  21
ENDBRANCH  17  19
ENDBRANCH   7  17
TORSDOF 9
ENDMDL
MODEL 7
REMARK VINA RESULT:      -5.9     28.267     31.893
REMARK  Name = 11865736
REMARK  11 active torsions:
REMARK  status: ('A' for Active; 'I' for Inactive)
REMARK    1  A    between atoms: N_6  and  C_11
REMARK    2  A    between atoms: N_7  and  C_17
REMARK    3  A    between atoms: N_8  and  C_27
REMARK    4  A    between atoms: C_12  and  C_15
REMARK    5  A    between atoms: C_16  and  C_20
REMARK    6  A    between atoms: C_17  and  C_19
REMARK    7  A    between atoms: C_17  and  C_22
REMARK    8  A    between atoms: C_19  and  C_21
REMARK    9  A    between atoms: C_24  and  C_29
REMARK   10  A    between atoms: C_24  and  C_30
REMARK   11  A    between atoms: C_27  and  C_34
REMARK                            x       y       z     vdW  Elec       q    Type
REMARK                         _______ _______ _______ _____ _____    ______ ____
ROOT
ATOM      1  O   UNL     1      19.322   8.259  21.223  0.00  0.00    -0.274 OA
ATOM      7  N   UNL     1      18.176   6.236  21.118  0.00  0.00    -0.302 N 
ATOM     15  C   UNL     1      19.190   7.080  21.538  0.00  0.00    +0.234 C 
ATOM     37  H   UNL     1      18.217   5.254  21.374  0.00  0.00    +0.150 HD
ENDROOT
BRANCH  15  12
ATOM      2  O   UNL     1      20.663   4.453  20.443  0.00  0.00    -0.271 OA
ATOM      5  N   UNL     1      21.410   6.191  21.784  0.00  0.00    -0.285 N 
ATOM     11  C   UNL     1      21.731   8.053  23.232  0.00  0.00    +0.094 C 
ATOM     12  C   UNL     1      20.144   6.399  22.473  0.00  0.00    +0.164 C 
ATOM     13  C   UNL     1      20.484   7.284  23.670  0.00  0.00    +0.056 C 
ATOM     14  C   UNL     1      22.455   7.067  22.318  0.00  0.00    +0.131 C 
ATOM     16  C   UNL     1      21.574   5.167  20.865  0.00  0.00    +0.240 C 
BRANCH  11   6
ATOM      3  O   UNL     1      21.264  10.641  24.417  0.00  0.00    -0.253 OA
ATOM      6  N   UNL     1      21.394   9.274  22.544  0.00  0.00    -0.295 N 
ATOM      8  N   UNL     1      20.874  11.502  22.298  0.00  0.00    -0.296 N 
ATOM     18  C   UNL     1      21.185  10.486  23.199  0.00  0.00    +0.300 C 
ATOM     36  H   UNL     1      21.242   9.238  21.542  0.00  0.00    +0.151 HD
ATOM     38  H   UNL     1      20.849  11.283  21.306  0.00  0.00    +0.151 HD
BRANCH   8  27
ATOM     27  C   UNL     1      20.609  12.859  22.710  0.00  0.00    +0.132 C 
BRANCH  27  34
ATOM     34  C   UNL     1      19.147  13.133  22.576  0.00  0.00    -0.016 C 
ATOM     35  C   UNL     1      18.418  13.762  23.505  0.00  0.00    +0.005 C 
ENDBRANCH  27  34
ENDBRANCH   8  27
ENDBRANCH  11   6
BRANCH  16  20
ATOM     20  C   UNL     1      22.944   4.932  20.370  0.00  0.00    +0.066 C 
ATOM     24  C   UNL     1      23.737   3.917  20.755  0.00  0.00    -0.071 C 
ATOM     29  C   UNL     1      23.235   2.920  21.767  0.00  0.00    +0.039 C 
ATOM     30  C   UNL     1      25.135   3.645  20.273  0.00  0.00    +0.039 C 
ENDBRANCH  16  20
ENDBRANCH  15  12
BRANCH   7  17
ATOM     17  C   UNL     1      17.115   6.656  20.231  0.00  0.00    +0.163 C 
BRANCH  17  22
ATOM      4  O   UNL     1      16.350   5.755  18.108  0.00  0.00    -0.274 OA
ATOM     10  N   UNL     1      18.411   5.116  18.893  0.00  0.00    -0.328 N 
ATOM     22  C   UNL     1      17.216   5.800  18.977  0.00  0.00    +0.231 C 
ATOM     40  H   UNL     1      19.129   5.182  19.608  0.00  0.00    +0.145 HD
ATOM     41  H   UNL     1      18.614   4.519  18.099  0.00  0.00    +0.145 HD
ENDBRANCH  17  22
BRANCH  17  19
ATOM     19  C   UNL     1      15.729   6.507  20.871  0.00  0.00    +0.069 C 
BRANCH  19  21
ATOM      9  N   UNL     1      14.035   9.595  19.817  0.00  0.00    -0.360 N 
ATOM     21  C   UNL     1      14.799   7.637  20.534  0.00  0.00    -0.020 A 
ATOM     23  C   UNL     1      13.391   7.668  20.741  0.00  0.00    +0.003 A 
ATOM     25  C   UNL     1      15.165   8.835  19.964  0.00  0.00    +0.087 A 
ATOM     26  C   UNL     1      12.937   8.906  20.283  0.00  0.00    +0.047 A 
ATOM     28  C   UNL     1      12.459   6.758  21.276  0.00  0.00    +0.010 A 
ATOM     31  C   UNL     1      11.590   9.282  20.334  0.00  0.00    +0.026 A 
ATOM     32  C   UNL     1      11.107   7.121  21.333  0.00  0.00    +0.001 A 
ATOM     33  C   UNL     1      10.682   8.364  20.869  0.00  0.00    +0.002 A 
ATOM     39  H   UNL     1      14.011  10.526  19.426  0.00  0.00    +0.165 HD
ENDBRANCH  19  21
ENDBRANCH  17  19
ENDBRANCH   7  17
TORSDOF 9
ENDMDL
MODEL 8
REMARK VINA RESULT:      -5.9     19.167     21.105
REMARK  Name = 11865736
REMARK  11 active torsions:
REMARK  status: ('A' for Active; 'I' for Inactive)
REMARK    1  A    between atoms: N_6  and  C_11
REMARK    2  A    between atoms: N_7  and  C_17
REMARK    3  A    between atoms: N_8  and  C_27
REMARK    4  A    between atoms: C_12  and  C_15
REMARK    5  A    between atoms: C_16  and  C_20
REMARK    6  A    between atoms: C_17  and  C_19
REMARK    7  A    between atoms: C_17  and  C_22
REMARK    8  A    between atoms: C_19  and  C_21
REMARK    9  A    between atoms: C_24  and  C_29
REMARK   10  A    between atoms: C_24  and  C_30
REMARK   11  A    between atoms: C_27  and  C_34
REMARK                            x       y       z     vdW  Elec       q    Type
REMARK                         _______ _______ _______ _____ _____    ______ ____
ROOT
ATOM      1  O   UNL     1     -15.593   4.802  21.672  0.00  0.00    -0.274 OA
ATOM      7  N   UNL     1     -17.363   5.694  20.452  0.00  0.00    -0.302 N 
ATOM     15  C   UNL     1     -16.774   5.120  21.566  0.00  0.00    +0.234 C 
ATOM     37  H   UNL     1     -18.369   5.836  20.446  0.00  0.00    +0.150 HD
ENDROOT
BRANCH  15  12
ATOM      2  O   UNL     1     -17.042   2.168  22.782  0.00  0.00    -0.271 OA
ATOM      5  N   UNL     1     -17.076   4.255  23.789  0.00  0.00    -0.285 N 
ATOM     11  C   UNL     1     -17.204   6.553  24.400  0.00  0.00    +0.094 C 
ATOM     12  C   UNL     1     -17.748   4.937  22.691  0.00  0.00    +0.164 C 
ATOM     13  C   UNL     1     -18.196   6.277  23.269  0.00  0.00    +0.056 C 
ATOM     14  C   UNL     1     -16.861   5.159  24.922  0.00  0.00    +0.131 C 
ATOM     16  C   UNL     1     -16.846   2.890  23.760  0.00  0.00    +0.240 C 
BRANCH  11   6
ATOM      3  O   UNL     1     -16.874   9.408  24.145  0.00  0.00    -0.253 OA
ATOM      6  N   UNL     1     -16.035   7.253  23.930  0.00  0.00    -0.295 N 
ATOM      8  N   UNL     1     -14.721   9.052  23.355  0.00  0.00    -0.296 N 
ATOM     18  C   UNL     1     -15.962   8.641  23.839  0.00  0.00    +0.300 C 
ATOM     36  H   UNL     1     -15.248   6.708  23.592  0.00  0.00    +0.151 HD
ATOM     38  H   UNL     1     -14.021   8.346  23.145  0.00  0.00    +0.151 HD
BRANCH   8  27
ATOM     27  C   UNL     1     -14.378  10.440  23.161  0.00  0.00    +0.132 C 
BRANCH  27  34
ATOM     34  C   UNL     1     -13.706  10.597  21.837  0.00  0.00    -0.016 C 
ATOM     35  C   UNL     1     -12.401  10.849  21.689  0.00  0.00    +0.005 C 
ENDBRANCH  27  34
ENDBRANCH   8  27
ENDBRANCH  11   6
BRANCH  16  20
ATOM     20  C   UNL     1     -16.329   2.277  24.999  0.00  0.00    +0.066 C 
ATOM     24  C   UNL     1     -17.089   1.692  25.941  0.00  0.00    -0.071 C 
ATOM     29  C   UNL     1     -18.584   1.634  25.765  0.00  0.00    +0.039 C 
ATOM     30  C   UNL     1     -16.600   1.058  27.214  0.00  0.00    +0.039 C 
ENDBRANCH  16  20
ENDBRANCH  15  12
BRANCH   7  17
ATOM     17  C   UNL     1     -16.634   5.996  19.240  0.00  0.00    +0.163 C 
BRANCH  17  22
ATOM      4  O   UNL     1     -17.764   6.125  17.093  0.00  0.00    -0.274 OA
ATOM     10  N   UNL     1     -17.780   4.126  18.224  0.00  0.00    -0.328 N 
ATOM     22  C   UNL     1     -17.457   5.460  18.078  0.00  0.00    +0.231 C 
ATOM     40  H   UNL     1     -17.499   3.582  19.034  0.00  0.00    +0.145 HD
ATOM     41  H   UNL     1     -18.316   3.640  17.514  0.00  0.00    +0.145 HD
ENDBRANCH  17  22
BRANCH  17  19
ATOM     19  C   UNL     1     -16.386   7.501  19.072  0.00  0.00    +0.069 C 
BRANCH  19  21
ATOM      9  N   UNL     1     -13.335   8.467  17.263  0.00  0.00    -0.360 N 
ATOM     21  C   UNL     1     -15.005   7.818  18.575  0.00  0.00    -0.020 A 
ATOM     23  C   UNL     1     -13.788   7.666  19.296  0.00  0.00    +0.003 A 
ATOM     25  C   UNL     1     -14.694   8.313  17.328  0.00  0.00    +0.087 A 
ATOM     26  C   UNL     1     -12.756   8.080  18.452  0.00  0.00    +0.047 A 
ATOM     28  C   UNL     1     -13.465   7.214  20.591  0.00  0.00    +0.010 A 
ATOM     31  C   UNL     1     -11.411   8.064  18.838  0.00  0.00    +0.026 A 
ATOM     32  C   UNL     1     -12.124   7.193  20.992  0.00  0.00    +0.001 A 
ATOM     33  C   UNL     1     -11.114   7.612  20.127  0.00  0.00    +0.002 A 
ATOM     39  H   UNL     1     -12.830   8.812  16.459  0.00  0.00    +0.165 HD
ENDBRANCH  19  21
ENDBRANCH  17  19
ENDBRANCH   7  17
TORSDOF 9
ENDMDL
MODEL 9
REMARK VINA RESULT:      -5.9     26.558     30.010
REMARK  Name = 11865736
REMARK  11 active torsions:
REMARK  status: ('A' for Active; 'I' for Inactive)
REMARK    1  A    between atoms: N_6  and  C_11
REMARK    2  A    between atoms: N_7  and  C_17
REMARK    3  A    between atoms: N_8  and  C_27
REMARK    4  A    between atoms: C_12  and  C_15
REMARK    5  A    between atoms: C_16  and  C_20
REMARK    6  A    between atoms: C_17  and  C_19
REMARK    7  A    between atoms: C_17  and  C_22
REMARK    8  A    between atoms: C_19  and  C_21
REMARK    9  A    between atoms: C_24  and  C_29
REMARK   10  A    between atoms: C_24  and  C_30
REMARK   11  A    between atoms: C_27  and  C_34
REMARK                            x       y       z     vdW  Elec       q    Type
REMARK                         _______ _______ _______ _____ _____    ______ ____
ROOT
ATOM      1  O   UNL     1      16.215   8.218   6.418  0.00  0.00    -0.274 OA
ATOM      7  N   UNL     1      15.051  10.186   5.984  0.00  0.00    -0.302 N 
ATOM     15  C   UNL     1      16.103   9.297   5.842  0.00  0.00    +0.234 C 
ATOM     37  H   UNL     1      15.107  11.090   5.522  0.00  0.00    +0.150 HD
ENDROOT
BRANCH  15  12
ATOM      2  O   UNL     1      19.104   9.608   6.918  0.00  0.00    -0.271 OA
ATOM      5  N   UNL     1      18.267   8.874   4.885  0.00  0.00    -0.285 N 
ATOM     11  C   UNL     1      17.025   8.339   2.926  0.00  0.00    +0.094 C 
ATOM     12  C   UNL     1      17.127   9.780   4.860  0.00  0.00    +0.164 C 
ATOM     13  C   UNL     1      16.603   9.721   3.427  0.00  0.00    +0.056 C 
ATOM     14  C   UNL     1      18.341   8.081   3.655  0.00  0.00    +0.131 C 
ATOM     16  C   UNL     1      19.209   8.925   5.899  0.00  0.00    +0.240 C 
BRANCH  11   6
ATOM      3  O   UNL     1      14.461   7.982   1.652  0.00  0.00    -0.253 OA
ATOM      6  N   UNL     1      16.037   7.333   3.230  0.00  0.00    -0.295 N 
ATOM      8  N   UNL     1      14.057   6.176   3.052  0.00  0.00    -0.296 N 
ATOM     18  C   UNL     1      14.819   7.233   2.561  0.00  0.00    +0.300 C 
ATOM     36  H   UNL     1      16.210   6.706   4.008  0.00  0.00    +0.151 HD
ATOM     38  H   UNL     1      14.443   5.600   3.794  0.00  0.00    +0.151 HD
BRANCH   8  27
ATOM     27  C   UNL     1      12.749   5.848   2.537  0.00  0.00    +0.132 C 
BRANCH  27  34
ATOM     34  C   UNL     1      11.718   6.210   3.554  0.00  0.00    -0.016 C 
ATOM     35  C   UNL     1      10.906   5.323   4.140  0.00  0.00    +0.005 C 
ENDBRANCH  27  34
ENDBRANCH   8  27
ENDBRANCH  11   6
BRANCH  16  20
ATOM     20  C   UNL     1      20.416   8.093   5.727  0.00  0.00    +0.066 C 
ATOM     24  C   UNL     1      21.565   8.512   5.169  0.00  0.00    -0.071 C 
ATOM     29  C   UNL     1      21.678   9.929   4.668  0.00  0.00    +0.039 C 
ATOM     30  C   UNL     1      22.813   7.696   4.978  0.00  0.00    +0.039 C 
ENDBRANCH  16  20
ENDBRANCH  15  12
BRANCH   7  17
ATOM     17  C   UNL     1      13.922   9.945   6.854  0.00  0.00    +0.163 C 
BRANCH  17  22
ATOM      4  O   UNL     1      13.717  12.365   6.807  0.00  0.00    -0.274 OA
ATOM     10  N   UNL     1      12.633  11.203   8.465  0.00  0.00    -0.328 N 
ATOM     22  C   UNL     1      13.447  11.300   7.355  0.00  0.00    +0.231 C 
ATOM     40  H   UNL     1      12.399  10.313   8.894  0.00  0.00    +0.145 HD
ATOM     41  H   UNL     1      12.237  12.032   8.893  0.00  0.00    +0.145 HD
ENDBRANCH  17  22
BRANCH  17  19
ATOM     19  C   UNL     1      12.784   9.208   6.136  0.00  0.00    +0.069 C 
BRANCH  19  21
ATOM      9  N   UNL     1      12.611   5.830   7.576  0.00  0.00    -0.360 N 
ATOM     21  C   UNL     1      12.438   7.894   6.775  0.00  0.00    -0.020 A 
ATOM     23  C   UNL     1      11.169   7.509   7.291  0.00  0.00    +0.003 A 
ATOM     25  C   UNL     1      13.304   6.841   6.965  0.00  0.00    +0.087 A 
ATOM     26  C   UNL     1      11.304   6.211   7.787  0.00  0.00    +0.047 A 
ATOM     28  C   UNL     1       9.914   8.143   7.382  0.00  0.00    +0.010 A 
ATOM     31  C   UNL     1      10.243   5.512   8.373  0.00  0.00    +0.026 A 
ATOM     32  C   UNL     1       8.843   7.456   7.966  0.00  0.00    +0.001 A 
ATOM     33  C   UNL     1       9.007   6.161   8.453  0.00  0.00    +0.002 A 
ATOM     39  H   UNL     1      13.000   4.934   7.832  0.00  0.00    +0.165 HD
ENDBRANCH  19  21
ENDBRANCH  17  19
ENDBRANCH   7  17
TORSDOF 9
ENDMDL
MODEL 10
REMARK VINA RESULT:      -5.9     24.165     27.616
REMARK  Name = 11865736
REMARK  11 active torsions:
REMARK  status: ('A' for Active; 'I' for Inactive)
REMARK    1  A    between atoms: N_6  and  C_11
REMARK    2  A    between atoms: N_7  and  C_17
REMARK    3  A    between atoms: N_8  and  C_27
REMARK    4  A    between atoms: C_12  and  C_15
REMARK    5  A    between atoms: C_16  and  C_20
REMARK    6  A    between atoms: C_17  and  C_19
REMARK    7  A    between atoms: C_17  and  C_22
REMARK    8  A    between atoms: C_19  and  C_21
REMARK    9  A    between atoms: C_24  and  C_29
REMARK   10  A    between atoms: C_24  and  C_30
REMARK   11  A    between atoms: C_27  and  C_34
REMARK                            x       y       z     vdW  Elec       q    Type
REMARK                         _______ _______ _______ _____ _____    ______ ____
ROOT
ATOM      1  O   UNL     1      11.106   6.355   4.072  0.00  0.00    -0.274 OA
ATOM      7  N   UNL     1      12.509   5.438   2.457  0.00  0.00    -0.302 N 
ATOM     15  C   UNL     1      12.145   6.366   3.418  0.00  0.00    +0.234 C 
ATOM     37  H   UNL     1      13.355   5.596   1.917  0.00  0.00    +0.150 HD
ENDROOT
BRANCH  15  12
ATOM      2  O   UNL     1      11.484   9.292   2.292  0.00  0.00    -0.271 OA
ATOM      5  N   UNL     1      12.574   8.593   4.215  0.00  0.00    -0.285 N 
ATOM     11  C   UNL     1      13.741   7.478   5.965  0.00  0.00    +0.094 C 
ATOM     12  C   UNL     1      13.193   7.419   3.615  0.00  0.00    +0.164 C 
ATOM     13  C   UNL     1      14.256   6.974   4.616  0.00  0.00    +0.056 C 
ATOM     14  C   UNL     1      12.999   8.764   5.606  0.00  0.00    +0.131 C 
ATOM     16  C   UNL     1      11.820   9.478   3.462  0.00  0.00    +0.240 C 
BRANCH  11   6
ATOM      3  O   UNL     1      11.217   8.008   7.260  0.00  0.00    -0.253 OA
ATOM      6  N   UNL     1      12.873   6.519   6.601  0.00  0.00    -0.295 N 
ATOM      8  N   UNL     1      11.030   5.746   7.741  0.00  0.00    -0.296 N 
ATOM     18  C   UNL     1      11.666   6.864   7.205  0.00  0.00    +0.300 C 
ATOM     36  H   UNL     1      13.184   5.555   6.666  0.00  0.00    +0.151 HD
ATOM     38  H   UNL     1      11.469   4.836   7.632  0.00  0.00    +0.151 HD
BRANCH   8  27
ATOM     27  C   UNL     1       9.761   5.820   8.425  0.00  0.00    +0.132 C 
BRANCH  27  34
ATOM     34  C   UNL     1       9.524   4.539   9.153  0.00  0.00    -0.016 C 
ATOM     35  C   UNL     1       8.929   4.460  10.349  0.00  0.00    +0.005 C 
ENDBRANCH  27  34
ENDBRANCH   8  27
ENDBRANCH  11   6
BRANCH  16  20
ATOM     20  C   UNL     1      11.398  10.725   4.128  0.00  0.00    +0.066 C 
ATOM     24  C   UNL     1      10.225  10.899   4.761  0.00  0.00    -0.071 C 
ATOM     29  C   UNL     1       9.234   9.765   4.821  0.00  0.00    +0.039 C 
ATOM     30  C   UNL     1       9.760  12.151   5.451  0.00  0.00    +0.039 C 
ENDBRANCH  16  20
ENDBRANCH  15  12
BRANCH   7  17
ATOM     17  C   UNL     1      11.682   4.308   2.096  0.00  0.00    +0.163 C 
BRANCH  17  22
ATOM      4  O   UNL     1      10.208   3.984   0.192  0.00  0.00    -0.274 OA
ATOM     10  N   UNL     1      10.655   6.128   0.882  0.00  0.00    -0.328 N 
ATOM     22  C   UNL     1      10.788   4.757   0.950  0.00  0.00    +0.231 C 
ATOM     40  H   UNL     1      11.121   6.754   1.531  0.00  0.00    +0.145 HD
ATOM     41  H   UNL     1      10.075   6.560   0.171  0.00  0.00    +0.145 HD
ENDBRANCH  17  22
BRANCH  17  19
ATOM     19  C   UNL     1      12.515   3.089   1.681  0.00  0.00    +0.069 C 
BRANCH  19  21
ATOM      9  N   UNL     1      16.064   3.832   1.074  0.00  0.00    -0.360 N 
ATOM     21  C   UNL     1      13.878   3.454   1.166  0.00  0.00    -0.020 A 
ATOM     23  C   UNL     1      14.200   3.879  -0.153  0.00  0.00    +0.003 A 
ATOM     25  C   UNL     1      15.044   3.435   1.897  0.00  0.00    +0.087 A 
ATOM     26  C   UNL     1      15.577   4.110  -0.185  0.00  0.00    +0.047 A 
ATOM     28  C   UNL     1      13.450   4.090  -1.327  0.00  0.00    +0.010 A 
ATOM     31  C   UNL     1      16.244   4.543  -1.336  0.00  0.00    +0.026 A 
ATOM     32  C   UNL     1      14.104   4.523  -2.486  0.00  0.00    +0.001 A 
ATOM     33  C   UNL     1      15.479   4.746  -2.489  0.00  0.00    +0.002 A 
ATOM     39  H   UNL     1      17.032   3.913   1.350  0.00  0.00    +0.165 HD
ENDBRANCH  19  21
ENDBRANCH  17  19
ENDBRANCH   7  17
TORSDOF 9
ENDMDL
