MODEL 1
REMARK VINA RESULT:      -6.4      0.000      0.000
REMARK  Name = 56775456
REMARK  9 active torsions:
REMARK  status: ('A' for Active; 'I' for Inactive)
REMARK    1  A    between atoms: N_4  and  C_6
REMARK    2  A    between atoms: N_4  and  C_11
REMARK    3  A    between atoms: C_6  and  C_9
REMARK    4  A    between atoms: C_9  and  C_10
REMARK    5  A    between atoms: C_11  and  C_15
REMARK    6  A    between atoms: C_12  and  C_14
REMARK    7  A    between atoms: C_12  and  C_16
REMARK    8  A    between atoms: C_12  and  C_17
REMARK    9  A    between atoms: C_12  and  C_18
REMARK                            x       y       z     vdW  Elec       q    Type
REMARK                         _______ _______ _______ _____ _____    ______ ____
ROOT
ATOM      2  O   UNL     1      11.347   5.654  20.488  0.00  0.00    -0.376 OA
ATOM      6  C   UNL     1      12.024   7.658  20.770  0.00  0.00    +0.072 C 
ATOM      7  C   UNL     1      11.306   6.591  21.588  0.00  0.00    +0.184 C 
ATOM      8  C   UNL     1      12.113   6.586  19.691  0.00  0.00    +0.184 C 
ENDROOT
BRANCH   6   4
ATOM      4  N   UNL     1      13.350   7.868  21.334  0.00  0.00    -0.302 NA
ATOM     24  H   UNL     1      13.370   8.401  22.203  0.00  0.00    +0.123 HD
BRANCH   4  11
ATOM     11  C   UNL     1      14.213   8.506  20.343  0.00  0.00    +0.118 C 
BRANCH  11  15
ATOM      1 CL   UNL     1      16.536   9.734  21.966  0.00  0.00    -0.083 Cl
ATOM     15  C   UNL     1      15.561   7.842  20.264  0.00  0.00    -0.015 A 
ATOM     19  C   UNL     1      16.663   8.333  20.965  0.00  0.00    +0.045 A 
ATOM     20  C   UNL     1      15.694   6.706  19.463  0.00  0.00    +0.006 A 
ATOM     21  C   UNL     1      17.896   7.690  20.866  0.00  0.00    +0.020 A 
ATOM     22  C   UNL     1      16.928   6.064  19.365  0.00  0.00    +0.000 A 
ATOM     23  C   UNL     1      18.029   6.555  20.066  0.00  0.00    +0.001 A 
ENDBRANCH  11  15
ENDBRANCH   4  11
ENDBRANCH   6   4
BRANCH   6   9
ATOM      9  C   UNL     1      11.293   8.971  20.455  0.00  0.00    +0.085 C 
BRANCH   9  10
ATOM      3  O   UNL     1      10.918  10.372  23.719  0.00  0.00    -0.359 OA
ATOM      5  N   UNL     1      10.906   9.302  22.832  0.00  0.00    -0.083 NA
ATOM     10  C   UNL     1      11.213   9.834  21.645  0.00  0.00    +0.086 A 
ATOM     13  C   UNL     1      11.427  11.221  21.721  0.00  0.00    +0.071 A 
ATOM     14  C   UNL     1      11.230  11.509  23.045  0.00  0.00    +0.143 A 
BRANCH  14  12
ATOM     12  C   UNL     1      11.290  12.803  23.873  0.00  0.00    +0.023 C 
ATOM     16  C   UNL     1      10.343  13.915  23.366  0.00  0.00    +0.019 C 
ATOM     17  C   UNL     1      10.898  12.502  25.337  0.00  0.00    +0.019 C 
ATOM     18  C   UNL     1      12.724  13.375  23.839  0.00  0.00    +0.019 C 
ENDBRANCH  14  12
ENDBRANCH   9  10
ENDBRANCH   6   9
TORSDOF 6
ENDMDL
MODEL 2
REMARK VINA RESULT:      -6.1     26.752     28.172
REMARK  Name = 56775456
REMARK  9 active torsions:
REMARK  status: ('A' for Active; 'I' for Inactive)
REMARK    1  A    between atoms: N_4  and  C_6
REMARK    2  A    between atoms: N_4  and  C_11
REMARK    3  A    between atoms: C_6  and  C_9
REMARK    4  A    between atoms: C_9  and  C_10
REMARK    5  A    between atoms: C_11  and  C_15
REMARK    6  A    between atoms: C_12  and  C_14
REMARK    7  A    between atoms: C_12  and  C_16
REMARK    8  A    between atoms: C_12  and  C_17
REMARK    9  A    between atoms: C_12  and  C_18
REMARK                            x       y       z     vdW  Elec       q    Type
REMARK                         _______ _______ _______ _____ _____    ______ ____
ROOT
ATOM      2  O   UNL     1      -2.197 -13.803  13.105  0.00  0.00    -0.376 OA
ATOM      6  C   UNL     1      -2.596 -12.071  14.287  0.00  0.00    +0.072 C 
ATOM      7  C   UNL     1      -3.369 -12.992  13.350  0.00  0.00    +0.184 C 
ATOM      8  C   UNL     1      -1.432 -13.027  14.055  0.00  0.00    +0.184 C 
ENDROOT
BRANCH   6   4
ATOM      4  N   UNL     1      -3.093 -12.258  15.643  0.00  0.00    -0.302 NA
ATOM     24  H   UNL     1      -4.015 -12.689  15.710  0.00  0.00    +0.123 HD
BRANCH   4  11
ATOM     11  C   UNL     1      -3.093 -10.980  16.350  0.00  0.00    +0.118 C 
BRANCH  11  15
ATOM      1 CL   UNL     1      -3.720 -11.982  19.203  0.00  0.00    -0.083 Cl
ATOM     15  C   UNL     1      -4.444 -10.661  16.932  0.00  0.00    -0.015 A 
ATOM     19  C   UNL     1      -4.807 -11.078  18.213  0.00  0.00    +0.045 A 
ATOM     20  C   UNL     1      -5.345  -9.931  16.156  0.00  0.00    +0.006 A 
ATOM     21  C   UNL     1      -6.068 -10.763  18.718  0.00  0.00    +0.020 A 
ATOM     22  C   UNL     1      -6.606  -9.617  16.661  0.00  0.00    +0.000 A 
ATOM     23  C   UNL     1      -6.968 -10.033  17.942  0.00  0.00    +0.001 A 
ENDBRANCH  11  15
ENDBRANCH   4  11
ENDBRANCH   6   4
BRANCH   6   9
ATOM      9  C   UNL     1      -2.431 -10.593  13.910  0.00  0.00    +0.085 C 
BRANCH   9  10
ATOM      3  O   UNL     1      -2.949 -10.022  10.422  0.00  0.00    -0.359 OA
ATOM      5  N   UNL     1      -2.135 -10.291  11.516  0.00  0.00    -0.083 NA
ATOM     10  C   UNL     1      -2.963 -10.325  12.564  0.00  0.00    +0.086 A 
ATOM     13  C   UNL     1      -4.299 -10.087  12.196  0.00  0.00    +0.071 A 
ATOM     14  C   UNL     1      -4.235  -9.903  10.841  0.00  0.00    +0.143 A 
BRANCH  14  12
ATOM     12  C   UNL     1      -5.284  -9.603   9.757  0.00  0.00    +0.023 C 
ATOM     16  C   UNL     1      -6.647 -10.291   9.999  0.00  0.00    +0.019 C 
ATOM     17  C   UNL     1      -5.545  -8.082   9.693  0.00  0.00    +0.019 C 
ATOM     18  C   UNL     1      -4.766 -10.087   8.385  0.00  0.00    +0.019 C 
ENDBRANCH  14  12
ENDBRANCH   9  10
ENDBRANCH   6   9
TORSDOF 6
ENDMDL
MODEL 3
REMARK VINA RESULT:      -6.0      1.741      2.228
REMARK  Name = 56775456
REMARK  9 active torsions:
REMARK  status: ('A' for Active; 'I' for Inactive)
REMARK    1  A    between atoms: N_4  and  C_6
REMARK    2  A    between atoms: N_4  and  C_11
REMARK    3  A    between atoms: C_6  and  C_9
REMARK    4  A    between atoms: C_9  and  C_10
REMARK    5  A    between atoms: C_11  and  C_15
REMARK    6  A    between atoms: C_12  and  C_14
REMARK    7  A    between atoms: C_12  and  C_16
REMARK    8  A    between atoms: C_12  and  C_17
REMARK    9  A    between atoms: C_12  and  C_18
REMARK                            x       y       z     vdW  Elec       q    Type
REMARK                         _______ _______ _______ _____ _____    ______ ____
ROOT
ATOM      2  O   UNL     1      10.678   7.011  21.874  0.00  0.00    -0.376 OA
ATOM      6  C   UNL     1      12.003   8.629  21.451  0.00  0.00    +0.072 C 
ATOM      7  C   UNL     1      11.050   8.223  22.569  0.00  0.00    +0.184 C 
ATOM      8  C   UNL     1      11.633   7.289  20.826  0.00  0.00    +0.184 C 
ENDROOT
BRANCH   6   4
ATOM      4  N   UNL     1      13.369   8.553  21.949  0.00  0.00    -0.302 NA
ATOM     24  H   UNL     1      13.534   9.031  22.834  0.00  0.00    +0.123 HD
BRANCH   4  11
ATOM     11  C   UNL     1      14.293   9.059  20.936  0.00  0.00    +0.118 C 
BRANCH  11  15
ATOM      1 CL   UNL     1      13.947   7.546  18.266  0.00  0.00    -0.083 Cl
ATOM     15  C   UNL     1      15.330   8.035  20.562  0.00  0.00    -0.015 A 
ATOM     19  C   UNL     1      15.248   7.307  19.375  0.00  0.00    +0.045 A 
ATOM     20  C   UNL     1      16.395   7.820  21.439  0.00  0.00    +0.006 A 
ATOM     21  C   UNL     1      16.229   6.367  19.064  0.00  0.00    +0.020 A 
ATOM     22  C   UNL     1      17.376   6.878  21.127  0.00  0.00    +0.000 A 
ATOM     23  C   UNL     1      17.293   6.152  19.940  0.00  0.00    +0.001 A 
ENDBRANCH  11  15
ENDBRANCH   4  11
ENDBRANCH   6   4
BRANCH   6   9
ATOM      9  C   UNL     1      11.723   9.918  20.666  0.00  0.00    +0.085 C 
BRANCH   9  10
ATOM      3  O   UNL     1      12.583  12.959  22.329  0.00  0.00    -0.359 OA
ATOM      5  N   UNL     1      12.796  11.986  21.360  0.00  0.00    -0.083 NA
ATOM     10  C   UNL     1      11.810  11.100  21.537  0.00  0.00    +0.086 A 
ATOM     13  C   UNL     1      10.954  11.460  22.593  0.00  0.00    +0.071 A 
ATOM     14  C   UNL     1      11.484  12.634  23.056  0.00  0.00    +0.143 A 
BRANCH  14  12
ATOM     12  C   UNL     1      11.095  13.606  24.183  0.00  0.00    +0.023 C 
ATOM     16  C   UNL     1      10.695  12.907  25.502  0.00  0.00    +0.019 C 
ATOM     17  C   UNL     1      12.286  14.536  24.502  0.00  0.00    +0.019 C 
ATOM     18  C   UNL     1       9.889  14.461  23.737  0.00  0.00    +0.019 C 
ENDBRANCH  14  12
ENDBRANCH   9  10
ENDBRANCH   6   9
TORSDOF 6
ENDMDL
MODEL 4
REMARK VINA RESULT:      -5.8     25.796     28.014
REMARK  Name = 56775456
REMARK  9 active torsions:
REMARK  status: ('A' for Active; 'I' for Inactive)
REMARK    1  A    between atoms: N_4  and  C_6
REMARK    2  A    between atoms: N_4  and  C_11
REMARK    3  A    between atoms: C_6  and  C_9
REMARK    4  A    between atoms: C_9  and  C_10
REMARK    5  A    between atoms: C_11  and  C_15
REMARK    6  A    between atoms: C_12  and  C_14
REMARK    7  A    between atoms: C_12  and  C_16
REMARK    8  A    between atoms: C_12  and  C_17
REMARK    9  A    between atoms: C_12  and  C_18
REMARK                            x       y       z     vdW  Elec       q    Type
REMARK                         _______ _______ _______ _____ _____    ______ ____
ROOT
ATOM      2  O   UNL     1      -0.736 -11.091  15.565  0.00  0.00    -0.376 OA
ATOM      6  C   UNL     1      -2.850 -11.106  15.273  0.00  0.00    +0.072 C 
ATOM      7  C   UNL     1      -1.838 -10.326  16.104  0.00  0.00    +0.184 C 
ATOM      8  C   UNL     1      -1.631 -11.802  14.679  0.00  0.00    +0.184 C 
ENDROOT
BRANCH   6   4
ATOM      4  N   UNL     1      -3.416 -10.215  14.269  0.00  0.00    -0.302 NA
ATOM     24  H   UNL     1      -4.150  -9.594  14.607  0.00  0.00    +0.123 HD
BRANCH   4  11
ATOM     11  C   UNL     1      -3.912 -10.997  13.139  0.00  0.00    +0.118 C 
BRANCH  11  15
ATOM      1 CL   UNL     1      -6.628  -9.543  12.919  0.00  0.00    -0.083 Cl
ATOM     15  C   UNL     1      -4.160 -10.138  11.929  0.00  0.00    -0.015 A 
ATOM     19  C   UNL     1      -5.359  -9.448  11.752  0.00  0.00    +0.045 A 
ATOM     20  C   UNL     1      -3.152 -10.041  10.968  0.00  0.00    +0.006 A 
ATOM     21  C   UNL     1      -5.551  -8.661  10.617  0.00  0.00    +0.020 A 
ATOM     22  C   UNL     1      -3.345  -9.254   9.832  0.00  0.00    +0.000 A 
ATOM     23  C   UNL     1      -4.544  -8.564   9.657  0.00  0.00    +0.001 A 
ENDBRANCH  11  15
ENDBRANCH   4  11
ENDBRANCH   6   4
BRANCH   6   9
ATOM      9  C   UNL     1      -3.912 -11.949  15.991  0.00  0.00    +0.085 C 
BRANCH   9  10
ATOM      3  O   UNL     1      -6.388  -9.485  16.734  0.00  0.00    -0.359 OA
ATOM      5  N   UNL     1      -5.068  -9.910  16.632  0.00  0.00    -0.083 NA
ATOM     10  C   UNL     1      -5.144 -11.176  16.213  0.00  0.00    +0.086 A 
ATOM     13  C   UNL     1      -6.472 -11.601  16.035  0.00  0.00    +0.071 A 
ATOM     14  C   UNL     1      -7.214 -10.501  16.376  0.00  0.00    +0.143 A 
BRANCH  14  12
ATOM     12  C   UNL     1      -8.723 -10.209  16.429  0.00  0.00    +0.023 C 
ATOM     16  C   UNL     1      -9.489 -11.064  17.464  0.00  0.00    +0.019 C 
ATOM     17  C   UNL     1      -8.953  -8.728  16.800  0.00  0.00    +0.019 C 
ATOM     18  C   UNL     1      -9.354 -10.490  15.048  0.00  0.00    +0.019 C 
ENDBRANCH  14  12
ENDBRANCH   9  10
ENDBRANCH   6   9
TORSDOF 6
ENDMDL
MODEL 5
REMARK VINA RESULT:      -5.8      4.010      5.513
REMARK  Name = 56775456
REMARK  9 active torsions:
REMARK  status: ('A' for Active; 'I' for Inactive)
REMARK    1  A    between atoms: N_4  and  C_6
REMARK    2  A    between atoms: N_4  and  C_11
REMARK    3  A    between atoms: C_6  and  C_9
REMARK    4  A    between atoms: C_9  and  C_10
REMARK    5  A    between atoms: C_11  and  C_15
REMARK    6  A    between atoms: C_12  and  C_14
REMARK    7  A    between atoms: C_12  and  C_16
REMARK    8  A    between atoms: C_12  and  C_17
REMARK    9  A    between atoms: C_12  and  C_18
REMARK                            x       y       z     vdW  Elec       q    Type
REMARK                         _______ _______ _______ _____ _____    ______ ____
ROOT
ATOM      2  O   UNL     1      10.480   8.435  19.319  0.00  0.00    -0.376 OA
ATOM      6  C   UNL     1      12.603   8.570  19.151  0.00  0.00    +0.072 C 
ATOM      7  C   UNL     1      11.578   8.320  20.252  0.00  0.00    +0.184 C 
ATOM      8  C   UNL     1      11.401   8.582  18.214  0.00  0.00    +0.184 C 
ENDROOT
BRANCH   6   4
ATOM      4  N   UNL     1      13.359   7.346  18.928  0.00  0.00    -0.302 NA
ATOM     24  H   UNL     1      12.859   6.617  18.419  0.00  0.00    +0.123 HD
BRANCH   4  11
ATOM     11  C   UNL     1      13.836   6.819  20.205  0.00  0.00    +0.118 C 
BRANCH  11  15
ATOM      1 CL   UNL     1      14.950   8.693  22.392  0.00  0.00    -0.083 Cl
ATOM     15  C   UNL     1      15.330   6.942  20.338  0.00  0.00    -0.015 A 
ATOM     19  C   UNL     1      15.914   7.767  21.299  0.00  0.00    +0.045 A 
ATOM     20  C   UNL     1      16.135   6.205  19.469  0.00  0.00    +0.006 A 
ATOM     21  C   UNL     1      17.303   7.855  21.392  0.00  0.00    +0.020 A 
ATOM     22  C   UNL     1      17.524   6.294  19.562  0.00  0.00    +0.000 A 
ATOM     23  C   UNL     1      18.108   7.118  20.524  0.00  0.00    +0.001 A 
ENDBRANCH  11  15
ENDBRANCH   4  11
ENDBRANCH   6   4
BRANCH   6   9
ATOM      9  C   UNL     1      13.494   9.817  19.233  0.00  0.00    +0.085 C 
BRANCH   9  10
ATOM      3  O   UNL     1      14.803   9.999  15.915  0.00  0.00    -0.359 OA
ATOM      5  N   UNL     1      14.450   9.295  17.060  0.00  0.00    -0.083 NA
ATOM     10  C   UNL     1      13.971  10.217  17.900  0.00  0.00    +0.086 A 
ATOM     13  C   UNL     1      13.997  11.509  17.345  0.00  0.00    +0.071 A 
ATOM     14  C   UNL     1      14.528  11.316  16.098  0.00  0.00    +0.143 A 
BRANCH  14  12
ATOM     12  C   UNL     1      14.857  12.254  14.924  0.00  0.00    +0.023 C 
ATOM     16  C   UNL     1      13.735  12.347  13.865  0.00  0.00    +0.019 C 
ATOM     17  C   UNL     1      15.103  13.684  15.455  0.00  0.00    +0.019 C 
ATOM     18  C   UNL     1      16.127  11.756  14.202  0.00  0.00    +0.019 C 
ENDBRANCH  14  12
ENDBRANCH   9  10
ENDBRANCH   6   9
TORSDOF 6
ENDMDL
MODEL 6
REMARK VINA RESULT:      -5.8     19.686     22.349
REMARK  Name = 56775456
REMARK  9 active torsions:
REMARK  status: ('A' for Active; 'I' for Inactive)
REMARK    1  A    between atoms: N_4  and  C_6
REMARK    2  A    between atoms: N_4  and  C_11
REMARK    3  A    between atoms: C_6  and  C_9
REMARK    4  A    between atoms: C_9  and  C_10
REMARK    5  A    between atoms: C_11  and  C_15
REMARK    6  A    between atoms: C_12  and  C_14
REMARK    7  A    between atoms: C_12  and  C_16
REMARK    8  A    between atoms: C_12  and  C_17
REMARK    9  A    between atoms: C_12  and  C_18
REMARK                            x       y       z     vdW  Elec       q    Type
REMARK                         _______ _______ _______ _____ _____    ______ ____
ROOT
ATOM      2  O   UNL     1      14.535   3.220   1.627  0.00  0.00    -0.376 OA
ATOM      6  C   UNL     1      12.947   4.645   1.582  0.00  0.00    +0.072 C 
ATOM      7  C   UNL     1      13.143   3.173   1.239  0.00  0.00    +0.184 C 
ATOM      8  C   UNL     1      14.393   4.592   2.061  0.00  0.00    +0.184 C 
ENDROOT
BRANCH   6   4
ATOM      4  N   UNL     1      12.072   4.744   2.742  0.00  0.00    -0.302 NA
ATOM     24  H   UNL     1      11.320   4.057   2.775  0.00  0.00    +0.123 HD
BRANCH   4  11
ATOM     11  C   UNL     1      11.514   6.091   2.826  0.00  0.00    +0.118 C 
BRANCH  11  15
ATOM      1 CL   UNL     1       9.158   7.989   2.204  0.00  0.00    -0.083 Cl
ATOM     15  C   UNL     1      10.386   6.169   3.819  0.00  0.00    -0.015 A 
ATOM     19  C   UNL     1       9.285   7.001   3.614  0.00  0.00    +0.045 A 
ATOM     20  C   UNL     1      10.460   5.382   4.969  0.00  0.00    +0.006 A 
ATOM     21  C   UNL     1       8.259   7.046   4.558  0.00  0.00    +0.020 A 
ATOM     22  C   UNL     1       9.433   5.428   5.913  0.00  0.00    +0.000 A 
ATOM     23  C   UNL     1       8.333   6.259   5.707  0.00  0.00    +0.001 A 
ENDBRANCH  11  15
ENDBRANCH   4  11
ENDBRANCH   6   4
BRANCH   6   9
ATOM      9  C   UNL     1      12.569   5.626   0.463  0.00  0.00    +0.085 C 
BRANCH   9  10
ATOM      3  O   UNL     1      10.077   3.946  -1.467  0.00  0.00    -0.359 OA
ATOM      5  N   UNL     1      10.549   4.499  -0.282  0.00  0.00    -0.083 NA
ATOM     10  C   UNL     1      11.767   4.963  -0.577  0.00  0.00    +0.086 A 
ATOM     13  C   UNL     1      12.114   4.733  -1.920  0.00  0.00    +0.071 A 
ATOM     14  C   UNL     1      11.018   4.092  -2.434  0.00  0.00    +0.143 A 
BRANCH  14  12
ATOM     12  C   UNL     1      10.667   3.534  -3.823  0.00  0.00    +0.023 C 
ATOM     16  C   UNL     1       9.547   2.468  -3.804  0.00  0.00    +0.019 C 
ATOM     17  C   UNL     1      10.187   4.683  -4.738  0.00  0.00    +0.019 C 
ATOM     18  C   UNL     1      11.914   2.874  -4.449  0.00  0.00    +0.019 C 
ENDBRANCH  14  12
ENDBRANCH   9  10
ENDBRANCH   6   9
TORSDOF 6
ENDMDL
MODEL 7
REMARK VINA RESULT:      -5.7     19.355     22.080
REMARK  Name = 56775456
REMARK  9 active torsions:
REMARK  status: ('A' for Active; 'I' for Inactive)
REMARK    1  A    between atoms: N_4  and  C_6
REMARK    2  A    between atoms: N_4  and  C_11
REMARK    3  A    between atoms: C_6  and  C_9
REMARK    4  A    between atoms: C_9  and  C_10
REMARK    5  A    between atoms: C_11  and  C_15
REMARK    6  A    between atoms: C_12  and  C_14
REMARK    7  A    between atoms: C_12  and  C_16
REMARK    8  A    between atoms: C_12  and  C_17
REMARK    9  A    between atoms: C_12  and  C_18
REMARK                            x       y       z     vdW  Elec       q    Type
REMARK                         _______ _______ _______ _____ _____    ______ ____
ROOT
ATOM      2  O   UNL     1      14.421   6.363   0.849  0.00  0.00    -0.376 OA
ATOM      6  C   UNL     1      12.973   5.250   1.951  0.00  0.00    +0.072 C 
ATOM      7  C   UNL     1      14.487   5.426   1.947  0.00  0.00    +0.184 C 
ATOM      8  C   UNL     1      12.976   6.315   0.862  0.00  0.00    +0.184 C 
ENDROOT
BRANCH   6   4
ATOM      4  N   UNL     1      12.436   5.831   3.174  0.00  0.00    -0.302 NA
ATOM     24  H   UNL     1      13.100   5.905   3.945  0.00  0.00    +0.123 HD
BRANCH   4  11
ATOM     11  C   UNL     1      11.261   5.079   3.605  0.00  0.00    +0.118 C 
BRANCH  11  15
ATOM      1 CL   UNL     1       9.793   4.703   6.296  0.00  0.00    -0.083 Cl
ATOM     15  C   UNL     1      10.097   5.984   3.910  0.00  0.00    -0.015 A 
ATOM     19  C   UNL     1       9.380   5.880   5.102  0.00  0.00    +0.045 A 
ATOM     20  C   UNL     1       9.741   6.946   2.964  0.00  0.00    +0.006 A 
ATOM     21  C   UNL     1       8.308   6.736   5.348  0.00  0.00    +0.020 A 
ATOM     22  C   UNL     1       8.668   7.802   3.211  0.00  0.00    +0.000 A 
ATOM     23  C   UNL     1       7.952   7.697   4.403  0.00  0.00    +0.001 A 
ENDBRANCH  11  15
ENDBRANCH   4  11
ENDBRANCH   6   4
BRANCH   6   9
ATOM      9  C   UNL     1      12.383   3.868   1.638  0.00  0.00    +0.085 C 
BRANCH   9  10
ATOM      3  O   UNL     1      10.184   4.113  -1.165  0.00  0.00    -0.359 OA
ATOM      5  N   UNL     1      10.471   4.250   0.188  0.00  0.00    -0.083 NA
ATOM     10  C   UNL     1      11.740   3.852   0.315  0.00  0.00    +0.086 A 
ATOM     13  C   UNL     1      12.300   3.456  -0.912  0.00  0.00    +0.071 A 
ATOM     14  C   UNL     1      11.282   3.640  -1.809  0.00  0.00    +0.143 A 
BRANCH  14  12
ATOM     12  C   UNL     1      11.148   3.425  -3.326  0.00  0.00    +0.023 C 
ATOM     16  C   UNL     1      12.412   2.828  -3.987  0.00  0.00    +0.019 C 
ATOM     17  C   UNL     1       9.982   2.454  -3.612  0.00  0.00    +0.019 C 
ATOM     18  C   UNL     1      10.865   4.776  -4.019  0.00  0.00    +0.019 C 
ENDBRANCH  14  12
ENDBRANCH   9  10
ENDBRANCH   6   9
TORSDOF 6
ENDMDL
MODEL 8
REMARK VINA RESULT:      -5.7     15.721     17.748
REMARK  Name = 56775456
REMARK  9 active torsions:
REMARK  status: ('A' for Active; 'I' for Inactive)
REMARK    1  A    between atoms: N_4  and  C_6
REMARK    2  A    between atoms: N_4  and  C_11
REMARK    3  A    between atoms: C_6  and  C_9
REMARK    4  A    between atoms: C_9  and  C_10
REMARK    5  A    between atoms: C_11  and  C_15
REMARK    6  A    between atoms: C_12  and  C_14
REMARK    7  A    between atoms: C_12  and  C_16
REMARK    8  A    between atoms: C_12  and  C_17
REMARK    9  A    between atoms: C_12  and  C_18
REMARK                            x       y       z     vdW  Elec       q    Type
REMARK                         _______ _______ _______ _____ _____    ______ ____
ROOT
ATOM      2  O   UNL     1      16.843   8.947   4.495  0.00  0.00    -0.376 OA
ATOM      6  C   UNL     1      14.829   8.274   4.707  0.00  0.00    +0.072 C 
ATOM      7  C   UNL     1      15.673   8.972   3.647  0.00  0.00    +0.184 C 
ATOM      8  C   UNL     1      16.126   8.199   5.504  0.00  0.00    +0.184 C 
ENDROOT
BRANCH   6   4
ATOM      4  N   UNL     1      14.492   6.939   4.233  0.00  0.00    -0.302 NA
ATOM     24  H   UNL     1      15.276   6.290   4.177  0.00  0.00    +0.123 HD
BRANCH   4  11
ATOM     11  C   UNL     1      13.829   7.027   2.934  0.00  0.00    +0.118 C 
BRANCH  11  15
ATOM      1 CL   UNL     1      10.898   6.057   2.916  0.00  0.00    -0.083 Cl
ATOM     15  C   UNL     1      13.537   5.667   2.360  0.00  0.00    -0.015 A 
ATOM     19  C   UNL     1      12.240   5.154   2.315  0.00  0.00    +0.045 A 
ATOM     20  C   UNL     1      14.602   4.913   1.866  0.00  0.00    +0.006 A 
ATOM     21  C   UNL     1      12.009   3.889   1.775  0.00  0.00    +0.020 A 
ATOM     22  C   UNL     1      14.370   3.648   1.327  0.00  0.00    +0.000 A 
ATOM     23  C   UNL     1      13.074   3.136   1.282  0.00  0.00    +0.001 A 
ENDBRANCH  11  15
ENDBRANCH   4  11
ENDBRANCH   6   4
BRANCH   6   9
ATOM      9  C   UNL     1      13.628   9.016   5.309  0.00  0.00    +0.085 C 
BRANCH   9  10
ATOM      3  O   UNL     1      12.117   6.489   7.331  0.00  0.00    -0.359 OA
ATOM      5  N   UNL     1      13.221   7.189   6.860  0.00  0.00    -0.083 NA
ATOM     10  C   UNL     1      12.723   8.086   6.004  0.00  0.00    +0.086 A 
ATOM     13  C   UNL     1      11.324   8.000   5.896  0.00  0.00    +0.071 A 
ATOM     14  C   UNL     1      10.994   6.982   6.749  0.00  0.00    +0.143 A 
BRANCH  14  12
ATOM     12  C   UNL     1       9.665   6.322   7.155  0.00  0.00    +0.023 C 
ATOM     16  C   UNL     1       9.837   5.013   7.960  0.00  0.00    +0.019 C 
ATOM     17  C   UNL     1       8.849   7.295   8.034  0.00  0.00    +0.019 C 
ATOM     18  C   UNL     1       8.850   5.975   5.890  0.00  0.00    +0.019 C 
ENDBRANCH  14  12
ENDBRANCH   9  10
ENDBRANCH   6   9
TORSDOF 6
ENDMDL
MODEL 9
REMARK VINA RESULT:      -5.7      5.659     10.687
REMARK  Name = 56775456
REMARK  9 active torsions:
REMARK  status: ('A' for Active; 'I' for Inactive)
REMARK    1  A    between atoms: N_4  and  C_6
REMARK    2  A    between atoms: N_4  and  C_11
REMARK    3  A    between atoms: C_6  and  C_9
REMARK    4  A    between atoms: C_9  and  C_10
REMARK    5  A    between atoms: C_11  and  C_15
REMARK    6  A    between atoms: C_12  and  C_14
REMARK    7  A    between atoms: C_12  and  C_16
REMARK    8  A    between atoms: C_12  and  C_17
REMARK    9  A    between atoms: C_12  and  C_18
REMARK                            x       y       z     vdW  Elec       q    Type
REMARK                         _______ _______ _______ _____ _____    ______ ____
ROOT
ATOM      2  O   UNL     1      21.050   7.996  23.918  0.00  0.00    -0.376 OA
ATOM      6  C   UNL     1      20.302   7.161  22.102  0.00  0.00    +0.072 C 
ATOM      7  C   UNL     1      20.909   6.652  23.405  0.00  0.00    +0.184 C 
ATOM      8  C   UNL     1      20.395   8.538  22.749  0.00  0.00    +0.184 C 
ENDROOT
BRANCH   6   4
ATOM      4  N   UNL     1      18.903   6.761  22.049  0.00  0.00    -0.302 NA
ATOM     24  H   UNL     1      18.689   5.875  22.505  0.00  0.00    +0.123 HD
BRANCH   4  11
ATOM     11  C   UNL     1      18.452   6.724  20.660  0.00  0.00    +0.118 C 
BRANCH  11  15
ATOM      1 CL   UNL     1      16.905   5.643  18.216  0.00  0.00    -0.083 Cl
ATOM     15  C   UNL     1      16.993   7.072  20.535  0.00  0.00    -0.015 A 
ATOM     19  C   UNL     1      16.222   6.624  19.462  0.00  0.00    +0.045 A 
ATOM     20  C   UNL     1      16.413   7.863  21.527  0.00  0.00    +0.006 A 
ATOM     21  C   UNL     1      14.873   6.967  19.381  0.00  0.00    +0.020 A 
ATOM     22  C   UNL     1      15.064   8.206  21.445  0.00  0.00    +0.000 A 
ATOM     23  C   UNL     1      14.294   7.758  20.373  0.00  0.00    +0.001 A 
ENDBRANCH  11  15
ENDBRANCH   4  11
ENDBRANCH   6   4
BRANCH   6   9
ATOM      9  C   UNL     1      21.047   6.907  20.785  0.00  0.00    +0.085 C 
BRANCH   9  10
ATOM      3  O   UNL     1      22.021   3.473  20.920  0.00  0.00    -0.359 OA
ATOM      5  N   UNL     1      21.063   4.480  20.925  0.00  0.00    -0.083 NA
ATOM     10  C   UNL     1      21.756   5.618  20.815  0.00  0.00    +0.086 A 
ATOM     13  C   UNL     1      23.142   5.393  20.738  0.00  0.00    +0.071 A 
ATOM     14  C   UNL     1      23.254   4.030  20.808  0.00  0.00    +0.143 A 
BRANCH  14  12
ATOM     12  C   UNL     1      24.446   3.058  20.786  0.00  0.00    +0.023 C 
ATOM     16  C   UNL     1      24.057   1.585  21.050  0.00  0.00    +0.019 C 
ATOM     17  C   UNL     1      25.131   3.107  19.403  0.00  0.00    +0.019 C 
ATOM     18  C   UNL     1      25.466   3.462  21.873  0.00  0.00    +0.019 C 
ENDBRANCH  14  12
ENDBRANCH   9  10
ENDBRANCH   6   9
TORSDOF 6
ENDMDL
MODEL 10
REMARK VINA RESULT:      -5.6      2.728      4.941
REMARK  Name = 56775456
REMARK  9 active torsions:
REMARK  status: ('A' for Active; 'I' for Inactive)
REMARK    1  A    between atoms: N_4  and  C_6
REMARK    2  A    between atoms: N_4  and  C_11
REMARK    3  A    between atoms: C_6  and  C_9
REMARK    4  A    between atoms: C_9  and  C_10
REMARK    5  A    between atoms: C_11  and  C_15
REMARK    6  A    between atoms: C_12  and  C_14
REMARK    7  A    between atoms: C_12  and  C_16
REMARK    8  A    between atoms: C_12  and  C_17
REMARK    9  A    between atoms: C_12  and  C_18
REMARK                            x       y       z     vdW  Elec       q    Type
REMARK                         _______ _______ _______ _____ _____    ______ ____
ROOT
ATOM      2  O   UNL     1      10.656  10.246  22.534  0.00  0.00    -0.376 OA
ATOM      6  C   UNL     1      12.651   9.867  21.880  0.00  0.00    +0.072 C 
ATOM      7  C   UNL     1      11.967  10.625  23.011  0.00  0.00    +0.184 C 
ATOM      8  C   UNL     1      11.242   9.431  21.494  0.00  0.00    +0.184 C 
ENDROOT
BRANCH   6   4
ATOM      4  N   UNL     1      13.358   8.724  22.441  0.00  0.00    -0.302 NA
ATOM     24  H   UNL     1      14.355   8.869  22.600  0.00  0.00    +0.123 HD
BRANCH   4  11
ATOM     11  C   UNL     1      13.158   7.553  21.592  0.00  0.00    +0.118 C 
BRANCH  11  15
ATOM      1 CL   UNL     1      13.073   7.362  18.511  0.00  0.00    -0.083 Cl
ATOM     15  C   UNL     1      14.420   7.161  20.872  0.00  0.00    -0.015 A 
ATOM     19  C   UNL     1      14.466   7.051  19.482  0.00  0.00    +0.045 A 
ATOM     20  C   UNL     1      15.563   6.904  21.630  0.00  0.00    +0.006 A 
ATOM     21  C   UNL     1      15.654   6.685  18.850  0.00  0.00    +0.020 A 
ATOM     22  C   UNL     1      16.751   6.537  20.998  0.00  0.00    +0.000 A 
ATOM     23  C   UNL     1      16.797   6.428  19.608  0.00  0.00    +0.001 A 
ENDBRANCH  11  15
ENDBRANCH   4  11
ENDBRANCH   6   4
BRANCH   6   9
ATOM      9  C   UNL     1      13.492  10.650  20.862  0.00  0.00    +0.085 C 
BRANCH   9  10
ATOM      3  O   UNL     1      16.496  11.367  22.656  0.00  0.00    -0.359 OA
ATOM      5  N   UNL     1      15.112  11.363  22.528  0.00  0.00    -0.083 NA
ATOM     10  C   UNL     1      14.877  10.815  21.332  0.00  0.00    +0.086 A 
ATOM     13  C   UNL     1      16.062  10.458  20.666  0.00  0.00    +0.071 A 
ATOM     14  C   UNL     1      17.050  10.825  21.541  0.00  0.00    +0.143 A 
BRANCH  14  12
ATOM     12  C   UNL     1      18.585  10.747  21.506  0.00  0.00    +0.023 C 
ATOM     16  C   UNL     1      19.225  11.519  20.329  0.00  0.00    +0.019 C 
ATOM     17  C   UNL     1      19.165  11.339  22.809  0.00  0.00    +0.019 C 
ATOM     18  C   UNL     1      19.028   9.273  21.378  0.00  0.00    +0.019 C 
ENDBRANCH  14  12
ENDBRANCH   9  10
ENDBRANCH   6   9
TORSDOF 6
ENDMDL
