MODEL 1
REMARK VINA RESULT:      -5.2      0.000      0.000
REMARK  Name = 75367072
REMARK  10 active torsions:
REMARK  status: ('A' for Active; 'I' for Inactive)
REMARK    1  A    between atoms: O_2  and  C_7
REMARK    2  A    between atoms: N_4  and  C_6
REMARK    3  A    between atoms: N_4  and  C_16
REMARK    4  A    between atoms: N_5  and  C_13
REMARK    5  A    between atoms: C_8  and  C_13
REMARK    6  A    between atoms: C_9  and  C_18
REMARK    7  A    between atoms: C_16  and  C_17
REMARK    8  A    between atoms: C_17  and  C_19
REMARK    9  A    between atoms: C_17  and  C_20
REMARK   10  A    between atoms: C_17  and  C_21
REMARK                            x       y       z     vdW  Elec       q    Type
REMARK                         _______ _______ _______ _____ _____    ______ ____
ROOT
ATOM      1  O   UNL     1     -14.976   0.729  31.864  0.00  0.00    -0.371 OA
ATOM      6  C   UNL     1     -14.025   2.123  30.192  0.00  0.00    +0.111 C 
ATOM      7  C   UNL     1     -13.922   2.820  31.536  0.00  0.00    +0.164 C 
ATOM      8  C   UNL     1     -14.059   1.642  32.490  0.00  0.00    +0.165 C 
ATOM     10  C   UNL     1     -15.096   1.082  30.475  0.00  0.00    +0.181 C 
ENDROOT
BRANCH   7   2
ATOM      2  O   UNL     1     -12.692   3.497  31.707  0.00  0.00    -0.388 OA
ATOM     24  H   UNL     1     -12.551   4.076  30.938  0.00  0.00    +0.210 HD
ENDBRANCH   7   2
BRANCH   6   4
ATOM      4  N   UNL     1     -14.374   3.013  29.097  0.00  0.00    -0.308 NA
ATOM     22  H   UNL     1     -14.738   2.459  28.323  0.00  0.00    +0.122 HD
BRANCH   4  16
ATOM     16  C   UNL     1     -15.381   3.984  29.511  0.00  0.00    +0.087 C 
BRANCH  16  17
ATOM     17  C   UNL     1     -16.632   4.026  28.598  0.00  0.00    -0.025 C 
ATOM     19  C   UNL     1     -16.365   3.327  27.253  0.00  0.00    +0.012 C 
ATOM     20  C   UNL     1     -17.071   5.478  28.336  0.00  0.00    +0.012 C 
ATOM     21  C   UNL     1     -17.778   3.287  29.315  0.00  0.00    +0.012 C 
ENDBRANCH  16  17
ENDBRANCH   4  16
ENDBRANCH   6   4
BRANCH   8  13
ATOM     13  C   UNL     1     -14.583   2.036  33.860  0.00  0.00    +0.138 C 
BRANCH  13   5
ATOM      3  O   UNL     1     -13.986   4.583  35.120  0.00  0.00    -0.276 OA
ATOM      5  N   UNL     1     -15.356   3.242  33.796  0.00  0.00    -0.313 N 
ATOM     18  C   UNL     1     -14.992   4.422  34.434  0.00  0.00    +0.216 C 
ATOM     23  H   UNL     1     -16.212   3.220  33.249  0.00  0.00    +0.149 HD
BRANCH  18   9
ATOM      9  C   UNL     1     -15.963   5.536  34.183  0.00  0.00    +0.075 C 
ATOM     11  C   UNL     1     -16.974   5.127  33.106  0.00  0.00    +0.013 C 
ATOM     12  C   UNL     1     -15.240   6.771  33.644  0.00  0.00    +0.013 C 
ATOM     14  C   UNL     1     -16.881   6.193  32.020  0.00  0.00    +0.001 C 
ATOM     15  C   UNL     1     -15.462   6.720  32.139  0.00  0.00    +0.001 C 
ENDBRANCH  18   9
ENDBRANCH  13   5
ENDBRANCH   8  13
TORSDOF 7
ENDMDL
MODEL 2
REMARK VINA RESULT:      -5.1     23.127     25.959
REMARK  Name = 75367072
REMARK  10 active torsions:
REMARK  status: ('A' for Active; 'I' for Inactive)
REMARK    1  A    between atoms: O_2  and  C_7
REMARK    2  A    between atoms: N_4  and  C_6
REMARK    3  A    between atoms: N_4  and  C_16
REMARK    4  A    between atoms: N_5  and  C_13
REMARK    5  A    between atoms: C_8  and  C_13
REMARK    6  A    between atoms: C_9  and  C_18
REMARK    7  A    between atoms: C_16  and  C_17
REMARK    8  A    between atoms: C_17  and  C_19
REMARK    9  A    between atoms: C_17  and  C_20
REMARK   10  A    between atoms: C_17  and  C_21
REMARK                            x       y       z     vdW  Elec       q    Type
REMARK                         _______ _______ _______ _____ _____    ______ ____
ROOT
ATOM      1  O   UNL     1      -3.903 -10.297  13.970  0.00  0.00    -0.371 OA
ATOM      6  C   UNL     1      -3.441 -10.906  16.219  0.00  0.00    +0.111 C 
ATOM      7  C   UNL     1      -2.321 -11.411  15.329  0.00  0.00    +0.164 C 
ATOM      8  C   UNL     1      -2.489 -10.518  14.108  0.00  0.00    +0.165 C 
ATOM     10  C   UNL     1      -4.546 -10.664  15.203  0.00  0.00    +0.181 C 
ENDROOT
BRANCH   7   2
ATOM      2  O   UNL     1      -1.044 -11.261  15.920  0.00  0.00    -0.388 OA
ATOM     24  H   UNL     1      -0.378 -11.250  15.211  0.00  0.00    +0.210 HD
ENDBRANCH   7   2
BRANCH   6   4
ATOM      4  N   UNL     1      -3.825 -11.843  17.262  0.00  0.00    -0.308 NA
ATOM     22  H   UNL     1      -3.609 -11.434  18.170  0.00  0.00    +0.122 HD
BRANCH   4  16
ATOM     16  C   UNL     1      -5.250 -12.146  17.196  0.00  0.00    +0.087 C 
BRANCH  16  17
ATOM     17  C   UNL     1      -6.057 -11.664  18.428  0.00  0.00    -0.025 C 
ATOM     19  C   UNL     1      -6.733 -10.308  18.156  0.00  0.00    +0.012 C 
ATOM     20  C   UNL     1      -5.149 -11.540  19.664  0.00  0.00    +0.012 C 
ATOM     21  C   UNL     1      -7.154 -12.705  18.725  0.00  0.00    +0.012 C 
ENDBRANCH  16  17
ENDBRANCH   4  16
ENDBRANCH   6   4
BRANCH   8  13
ATOM     13  C   UNL     1      -1.939 -11.132  12.833  0.00  0.00    +0.138 C 
BRANCH  13   5
ATOM      3  O   UNL     1      -1.944  -9.177  10.687  0.00  0.00    -0.276 OA
ATOM      5  N   UNL     1      -2.878 -11.025  11.754  0.00  0.00    -0.313 N 
ATOM     18  C   UNL     1      -2.803 -10.052  10.765  0.00  0.00    +0.216 C 
ATOM     23  H   UNL     1      -3.632 -11.704  11.722  0.00  0.00    +0.149 HD
BRANCH  18   9
ATOM      9  C   UNL     1      -3.893 -10.181   9.745  0.00  0.00    +0.075 C 
ATOM     11  C   UNL     1      -4.209  -8.814   9.128  0.00  0.00    +0.013 C 
ATOM     12  C   UNL     1      -5.188 -10.666  10.398  0.00  0.00    +0.013 C 
ATOM     14  C   UNL     1      -5.701  -8.591   9.352  0.00  0.00    +0.001 C 
ATOM     15  C   UNL     1      -6.015  -9.404  10.596  0.00  0.00    +0.001 C 
ENDBRANCH  18   9
ENDBRANCH  13   5
ENDBRANCH   8  13
TORSDOF 7
ENDMDL
MODEL 3
REMARK VINA RESULT:      -5.0     37.648     40.150
REMARK  Name = 75367072
REMARK  10 active torsions:
REMARK  status: ('A' for Active; 'I' for Inactive)
REMARK    1  A    between atoms: O_2  and  C_7
REMARK    2  A    between atoms: N_4  and  C_6
REMARK    3  A    between atoms: N_4  and  C_16
REMARK    4  A    between atoms: N_5  and  C_13
REMARK    5  A    between atoms: C_8  and  C_13
REMARK    6  A    between atoms: C_9  and  C_18
REMARK    7  A    between atoms: C_16  and  C_17
REMARK    8  A    between atoms: C_17  and  C_19
REMARK    9  A    between atoms: C_17  and  C_20
REMARK   10  A    between atoms: C_17  and  C_21
REMARK                            x       y       z     vdW  Elec       q    Type
REMARK                         _______ _______ _______ _____ _____    ______ ____
ROOT
ATOM      1  O   UNL     1       9.504   6.599   2.303  0.00  0.00    -0.371 OA
ATOM      6  C   UNL     1      11.012   6.061   4.057  0.00  0.00    +0.111 C 
ATOM      7  C   UNL     1      11.269   5.136   2.882  0.00  0.00    +0.164 C 
ATOM      8  C   UNL     1      10.645   5.929   1.742  0.00  0.00    +0.165 C 
ATOM     10  C   UNL     1       9.617   6.574   3.736  0.00  0.00    +0.181 C 
ENDROOT
BRANCH   7   2
ATOM      2  O   UNL     1      12.647   4.898   2.667  0.00  0.00    -0.388 OA
ATOM     24  H   UNL     1      12.859   4.008   2.996  0.00  0.00    +0.210 HD
ENDBRANCH   7   2
BRANCH   6   4
ATOM      4  N   UNL     1      11.089   5.398   5.349  0.00  0.00    -0.308 NA
ATOM     22  H   UNL     1      11.827   5.833   5.901  0.00  0.00    +0.122 HD
BRANCH   4  16
ATOM     16  C   UNL     1       9.824   5.502   6.068  0.00  0.00    +0.087 C 
BRANCH  16  17
ATOM     17  C   UNL     1       9.981   5.717   7.594  0.00  0.00    -0.025 C 
ATOM     19  C   UNL     1       9.735   4.410   8.371  0.00  0.00    +0.012 C 
ATOM     20  C   UNL     1       9.007   6.797   8.099  0.00  0.00    +0.012 C 
ATOM     21  C   UNL     1      11.422   6.186   7.871  0.00  0.00    +0.012 C 
ENDBRANCH  16  17
ENDBRANCH   4  16
ENDBRANCH   6   4
BRANCH   8  13
ATOM     13  C   UNL     1      10.209   5.061   0.575  0.00  0.00    +0.138 C 
BRANCH  13   5
ATOM      3  O   UNL     1      10.286   3.659  -1.966  0.00  0.00    -0.276 OA
ATOM      5  N   UNL     1      11.322   4.364  -0.002  0.00  0.00    -0.313 N 
ATOM     18  C   UNL     1      11.268   3.718  -1.232  0.00  0.00    +0.216 C 
ATOM     23  H   UNL     1      12.190   4.353   0.524  0.00  0.00    +0.149 HD
BRANCH  18   9
ATOM      9  C   UNL     1      12.576   3.092  -1.610  0.00  0.00    +0.075 C 
ATOM     11  C   UNL     1      13.730   3.786  -0.878  0.00  0.00    +0.013 C 
ATOM     12  C   UNL     1      12.848   3.271  -3.105  0.00  0.00    +0.013 C 
ATOM     14  C   UNL     1      14.688   4.260  -1.966  0.00  0.00    +0.001 C 
ATOM     15  C   UNL     1      13.802   4.454  -3.183  0.00  0.00    +0.001 C 
ENDBRANCH  18   9
ENDBRANCH  13   5
ENDBRANCH   8  13
TORSDOF 7
ENDMDL
MODEL 4
REMARK VINA RESULT:      -5.0     23.106     25.455
REMARK  Name = 75367072
REMARK  10 active torsions:
REMARK  status: ('A' for Active; 'I' for Inactive)
REMARK    1  A    between atoms: O_2  and  C_7
REMARK    2  A    between atoms: N_4  and  C_6
REMARK    3  A    between atoms: N_4  and  C_16
REMARK    4  A    between atoms: N_5  and  C_13
REMARK    5  A    between atoms: C_8  and  C_13
REMARK    6  A    between atoms: C_9  and  C_18
REMARK    7  A    between atoms: C_16  and  C_17
REMARK    8  A    between atoms: C_17  and  C_19
REMARK    9  A    between atoms: C_17  and  C_20
REMARK   10  A    between atoms: C_17  and  C_21
REMARK                            x       y       z     vdW  Elec       q    Type
REMARK                         _______ _______ _______ _____ _____    ______ ____
ROOT
ATOM      1  O   UNL     1      -2.282 -12.702  14.624  0.00  0.00    -0.371 OA
ATOM      6  C   UNL     1      -2.240 -11.921  12.382  0.00  0.00    +0.111 C 
ATOM      7  C   UNL     1      -2.202 -10.730  13.322  0.00  0.00    +0.164 C 
ATOM      8  C   UNL     1      -1.708 -11.384  14.605  0.00  0.00    +0.165 C 
ATOM     10  C   UNL     1      -2.755 -13.014  13.303  0.00  0.00    +0.181 C 
ENDROOT
BRANCH   7   2
ATOM      2  O   UNL     1      -1.326  -9.712  12.878  0.00  0.00    -0.388 OA
ATOM     24  H   UNL     1      -1.461  -9.586  11.924  0.00  0.00    +0.210 HD
ENDBRANCH   7   2
BRANCH   6   4
ATOM      4  N   UNL     1      -3.084 -11.717  11.216  0.00  0.00    -0.308 NA
ATOM     22  H   UNL     1      -3.369 -12.624  10.851  0.00  0.00    +0.122 HD
BRANCH   4  16
ATOM     16  C   UNL     1      -4.269 -10.938  11.556  0.00  0.00    +0.087 C 
BRANCH  16  17
ATOM     17  C   UNL     1      -4.612  -9.829  10.530  0.00  0.00    -0.025 C 
ATOM     19  C   UNL     1      -5.425 -10.391   9.350  0.00  0.00    +0.012 C 
ATOM     20  C   UNL     1      -3.333  -9.163   9.994  0.00  0.00    +0.012 C 
ATOM     21  C   UNL     1      -5.462  -8.758  11.242  0.00  0.00    +0.012 C 
ENDBRANCH  16  17
ENDBRANCH   4  16
ENDBRANCH   6   4
BRANCH   8  13
ATOM     13  C   UNL     1      -2.113 -10.630  15.859  0.00  0.00    +0.138 C 
BRANCH  13   5
ATOM      3  O   UNL     1      -4.825  -9.989  16.673  0.00  0.00    -0.276 OA
ATOM      5  N   UNL     1      -2.984 -11.417  16.683  0.00  0.00    -0.313 N 
ATOM     18  C   UNL     1      -4.275 -11.030  17.024  0.00  0.00    +0.216 C 
ATOM     23  H   UNL     1      -2.628 -12.303  17.026  0.00  0.00    +0.149 HD
BRANCH  18   9
ATOM      9  C   UNL     1      -4.976 -12.047  17.872  0.00  0.00    +0.075 C 
ATOM     11  C   UNL     1      -6.494 -11.853  17.788  0.00  0.00    +0.013 C 
ATOM     12  C   UNL     1      -4.603 -11.870  19.345  0.00  0.00    +0.013 C 
ATOM     14  C   UNL     1      -6.971 -11.672  19.225  0.00  0.00    +0.001 C 
ATOM     15  C   UNL     1      -5.766 -11.094  19.946  0.00  0.00    +0.001 C 
ENDBRANCH  18   9
ENDBRANCH  13   5
ENDBRANCH   8  13
TORSDOF 7
ENDMDL
MODEL 5
REMARK VINA RESULT:      -4.9     37.156     39.400
REMARK  Name = 75367072
REMARK  10 active torsions:
REMARK  status: ('A' for Active; 'I' for Inactive)
REMARK    1  A    between atoms: O_2  and  C_7
REMARK    2  A    between atoms: N_4  and  C_6
REMARK    3  A    between atoms: N_4  and  C_16
REMARK    4  A    between atoms: N_5  and  C_13
REMARK    5  A    between atoms: C_8  and  C_13
REMARK    6  A    between atoms: C_9  and  C_18
REMARK    7  A    between atoms: C_16  and  C_17
REMARK    8  A    between atoms: C_17  and  C_19
REMARK    9  A    between atoms: C_17  and  C_20
REMARK   10  A    between atoms: C_17  and  C_21
REMARK                            x       y       z     vdW  Elec       q    Type
REMARK                         _______ _______ _______ _____ _____    ______ ____
ROOT
ATOM      1  O   UNL     1      13.843   8.928   4.991  0.00  0.00    -0.371 OA
ATOM      6  C   UNL     1      12.492   8.082   6.753  0.00  0.00    +0.111 C 
ATOM      7  C   UNL     1      13.429   6.987   6.277  0.00  0.00    +0.164 C 
ATOM      8  C   UNL     1      14.513   7.805   5.589  0.00  0.00    +0.165 C 
ATOM     10  C   UNL     1      12.535   9.045   5.578  0.00  0.00    +0.181 C 
ENDROOT
BRANCH   7   2
ATOM      2  O   UNL     1      13.948   6.212   7.341  0.00  0.00    -0.388 OA
ATOM     24  H   UNL     1      14.856   6.509   7.521  0.00  0.00    +0.210 HD
ENDBRANCH   7   2
BRANCH   6   4
ATOM      4  N   UNL     1      11.150   7.612   7.052  0.00  0.00    -0.308 NA
ATOM     22  H   UNL     1      10.635   8.356   7.522  0.00  0.00    +0.122 HD
BRANCH   4  16
ATOM     16  C   UNL     1      10.443   7.230   5.835  0.00  0.00    +0.087 C 
BRANCH  16  17
ATOM     17  C   UNL     1       9.538   5.983   5.995  0.00  0.00    -0.025 C 
ATOM     19  C   UNL     1       8.107   6.265   5.503  0.00  0.00    +0.012 C 
ATOM     20  C   UNL     1       9.488   5.525   7.463  0.00  0.00    +0.012 C 
ATOM     21  C   UNL     1      10.130   4.843   5.143  0.00  0.00    +0.012 C 
ENDBRANCH  16  17
ENDBRANCH   4  16
ENDBRANCH   6   4
BRANCH   8  13
ATOM     13  C   UNL     1      15.266   7.029   4.522  0.00  0.00    +0.138 C 
BRANCH  13   5
ATOM      3  O   UNL     1      15.672   6.883   1.652  0.00  0.00    -0.276 OA
ATOM      5  N   UNL     1      14.370   6.486   3.543  0.00  0.00    -0.313 N 
ATOM     18  C   UNL     1      14.649   6.458   2.181  0.00  0.00    +0.216 C 
ATOM     23  H   UNL     1      13.491   6.103   3.874  0.00  0.00    +0.149 HD
BRANCH  18   9
ATOM      9  C   UNL     1      13.556   5.813   1.383  0.00  0.00    +0.075 C 
ATOM     11  C   UNL     1      12.425   5.350   2.308  0.00  0.00    +0.013 C 
ATOM     12  C   UNL     1      14.072   4.559   0.676  0.00  0.00    +0.013 C 
ATOM     14  C   UNL     1      12.249   3.859   2.036  0.00  0.00    +0.001 C 
ATOM     15  C   UNL     1      13.617   3.405   1.558  0.00  0.00    +0.001 C 
ENDBRANCH  18   9
ENDBRANCH  13   5
ENDBRANCH   8  13
TORSDOF 7
ENDMDL
MODEL 6
REMARK VINA RESULT:      -4.9      4.570      7.090
REMARK  Name = 75367072
REMARK  10 active torsions:
REMARK  status: ('A' for Active; 'I' for Inactive)
REMARK    1  A    between atoms: O_2  and  C_7
REMARK    2  A    between atoms: N_4  and  C_6
REMARK    3  A    between atoms: N_4  and  C_16
REMARK    4  A    between atoms: N_5  and  C_13
REMARK    5  A    between atoms: C_8  and  C_13
REMARK    6  A    between atoms: C_9  and  C_18
REMARK    7  A    between atoms: C_16  and  C_17
REMARK    8  A    between atoms: C_17  and  C_19
REMARK    9  A    between atoms: C_17  and  C_20
REMARK   10  A    between atoms: C_17  and  C_21
REMARK                            x       y       z     vdW  Elec       q    Type
REMARK                         _______ _______ _______ _____ _____    ______ ____
ROOT
ATOM      1  O   UNL     1     -18.160   4.652  25.497  0.00  0.00    -0.371 OA
ATOM      6  C   UNL     1     -16.123   4.577  24.277  0.00  0.00    +0.111 C 
ATOM      7  C   UNL     1     -16.185   3.382  25.210  0.00  0.00    +0.164 C 
ATOM      8  C   UNL     1     -17.681   3.296  25.479  0.00  0.00    +0.165 C 
ATOM     10  C   UNL     1     -17.163   5.496  24.897  0.00  0.00    +0.181 C 
ENDROOT
BRANCH   7   2
ATOM      2  O   UNL     1     -15.687   2.198  24.616  0.00  0.00    -0.388 OA
ATOM     24  H   UNL     1     -15.328   1.631  25.319  0.00  0.00    +0.210 HD
ENDBRANCH   7   2
BRANCH   6   4
ATOM      4  N   UNL     1     -14.806   5.185  24.194  0.00  0.00    -0.308 NA
ATOM     22  H   UNL     1     -14.201   4.761  24.897  0.00  0.00    +0.122 HD
BRANCH   4  16
ATOM     16  C   UNL     1     -14.219   4.991  22.873  0.00  0.00    +0.087 C 
BRANCH  16  17
ATOM     17  C   UNL     1     -14.302   6.237  21.956  0.00  0.00    -0.025 C 
ATOM     19  C   UNL     1     -14.622   7.507  22.766  0.00  0.00    +0.012 C 
ATOM     20  C   UNL     1     -15.372   6.047  20.867  0.00  0.00    +0.012 C 
ATOM     21  C   UNL     1     -12.933   6.426  21.273  0.00  0.00    +0.012 C 
ENDBRANCH  16  17
ENDBRANCH   4  16
ENDBRANCH   6   4
BRANCH   8  13
ATOM     13  C   UNL     1     -18.018   2.615  26.793  0.00  0.00    +0.138 C 
BRANCH  13   5
ATOM      3  O   UNL     1     -17.462   0.317  28.478  0.00  0.00    -0.276 OA
ATOM      5  N   UNL     1     -16.838   2.371  27.571  0.00  0.00    -0.313 N 
ATOM     18  C   UNL     1     -16.656   1.236  28.354  0.00  0.00    +0.216 C 
ATOM     23  H   UNL     1     -16.103   3.070  27.538  0.00  0.00    +0.149 HD
BRANCH  18   9
ATOM      9  C   UNL     1     -15.325   1.219  29.042  0.00  0.00    +0.075 C 
ATOM     11  C   UNL     1     -15.360   0.266  30.242  0.00  0.00    +0.013 C 
ATOM     12  C   UNL     1     -14.990   2.602  29.604  0.00  0.00    +0.013 C 
ATOM     14  C   UNL     1     -14.945   1.101  31.449  0.00  0.00    +0.001 C 
ATOM     15  C   UNL     1     -15.352   2.516  31.079  0.00  0.00    +0.001 C 
ENDBRANCH  18   9
ENDBRANCH  13   5
ENDBRANCH   8  13
TORSDOF 7
ENDMDL
MODEL 7
REMARK VINA RESULT:      -4.8     22.880     25.251
REMARK  Name = 75367072
REMARK  10 active torsions:
REMARK  status: ('A' for Active; 'I' for Inactive)
REMARK    1  A    between atoms: O_2  and  C_7
REMARK    2  A    between atoms: N_4  and  C_6
REMARK    3  A    between atoms: N_4  and  C_16
REMARK    4  A    between atoms: N_5  and  C_13
REMARK    5  A    between atoms: C_8  and  C_13
REMARK    6  A    between atoms: C_9  and  C_18
REMARK    7  A    between atoms: C_16  and  C_17
REMARK    8  A    between atoms: C_17  and  C_19
REMARK    9  A    between atoms: C_17  and  C_20
REMARK   10  A    between atoms: C_17  and  C_21
REMARK                            x       y       z     vdW  Elec       q    Type
REMARK                         _______ _______ _______ _____ _____    ______ ____
ROOT
ATOM      1  O   UNL     1      -2.466 -12.513  14.691  0.00  0.00    -0.371 OA
ATOM      6  C   UNL     1      -1.734 -11.098  12.929  0.00  0.00    +0.111 C 
ATOM      7  C   UNL     1      -1.966 -10.260  14.173  0.00  0.00    +0.164 C 
ATOM      8  C   UNL     1      -1.895 -11.322  15.261  0.00  0.00    +0.165 C 
ATOM     10  C   UNL     1      -2.521 -12.355  13.263  0.00  0.00    +0.181 C 
ENDROOT
BRANCH   7   2
ATOM      2  O   UNL     1      -0.982  -9.259  14.348  0.00  0.00    -0.388 OA
ATOM     24  H   UNL     1      -1.124  -8.838  15.213  0.00  0.00    +0.210 HD
ENDBRANCH   7   2
BRANCH   6   4
ATOM      4  N   UNL     1      -2.181 -10.459  11.703  0.00  0.00    -0.308 NA
ATOM     22  H   UNL     1      -2.027 -11.095  10.922  0.00  0.00    +0.122 HD
BRANCH   4  16
ATOM     16  C   UNL     1      -3.597 -10.116  11.775  0.00  0.00    +0.087 C 
BRANCH  16  17
ATOM     17  C   UNL     1      -4.302 -10.050  10.397  0.00  0.00    -0.025 C 
ATOM     19  C   UNL     1      -3.672  -8.970   9.499  0.00  0.00    +0.012 C 
ATOM     20  C   UNL     1      -5.804  -9.757  10.563  0.00  0.00    +0.012 C 
ATOM     21  C   UNL     1      -4.141 -11.417   9.705  0.00  0.00    +0.012 C 
ENDBRANCH  16  17
ENDBRANCH   4  16
ENDBRANCH   6   4
BRANCH   8  13
ATOM     13  C   UNL     1      -2.651 -10.943  16.522  0.00  0.00    +0.138 C 
BRANCH  13   5
ATOM      3  O   UNL     1      -5.333 -11.402  17.533  0.00  0.00    -0.276 OA
ATOM      5  N   UNL     1      -3.837 -10.198  16.215  0.00  0.00    -0.313 N 
ATOM     18  C   UNL     1      -5.087 -10.490  16.749  0.00  0.00    +0.216 C 
ATOM     23  H   UNL     1      -3.745  -9.415  15.575  0.00  0.00    +0.149 HD
BRANCH  18   9
ATOM      9  C   UNL     1      -6.148  -9.540  16.283  0.00  0.00    +0.075 C 
ATOM     11  C   UNL     1      -7.302  -9.497  17.291  0.00  0.00    +0.013 C 
ATOM     12  C   UNL     1      -6.753 -10.014  14.960  0.00  0.00    +0.013 C 
ATOM     14  C   UNL     1      -8.559  -9.848  16.501  0.00  0.00    +0.001 C 
ATOM     15  C   UNL     1      -8.050 -10.705  15.355  0.00  0.00    +0.001 C 
ENDBRANCH  18   9
ENDBRANCH  13   5
ENDBRANCH   8  13
TORSDOF 7
ENDMDL
MODEL 8
REMARK VINA RESULT:      -4.8     19.392     20.969
REMARK  Name = 75367072
REMARK  10 active torsions:
REMARK  status: ('A' for Active; 'I' for Inactive)
REMARK    1  A    between atoms: O_2  and  C_7
REMARK    2  A    between atoms: N_4  and  C_6
REMARK    3  A    between atoms: N_4  and  C_16
REMARK    4  A    between atoms: N_5  and  C_13
REMARK    5  A    between atoms: C_8  and  C_13
REMARK    6  A    between atoms: C_9  and  C_18
REMARK    7  A    between atoms: C_16  and  C_17
REMARK    8  A    between atoms: C_17  and  C_19
REMARK    9  A    between atoms: C_17  and  C_20
REMARK   10  A    between atoms: C_17  and  C_21
REMARK                            x       y       z     vdW  Elec       q    Type
REMARK                         _______ _______ _______ _____ _____    ______ ____
ROOT
ATOM      1  O   UNL     1     -11.956  -8.380  17.112  0.00  0.00    -0.371 OA
ATOM      6  C   UNL     1      -9.625  -7.985  16.888  0.00  0.00    +0.111 C 
ATOM      7  C   UNL     1     -10.357  -7.288  15.756  0.00  0.00    +0.164 C 
ATOM      8  C   UNL     1     -11.762  -7.189  16.331  0.00  0.00    +0.165 C 
ATOM     10  C   UNL     1     -10.673  -8.982  17.354  0.00  0.00    +0.181 C 
ENDROOT
BRANCH   7   2
ATOM      2  O   UNL     1      -9.817  -6.014  15.459  0.00  0.00    -0.388 OA
ATOM     24  H   UNL     1      -9.121  -5.818  16.109  0.00  0.00    +0.210 HD
ENDBRANCH   7   2
BRANCH   6   4
ATOM      4  N   UNL     1      -8.382  -8.618  16.478  0.00  0.00    -0.308 NA
ATOM     22  H   UNL     1      -7.736  -7.900  16.153  0.00  0.00    +0.122 HD
BRANCH   4  16
ATOM     16  C   UNL     1      -7.775  -9.349  17.584  0.00  0.00    +0.087 C 
BRANCH  16  17
ATOM     17  C   UNL     1      -6.641 -10.314  17.157  0.00  0.00    -0.025 C 
ATOM     19  C   UNL     1      -7.209 -11.598  16.526  0.00  0.00    +0.012 C 
ATOM     20  C   UNL     1      -5.757 -10.688  18.359  0.00  0.00    +0.012 C 
ATOM     21  C   UNL     1      -5.768  -9.600  16.107  0.00  0.00    +0.012 C 
ENDBRANCH  16  17
ENDBRANCH   4  16
ENDBRANCH   6   4
BRANCH   8  13
ATOM     13  C   UNL     1     -12.842  -7.092  15.267  0.00  0.00    +0.138 C 
BRANCH  13   5
ATOM      3  O   UNL     1     -14.603  -6.156  13.158  0.00  0.00    -0.276 OA
ATOM      5  N   UNL     1     -12.884  -5.782  14.685  0.00  0.00    -0.313 N 
ATOM     18  C   UNL     1     -13.766  -5.420  13.673  0.00  0.00    +0.216 C 
ATOM     23  H   UNL     1     -12.232  -5.090  15.042  0.00  0.00    +0.149 HD
BRANCH  18   9
ATOM      9  C   UNL     1     -13.617  -3.986  13.265  0.00  0.00    +0.075 C 
ATOM     11  C   UNL     1     -14.792  -3.560  12.379  0.00  0.00    +0.013 C 
ATOM     12  C   UNL     1     -12.354  -3.793  12.423  0.00  0.00    +0.013 C 
ATOM     14  C   UNL     1     -14.173  -3.038  11.087  0.00  0.00    +0.001 C 
ATOM     15  C   UNL     1     -12.850  -3.777  10.984  0.00  0.00    +0.001 C 
ENDBRANCH  18   9
ENDBRANCH  13   5
ENDBRANCH   8  13
TORSDOF 7
ENDMDL
MODEL 9
REMARK VINA RESULT:      -4.7     21.859     24.601
REMARK  Name = 75367072
REMARK  10 active torsions:
REMARK  status: ('A' for Active; 'I' for Inactive)
REMARK    1  A    between atoms: O_2  and  C_7
REMARK    2  A    between atoms: N_4  and  C_6
REMARK    3  A    between atoms: N_4  and  C_16
REMARK    4  A    between atoms: N_5  and  C_13
REMARK    5  A    between atoms: C_8  and  C_13
REMARK    6  A    between atoms: C_9  and  C_18
REMARK    7  A    between atoms: C_16  and  C_17
REMARK    8  A    between atoms: C_17  and  C_19
REMARK    9  A    between atoms: C_17  and  C_20
REMARK   10  A    between atoms: C_17  and  C_21
REMARK                            x       y       z     vdW  Elec       q    Type
REMARK                         _______ _______ _______ _____ _____    ______ ____
ROOT
ATOM      1  O   UNL     1      -3.623 -11.453  18.172  0.00  0.00    -0.371 OA
ATOM      6  C   UNL     1      -5.518 -12.886  18.187  0.00  0.00    +0.111 C 
ATOM      7  C   UNL     1      -5.498 -12.104  16.887  0.00  0.00    +0.164 C 
ATOM      8  C   UNL     1      -4.036 -11.688  16.815  0.00  0.00    +0.165 C 
ATOM     10  C   UNL     1      -4.590 -12.050  19.054  0.00  0.00    +0.181 C 
ENDROOT
BRANCH   7   2
ATOM      2  O   UNL     1      -5.879 -12.888  15.772  0.00  0.00    -0.388 OA
ATOM     24  H   UNL     1      -6.100 -13.781  16.087  0.00  0.00    +0.210 HD
ENDBRANCH   7   2
BRANCH   6   4
ATOM      4  N   UNL     1      -6.846 -13.035  18.758  0.00  0.00    -0.308 NA
ATOM     22  H   UNL     1      -6.811 -13.734  19.500  0.00  0.00    +0.122 HD
BRANCH   4  16
ATOM     16  C   UNL     1      -7.327 -11.772  19.307  0.00  0.00    +0.087 C 
BRANCH  16  17
ATOM     17  C   UNL     1      -8.642 -11.264  18.665  0.00  0.00    -0.025 C 
ATOM     19  C   UNL     1      -9.251 -12.322  17.727  0.00  0.00    +0.012 C 
ATOM     20  C   UNL     1      -8.401  -9.966  17.875  0.00  0.00    +0.012 C 
ATOM     21  C   UNL     1      -9.650 -10.974  19.794  0.00  0.00    +0.012 C 
ENDBRANCH  16  17
ENDBRANCH   4  16
ENDBRANCH   6   4
BRANCH   8  13
ATOM     13  C   UNL     1      -3.806 -10.437  15.985  0.00  0.00    +0.138 C 
BRANCH  13   5
ATOM      3  O   UNL     1      -1.504  -9.952  14.285  0.00  0.00    -0.276 OA
ATOM      5  N   UNL     1      -3.670 -10.752  14.593  0.00  0.00    -0.313 N 
ATOM     18  C   UNL     1      -2.524 -10.483  13.854  0.00  0.00    +0.216 C 
ATOM     23  H   UNL     1      -4.459 -11.199  14.135  0.00  0.00    +0.149 HD
BRANCH  18   9
ATOM      9  C   UNL     1      -2.637 -10.937  12.430  0.00  0.00    +0.075 C 
ATOM     11  C   UNL     1      -1.881  -9.977  11.504  0.00  0.00    +0.013 C 
ATOM     12  C   UNL     1      -4.096 -10.914  11.970  0.00  0.00    +0.013 C 
ATOM     14  C   UNL     1      -2.900  -9.504  10.473  0.00  0.00    +0.001 C 
ATOM     15  C   UNL     1      -4.233  -9.615  11.190  0.00  0.00    +0.001 C 
ENDBRANCH  18   9
ENDBRANCH  13   5
ENDBRANCH   8  13
TORSDOF 7
ENDMDL
MODEL 10
REMARK VINA RESULT:      -4.7     21.372     24.093
REMARK  Name = 75367072
REMARK  10 active torsions:
REMARK  status: ('A' for Active; 'I' for Inactive)
REMARK    1  A    between atoms: O_2  and  C_7
REMARK    2  A    between atoms: N_4  and  C_6
REMARK    3  A    between atoms: N_4  and  C_16
REMARK    4  A    between atoms: N_5  and  C_13
REMARK    5  A    between atoms: C_8  and  C_13
REMARK    6  A    between atoms: C_9  and  C_18
REMARK    7  A    between atoms: C_16  and  C_17
REMARK    8  A    between atoms: C_17  and  C_19
REMARK    9  A    between atoms: C_17  and  C_20
REMARK   10  A    between atoms: C_17  and  C_21
REMARK                            x       y       z     vdW  Elec       q    Type
REMARK                         _______ _______ _______ _____ _____    ______ ____
ROOT
ATOM      1  O   UNL     1      -5.234  -9.889  15.323  0.00  0.00    -0.371 OA
ATOM      6  C   UNL     1      -6.812 -10.193  17.073  0.00  0.00    +0.111 C 
ATOM      7  C   UNL     1      -5.510 -10.871  17.457  0.00  0.00    +0.164 C 
ATOM      8  C   UNL     1      -4.525 -10.153  16.546  0.00  0.00    +0.165 C 
ATOM     10  C   UNL     1      -6.642 -10.048  15.569  0.00  0.00    +0.181 C 
ENDROOT
BRANCH   7   2
ATOM      2  O   UNL     1      -5.187 -10.697  18.824  0.00  0.00    -0.388 OA
ATOM     24  H   UNL     1      -6.009 -10.528  19.314  0.00  0.00    +0.210 HD
ENDBRANCH   7   2
BRANCH   6   4
ATOM      4  N   UNL     1      -7.995 -10.954  17.439  0.00  0.00    -0.308 NA
ATOM     22  H   UNL     1      -7.705 -11.826  17.879  0.00  0.00    +0.122 HD
BRANCH   4  16
ATOM     16  C   UNL     1      -8.838 -10.204  18.363  0.00  0.00    +0.087 C 
BRANCH  16  17
ATOM     17  C   UNL     1     -10.089  -9.569  17.705  0.00  0.00    -0.025 C 
ATOM     19  C   UNL     1      -9.845  -8.092  17.350  0.00  0.00    +0.012 C 
ATOM     20  C   UNL     1     -11.310  -9.672  18.636  0.00  0.00    +0.012 C 
ATOM     21  C   UNL     1     -10.395 -10.340  16.406  0.00  0.00    +0.012 C 
ENDBRANCH  16  17
ENDBRANCH   4  16
ENDBRANCH   6   4
BRANCH   8  13
ATOM     13  C   UNL     1      -3.277 -10.966  16.250  0.00  0.00    +0.138 C 
BRANCH  13   5
ATOM      3  O   UNL     1      -1.318  -9.767  14.475  0.00  0.00    -0.276 OA
ATOM      5  N   UNL     1      -3.123 -11.192  14.842  0.00  0.00    -0.313 N 
ATOM     18  C   UNL     1      -2.151 -10.571  14.066  0.00  0.00    +0.216 C 
ATOM     23  H   UNL     1      -3.763 -11.846  14.401  0.00  0.00    +0.149 HD
BRANCH  18   9
ATOM      9  C   UNL     1      -2.195 -11.004  12.632  0.00  0.00    +0.075 C 
ATOM     11  C   UNL     1      -1.590  -9.922  11.731  0.00  0.00    +0.013 C 
ATOM     12  C   UNL     1      -3.641 -11.188  12.168  0.00  0.00    +0.013 C 
ATOM     14  C   UNL     1      -2.667  -9.582  10.707  0.00  0.00    +0.001 C 
ATOM     15  C   UNL     1      -3.970  -9.906  11.417  0.00  0.00    +0.001 C 
ENDBRANCH  18   9
ENDBRANCH  13   5
ENDBRANCH   8  13
TORSDOF 7
ENDMDL
