MODEL 1
REMARK VINA RESULT:      -7.6      0.000      0.000
REMARK  Name = 40778249
REMARK  9 active torsions:
REMARK  status: ('A' for Active; 'I' for Inactive)
REMARK    1  A    between atoms: O_2  and  C_10
REMARK    2  A    between atoms: O_3  and  C_11
REMARK    3  A    between atoms: N_6  and  C_15
REMARK    4  A    between atoms: N_7  and  C_18
REMARK    5  A    between atoms: N_8  and  C_20
REMARK    6  A    between atoms: C_12  and  C_14
REMARK    7  A    between atoms: C_13  and  C_15
REMARK    8  A    between atoms: C_14  and  C_16
REMARK    9  A    between atoms: C_18  and  C_19
REMARK                            x       y       z     vdW  Elec       q    Type
REMARK                         _______ _______ _______ _____ _____    ______ ____
ROOT
ATOM      1  O   UNL     1      11.615   8.654  20.177  0.00  0.00    -0.366 OA
ATOM     10  C   UNL     1      11.849   6.716  21.499  0.00  0.00    +0.175 C 
ATOM     11  C   UNL     1      11.014   7.714  22.277  0.00  0.00    +0.176 C 
ATOM     12  C   UNL     1      11.677   7.220  20.077  0.00  0.00    +0.158 C 
ATOM     13  C   UNL     1      11.310   9.016  21.543  0.00  0.00    +0.167 C 
ENDROOT
BRANCH  10   2
ATOM      2  O   UNL     1      11.408   5.384  21.646  0.00  0.00    -0.387 OA
ATOM     30  H   UNL     1      11.029   5.106  20.794  0.00  0.00    +0.210 HD
ENDBRANCH  10   2
BRANCH  11   3
ATOM      3  O   UNL     1       9.625   7.424  22.122  0.00  0.00    -0.387 OA
ATOM     31  H   UNL     1       9.311   7.916  21.345  0.00  0.00    +0.210 HD
ENDBRANCH  11   3
BRANCH  12  14
ATOM     14  C   UNL     1      12.816   6.821  19.156  0.00  0.00    +0.130 C 
BRANCH  14  16
ATOM      4  O   UNL     1      11.671   7.408  17.107  0.00  0.00    -0.276 OA
ATOM      7  N   UNL     1      13.884   8.056  17.394  0.00  0.00    -0.311 N 
ATOM     16  C   UNL     1      12.699   7.448  17.778  0.00  0.00    +0.216 C 
ATOM     33  H   UNL     1      14.685   8.004  18.018  0.00  0.00    +0.149 HD
BRANCH   7  18
ATOM     18  C   UNL     1      14.052   8.729  16.126  0.00  0.00    +0.141 C 
BRANCH  18  19
ATOM      9  N   UNL     1      14.231  12.420  15.323  0.00  0.00    -0.263 NA
ATOM     19  C   UNL     1      14.256  10.206  16.296  0.00  0.00    -0.012 A 
ATOM     21  C   UNL     1      14.647  10.740  17.519  0.00  0.00    +0.008 A 
ATOM     22  C   UNL     1      14.063  11.081  15.239  0.00  0.00    +0.115 A 
ATOM     25  C   UNL     1      14.829  12.113  17.646  0.00  0.00    +0.020 A 
ATOM     28  C   UNL     1      14.611  12.902  16.528  0.00  0.00    +0.111 A 
ENDBRANCH  18  19
ENDBRANCH   7  18
ENDBRANCH  14  16
ENDBRANCH  12  14
BRANCH  13  15
ATOM     15  C   UNL     1      12.514   9.758  22.108  0.00  0.00    +0.140 C 
BRANCH  15   6
ATOM      5  O   UNL     1      14.681   7.950  22.599  0.00  0.00    -0.253 OA
ATOM      6  N   UNL     1      13.673   9.567  21.286  0.00  0.00    -0.297 N 
ATOM      8  N   UNL     1      15.695   8.687  20.615  0.00  0.00    -0.269 N 
ATOM     17  C   UNL     1      14.698   8.657  21.594  0.00  0.00    +0.304 C 
ATOM     32  H   UNL     1      13.749  10.109  20.432  0.00  0.00    +0.150 HD
ATOM     34  H   UNL     1      15.556   9.333  19.842  0.00  0.00    +0.156 HD
BRANCH   8  20
ATOM     20  C   UNL     1      16.885   7.924  20.563  0.00  0.00    +0.035 A 
ATOM     23  C   UNL     1      16.932   6.756  19.803  0.00  0.00    +0.023 A 
ATOM     24  C   UNL     1      18.013   8.341  21.271  0.00  0.00    +0.023 A 
ATOM     26  C   UNL     1      18.106   6.004  19.751  0.00  0.00    +0.002 A 
ATOM     27  C   UNL     1      19.186   7.589  21.219  0.00  0.00    +0.002 A 
ATOM     29  C   UNL     1      19.233   6.420  20.460  0.00  0.00    +0.000 A 
ENDBRANCH   8  20
ENDBRANCH  15   6
ENDBRANCH  13  15
TORSDOF 9
ENDMDL
MODEL 2
REMARK VINA RESULT:      -6.9      3.289      5.482
REMARK  Name = 40778249
REMARK  9 active torsions:
REMARK  status: ('A' for Active; 'I' for Inactive)
REMARK    1  A    between atoms: O_2  and  C_10
REMARK    2  A    between atoms: O_3  and  C_11
REMARK    3  A    between atoms: N_6  and  C_15
REMARK    4  A    between atoms: N_7  and  C_18
REMARK    5  A    between atoms: N_8  and  C_20
REMARK    6  A    between atoms: C_12  and  C_14
REMARK    7  A    between atoms: C_13  and  C_15
REMARK    8  A    between atoms: C_14  and  C_16
REMARK    9  A    between atoms: C_18  and  C_19
REMARK                            x       y       z     vdW  Elec       q    Type
REMARK                         _______ _______ _______ _____ _____    ______ ____
ROOT
ATOM      1  O   UNL     1      12.373   7.421  22.078  0.00  0.00    -0.366 OA
ATOM     10  C   UNL     1      11.659   8.392  20.051  0.00  0.00    +0.175 C 
ATOM     11  C   UNL     1      12.664   7.307  19.719  0.00  0.00    +0.176 C 
ATOM     12  C   UNL     1      11.208   7.975  21.440  0.00  0.00    +0.158 C 
ATOM     13  C   UNL     1      13.348   7.088  21.064  0.00  0.00    +0.167 C 
ENDROOT
BRANCH  10   2
ATOM      2  O   UNL     1      10.582   8.454  19.141  0.00  0.00    -0.387 OA
ATOM     30  H   UNL     1       9.973   9.144  19.456  0.00  0.00    +0.210 HD
ENDBRANCH  10   2
BRANCH  11   3
ATOM      3  O   UNL     1      11.989   6.101  19.364  0.00  0.00    -0.387 OA
ATOM     31  H   UNL     1      12.662   5.474  19.047  0.00  0.00    +0.210 HD
ENDBRANCH  11   3
BRANCH  12  14
ATOM     14  C   UNL     1      10.671   9.127  22.270  0.00  0.00    +0.130 C 
BRANCH  14  16
ATOM      4  O   UNL     1      11.289  11.347  21.534  0.00  0.00    -0.276 OA
ATOM      7  N   UNL     1      12.692  10.205  22.993  0.00  0.00    -0.311 N 
ATOM     16  C   UNL     1      11.560  10.356  22.207  0.00  0.00    +0.216 C 
ATOM     33  H   UNL     1      12.831   9.327  23.487  0.00  0.00    +0.149 HD
BRANCH   7  18
ATOM     18  C   UNL     1      13.711  11.223  23.115  0.00  0.00    +0.141 C 
BRANCH  18  19
ATOM      9  N   UNL     1      13.856  12.529  26.660  0.00  0.00    -0.263 NA
ATOM     19  C   UNL     1      13.486  12.104  24.309  0.00  0.00    -0.012 A 
ATOM     21  C   UNL     1      12.733  13.268  24.209  0.00  0.00    +0.008 A 
ATOM     22  C   UNL     1      14.021  11.781  25.546  0.00  0.00    +0.115 A 
ATOM     25  C   UNL     1      12.541  14.064  25.333  0.00  0.00    +0.020 A 
ATOM     28  C   UNL     1      13.118  13.654  26.524  0.00  0.00    +0.111 A 
ENDBRANCH  18  19
ENDBRANCH   7  18
ENDBRANCH  14  16
ENDBRANCH  12  14
BRANCH  13  15
ATOM     15  C   UNL     1      14.560   7.987  21.269  0.00  0.00    +0.140 C 
BRANCH  15   6
ATOM      5  O   UNL     1      17.308   8.569  20.709  0.00  0.00    -0.253 OA
ATOM      6  N   UNL     1      15.700   7.230  21.696  0.00  0.00    -0.297 N 
ATOM      8  N   UNL     1      17.921   6.660  21.930  0.00  0.00    -0.269 N 
ATOM     17  C   UNL     1      17.024   7.580  21.381  0.00  0.00    +0.304 C 
ATOM     32  H   UNL     1      15.541   6.405  22.265  0.00  0.00    +0.150 HD
ATOM     34  H   UNL     1      17.519   5.893  22.463  0.00  0.00    +0.156 HD
BRANCH   8  20
ATOM     20  C   UNL     1      19.333   6.662  21.839  0.00  0.00    +0.035 A 
ATOM     23  C   UNL     1      19.957   6.189  20.685  0.00  0.00    +0.023 A 
ATOM     24  C   UNL     1      20.101   7.138  22.902  0.00  0.00    +0.023 A 
ATOM     26  C   UNL     1      21.350   6.192  20.595  0.00  0.00    +0.002 A 
ATOM     27  C   UNL     1      21.492   7.140  22.812  0.00  0.00    +0.002 A 
ATOM     29  C   UNL     1      22.117   6.667  21.658  0.00  0.00    +0.000 A 
ENDBRANCH   8  20
ENDBRANCH  15   6
ENDBRANCH  13  15
TORSDOF 9
ENDMDL
MODEL 3
REMARK VINA RESULT:      -6.8     26.000     28.481
REMARK  Name = 40778249
REMARK  9 active torsions:
REMARK  status: ('A' for Active; 'I' for Inactive)
REMARK    1  A    between atoms: O_2  and  C_10
REMARK    2  A    between atoms: O_3  and  C_11
REMARK    3  A    between atoms: N_6  and  C_15
REMARK    4  A    between atoms: N_7  and  C_18
REMARK    5  A    between atoms: N_8  and  C_20
REMARK    6  A    between atoms: C_12  and  C_14
REMARK    7  A    between atoms: C_13  and  C_15
REMARK    8  A    between atoms: C_14  and  C_16
REMARK    9  A    between atoms: C_18  and  C_19
REMARK                            x       y       z     vdW  Elec       q    Type
REMARK                         _______ _______ _______ _____ _____    ______ ____
ROOT
ATOM      1  O   UNL     1      -5.485 -10.973  16.601  0.00  0.00    -0.366 OA
ATOM     10  C   UNL     1      -4.374 -11.679  18.558  0.00  0.00    +0.175 C 
ATOM     11  C   UNL     1      -5.804 -12.177  18.628  0.00  0.00    +0.176 C 
ATOM     12  C   UNL     1      -4.207 -11.443  17.067  0.00  0.00    +0.158 C 
ATOM     13  C   UNL     1      -6.493 -11.310  17.581  0.00  0.00    +0.167 C 
ENDROOT
BRANCH  10   2
ATOM      2  O   UNL     1      -3.434 -12.606  19.056  0.00  0.00    -0.387 OA
ATOM     30  H   UNL     1      -3.931 -13.317  19.496  0.00  0.00    +0.210 HD
ENDBRANCH  10   2
BRANCH  11   3
ATOM      3  O   UNL     1      -5.876 -13.535  18.195  0.00  0.00    -0.387 OA
ATOM     31  H   UNL     1      -6.360 -14.032  18.877  0.00  0.00    +0.210 HD
ENDBRANCH  11   3
BRANCH  12  14
ATOM     14  C   UNL     1      -3.135 -10.421  16.736  0.00  0.00    +0.130 C 
BRANCH  14  16
ATOM      4  O   UNL     1      -1.187 -11.194  15.527  0.00  0.00    -0.276 OA
ATOM      7  N   UNL     1      -3.095 -10.598  14.340  0.00  0.00    -0.311 N 
ATOM     16  C   UNL     1      -2.346 -10.786  15.492  0.00  0.00    +0.216 C 
ATOM     33  H   UNL     1      -4.037 -10.227  14.425  0.00  0.00    +0.149 HD
BRANCH   7  18
ATOM     18  C   UNL     1      -2.587 -10.867  13.014  0.00  0.00    +0.141 C 
BRANCH  18  19
ATOM      9  N   UNL     1      -5.492  -9.241  11.221  0.00  0.00    -0.263 NA
ATOM     19  C   UNL     1      -3.378 -10.158  11.954  0.00  0.00    -0.012 A 
ATOM     21  C   UNL     1      -2.785  -9.767  10.759  0.00  0.00    +0.008 A 
ATOM     22  C   UNL     1      -4.722  -9.874  12.135  0.00  0.00    +0.115 A 
ATOM     25  C   UNL     1      -3.544  -9.113   9.794  0.00  0.00    +0.020 A 
ATOM     28  C   UNL     1      -4.881  -8.876  10.071  0.00  0.00    +0.111 A 
ENDBRANCH  18  19
ENDBRANCH   7  18
ENDBRANCH  14  16
ENDBRANCH  12  14
BRANCH  13  15
ATOM     15  C   UNL     1      -7.041 -10.008  18.152  0.00  0.00    +0.140 C 
BRANCH  15   6
ATOM      5  O   UNL     1      -9.796  -9.376  17.688  0.00  0.00    -0.253 OA
ATOM      6  N   UNL     1      -7.564  -9.167  17.116  0.00  0.00    -0.297 N 
ATOM      8  N   UNL     1      -9.144  -8.053  15.863  0.00  0.00    -0.269 N 
ATOM     17  C   UNL     1      -8.933  -8.903  16.952  0.00  0.00    +0.304 C 
ATOM     32  H   UNL     1      -6.907  -8.731  16.477  0.00  0.00    +0.150 HD
ATOM     34  H   UNL     1      -8.317  -7.749  15.354  0.00  0.00    +0.156 HD
BRANCH   8  20
ATOM     20  C   UNL     1     -10.375  -7.556  15.373  0.00  0.00    +0.035 A 
ATOM     23  C   UNL     1     -11.198  -8.373  14.599  0.00  0.00    +0.023 A 
ATOM     24  C   UNL     1     -10.765  -6.248  15.665  0.00  0.00    +0.023 A 
ATOM     26  C   UNL     1     -12.413  -7.883  14.117  0.00  0.00    +0.002 A 
ATOM     27  C   UNL     1     -11.979  -5.759  15.183  0.00  0.00    +0.002 A 
ATOM     29  C   UNL     1     -12.802  -6.576  14.408  0.00  0.00    +0.000 A 
ENDBRANCH   8  20
ENDBRANCH  15   6
ENDBRANCH  13  15
TORSDOF 9
ENDMDL
MODEL 4
REMARK VINA RESULT:      -6.8     27.919     31.688
REMARK  Name = 40778249
REMARK  9 active torsions:
REMARK  status: ('A' for Active; 'I' for Inactive)
REMARK    1  A    between atoms: O_2  and  C_10
REMARK    2  A    between atoms: O_3  and  C_11
REMARK    3  A    between atoms: N_6  and  C_15
REMARK    4  A    between atoms: N_7  and  C_18
REMARK    5  A    between atoms: N_8  and  C_20
REMARK    6  A    between atoms: C_12  and  C_14
REMARK    7  A    between atoms: C_13  and  C_15
REMARK    8  A    between atoms: C_14  and  C_16
REMARK    9  A    between atoms: C_18  and  C_19
REMARK                            x       y       z     vdW  Elec       q    Type
REMARK                         _______ _______ _______ _____ _____    ______ ____
ROOT
ATOM      1  O   UNL     1     -16.352   1.770  26.347  0.00  0.00    -0.366 OA
ATOM     10  C   UNL     1     -18.423   0.645  26.267  0.00  0.00    +0.175 C 
ATOM     11  C   UNL     1     -17.931   0.818  24.844  0.00  0.00    +0.176 C 
ATOM     12  C   UNL     1     -17.132   0.790  27.055  0.00  0.00    +0.158 C 
ATOM     13  C   UNL     1     -16.872   1.902  25.005  0.00  0.00    +0.167 C 
ENDROOT
BRANCH  10   2
ATOM      2  O   UNL     1     -19.046  -0.600  26.496  0.00  0.00    -0.387 OA
ATOM     30  H   UNL     1     -18.415  -1.294  26.238  0.00  0.00    +0.210 HD
ENDBRANCH  10   2
BRANCH  11   3
ATOM      3  O   UNL     1     -17.282  -0.372  24.397  0.00  0.00    -0.387 OA
ATOM     31  H   UNL     1     -17.119  -0.273  23.444  0.00  0.00    +0.210 HD
ENDBRANCH  11   3
BRANCH  12  14
ATOM     14  C   UNL     1     -17.349   1.245  28.487  0.00  0.00    +0.130 C 
BRANCH  14  16
ATOM      4  O   UNL     1     -16.151  -0.159  30.051  0.00  0.00    -0.276 OA
ATOM      7  N   UNL     1     -15.207   1.858  29.385  0.00  0.00    -0.311 N 
ATOM     16  C   UNL     1     -16.190   0.880  29.396  0.00  0.00    +0.216 C 
ATOM     33  H   UNL     1     -15.355   2.694  28.827  0.00  0.00    +0.149 HD
BRANCH   7  18
ATOM     18  C   UNL     1     -13.993   1.766  30.164  0.00  0.00    +0.141 C 
BRANCH  18  19
ATOM      9  N   UNL     1     -14.690   2.324  33.838  0.00  0.00    -0.263 NA
ATOM     19  C   UNL     1     -14.123   2.454  31.491  0.00  0.00    -0.012 A 
ATOM     21  C   UNL     1     -13.820   3.804  31.631  0.00  0.00    +0.008 A 
ATOM     22  C   UNL     1     -14.550   1.765  32.615  0.00  0.00    +0.115 A 
ATOM     25  C   UNL     1     -13.951   4.415  32.874  0.00  0.00    +0.020 A 
ATOM     28  C   UNL     1     -14.386   3.638  33.936  0.00  0.00    +0.111 A 
ENDBRANCH  18  19
ENDBRANCH   7  18
ENDBRANCH  14  16
ENDBRANCH  12  14
BRANCH  13  15
ATOM     15  C   UNL     1     -17.434   3.310  24.859  0.00  0.00    +0.140 C 
BRANCH  15   6
ATOM      5  O   UNL     1     -16.331   4.191  22.367  0.00  0.00    -0.253 OA
ATOM      6  N   UNL     1     -16.385   4.271  24.678  0.00  0.00    -0.297 N 
ATOM      8  N   UNL     1     -14.878   5.603  23.553  0.00  0.00    -0.269 N 
ATOM     17  C   UNL     1     -15.895   4.654  23.419  0.00  0.00    +0.304 C 
ATOM     32  H   UNL     1     -15.986   4.704  25.504  0.00  0.00    +0.150 HD
ATOM     34  H   UNL     1     -14.636   5.881  24.501  0.00  0.00    +0.156 HD
BRANCH   8  20
ATOM     20  C   UNL     1     -14.136   6.232  22.527  0.00  0.00    +0.035 A 
ATOM     23  C   UNL     1     -12.956   5.651  22.063  0.00  0.00    +0.023 A 
ATOM     24  C   UNL     1     -14.583   7.435  21.978  0.00  0.00    +0.023 A 
ATOM     26  C   UNL     1     -12.224   6.272  21.050  0.00  0.00    +0.002 A 
ATOM     27  C   UNL     1     -13.852   8.055  20.966  0.00  0.00    +0.002 A 
ATOM     29  C   UNL     1     -12.672   7.474  20.502  0.00  0.00    +0.000 A 
ENDBRANCH   8  20
ENDBRANCH  15   6
ENDBRANCH  13  15
TORSDOF 9
ENDMDL
MODEL 5
REMARK VINA RESULT:      -6.7     27.493     30.672
REMARK  Name = 40778249
REMARK  9 active torsions:
REMARK  status: ('A' for Active; 'I' for Inactive)
REMARK    1  A    between atoms: O_2  and  C_10
REMARK    2  A    between atoms: O_3  and  C_11
REMARK    3  A    between atoms: N_6  and  C_15
REMARK    4  A    between atoms: N_7  and  C_18
REMARK    5  A    between atoms: N_8  and  C_20
REMARK    6  A    between atoms: C_12  and  C_14
REMARK    7  A    between atoms: C_13  and  C_15
REMARK    8  A    between atoms: C_14  and  C_16
REMARK    9  A    between atoms: C_18  and  C_19
REMARK                            x       y       z     vdW  Elec       q    Type
REMARK                         _______ _______ _______ _____ _____    ______ ____
ROOT
ATOM      1  O   UNL     1      -5.875 -10.513  18.387  0.00  0.00    -0.366 OA
ATOM     10  C   UNL     1      -5.259 -12.700  17.754  0.00  0.00    +0.175 C 
ATOM     11  C   UNL     1      -4.434 -11.728  16.935  0.00  0.00    +0.176 C 
ATOM     12  C   UNL     1      -5.675 -11.831  18.929  0.00  0.00    +0.158 C 
ATOM     13  C   UNL     1      -5.215 -10.429  17.104  0.00  0.00    +0.167 C 
ENDROOT
BRANCH  10   2
ATOM      2  O   UNL     1      -4.535 -13.838  18.166  0.00  0.00    -0.387 OA
ATOM     30  H   UNL     1      -3.704 -13.855  17.660  0.00  0.00    +0.210 HD
ENDBRANCH  10   2
BRANCH  11   3
ATOM      3  O   UNL     1      -3.147 -11.551  17.525  0.00  0.00    -0.387 OA
ATOM     31  H   UNL     1      -2.565 -12.241  17.165  0.00  0.00    +0.210 HD
ENDBRANCH  11   3
BRANCH  12  14
ATOM     14  C   UNL     1      -6.948 -12.304  19.606  0.00  0.00    +0.130 C 
BRANCH  14  16
ATOM      4  O   UNL     1      -8.580 -12.328  17.820  0.00  0.00    -0.276 OA
ATOM      7  N   UNL     1      -8.837 -10.820  19.570  0.00  0.00    -0.311 N 
ATOM     16  C   UNL     1      -8.200 -11.842  18.882  0.00  0.00    +0.216 C 
ATOM     33  H   UNL     1      -8.418 -10.473  20.429  0.00  0.00    +0.149 HD
BRANCH   7  18
ATOM     18  C   UNL     1     -10.052 -10.192  19.104  0.00  0.00    +0.141 C 
BRANCH  18  19
ATOM      9  N   UNL     1     -12.379 -12.423  21.080  0.00  0.00    -0.263 NA
ATOM     19  C   UNL     1     -11.255 -10.656  19.872  0.00  0.00    -0.012 A 
ATOM     21  C   UNL     1     -12.335  -9.808  20.091  0.00  0.00    +0.008 A 
ATOM     22  C   UNL     1     -11.325 -11.942  20.382  0.00  0.00    +0.115 A 
ATOM     25  C   UNL     1     -13.437 -10.266  20.805  0.00  0.00    +0.020 A 
ATOM     28  C   UNL     1     -13.410 -11.570  21.274  0.00  0.00    +0.111 A 
ENDBRANCH  18  19
ENDBRANCH   7  18
ENDBRANCH  14  16
ENDBRANCH  12  14
BRANCH  13  15
ATOM     15  C   UNL     1      -6.287 -10.235  16.040  0.00  0.00    +0.140 C 
BRANCH  15   6
ATOM      5  O   UNL     1      -8.978  -9.895  15.119  0.00  0.00    -0.253 OA
ATOM      6  N   UNL     1      -7.189  -9.180  16.399  0.00  0.00    -0.297 N 
ATOM      8  N   UNL     1      -9.139  -7.953  16.427  0.00  0.00    -0.269 N 
ATOM     17  C   UNL     1      -8.499  -9.080  15.904  0.00  0.00    +0.304 C 
ATOM     32  H   UNL     1      -6.865  -8.477  17.055  0.00  0.00    +0.150 HD
ATOM     34  H   UNL     1      -8.599  -7.378  17.069  0.00  0.00    +0.156 HD
BRANCH   8  20
ATOM     20  C   UNL     1     -10.457  -7.507  16.174  0.00  0.00    +0.035 A 
ATOM     23  C   UNL     1     -11.544  -8.301  16.538  0.00  0.00    +0.023 A 
ATOM     24  C   UNL     1     -10.670  -6.271  15.560  0.00  0.00    +0.023 A 
ATOM     26  C   UNL     1     -12.845  -7.859  16.289  0.00  0.00    +0.002 A 
ATOM     27  C   UNL     1     -11.969  -5.831  15.311  0.00  0.00    +0.002 A 
ATOM     29  C   UNL     1     -13.057  -6.625  15.675  0.00  0.00    +0.000 A 
ENDBRANCH   8  20
ENDBRANCH  15   6
ENDBRANCH  13  15
TORSDOF 9
ENDMDL
MODEL 6
REMARK VINA RESULT:      -6.6     27.498     30.236
REMARK  Name = 40778249
REMARK  9 active torsions:
REMARK  status: ('A' for Active; 'I' for Inactive)
REMARK    1  A    between atoms: O_2  and  C_10
REMARK    2  A    between atoms: O_3  and  C_11
REMARK    3  A    between atoms: N_6  and  C_15
REMARK    4  A    between atoms: N_7  and  C_18
REMARK    5  A    between atoms: N_8  and  C_20
REMARK    6  A    between atoms: C_12  and  C_14
REMARK    7  A    between atoms: C_13  and  C_15
REMARK    8  A    between atoms: C_14  and  C_16
REMARK    9  A    between atoms: C_18  and  C_19
REMARK                            x       y       z     vdW  Elec       q    Type
REMARK                         _______ _______ _______ _____ _____    ______ ____
ROOT
ATOM      1  O   UNL     1      -6.607 -11.628  17.415  0.00  0.00    -0.366 OA
ATOM     10  C   UNL     1      -4.294 -11.353  17.783  0.00  0.00    +0.175 C 
ATOM     11  C   UNL     1      -4.769 -12.506  18.644  0.00  0.00    +0.176 C 
ATOM     12  C   UNL     1      -5.388 -11.288  16.730  0.00  0.00    +0.158 C 
ATOM     13  C   UNL     1      -6.278 -12.291  18.657  0.00  0.00    +0.167 C 
ENDROOT
BRANCH  10   2
ATOM      2  O   UNL     1      -3.022 -11.568  17.212  0.00  0.00    -0.387 OA
ATOM     30  H   UNL     1      -2.623 -12.331  17.667  0.00  0.00    +0.210 HD
ENDBRANCH  10   2
BRANCH  11   3
ATOM      3  O   UNL     1      -4.505 -13.749  17.995  0.00  0.00    -0.387 OA
ATOM     31  H   UNL     1      -4.566 -14.447  18.669  0.00  0.00    +0.210 HD
ENDBRANCH  11   3
BRANCH  12  14
ATOM     14  C   UNL     1      -5.526  -9.919  16.089  0.00  0.00    +0.130 C 
BRANCH  14  16
ATOM      4  O   UNL     1      -6.250 -10.171  13.795  0.00  0.00    -0.276 OA
ATOM      7  N   UNL     1      -7.802  -9.557  15.412  0.00  0.00    -0.311 N 
ATOM     16  C   UNL     1      -6.539  -9.905  14.959  0.00  0.00    +0.216 C 
ATOM     33  H   UNL     1      -7.923  -9.328  16.395  0.00  0.00    +0.149 HD
BRANCH   7  18
ATOM     18  C   UNL     1      -8.955  -9.464  14.545  0.00  0.00    +0.141 C 
BRANCH  18  19
ATOM      9  N   UNL     1     -12.231  -7.617  14.937  0.00  0.00    -0.263 NA
ATOM     19  C   UNL     1     -10.006  -8.550  15.103  0.00  0.00    -0.012 A 
ATOM     21  C   UNL     1      -9.770  -7.804  16.252  0.00  0.00    +0.008 A 
ATOM     22  C   UNL     1     -11.242  -8.423  14.488  0.00  0.00    +0.115 A 
ATOM     25  C   UNL     1     -10.764  -6.964  16.745  0.00  0.00    +0.020 A 
ATOM     28  C   UNL     1     -11.965  -6.907  16.057  0.00  0.00    +0.111 A 
ENDBRANCH  18  19
ENDBRANCH   7  18
ENDBRANCH  14  16
ENDBRANCH  12  14
BRANCH  13  15
ATOM     15  C   UNL     1      -6.743 -11.398  19.799  0.00  0.00    +0.140 C 
BRANCH  15   6
ATOM      5  O   UNL     1      -9.517 -11.924  20.278  0.00  0.00    -0.253 OA
ATOM      6  N   UNL     1      -7.851 -10.581  19.401  0.00  0.00    -0.297 N 
ATOM      8  N   UNL     1     -10.049  -9.927  19.166  0.00  0.00    -0.269 N 
ATOM     17  C   UNL     1      -9.190 -10.906  19.673  0.00  0.00    +0.304 C 
ATOM     32  H   UNL     1      -7.655  -9.717  18.907  0.00  0.00    +0.150 HD
ATOM     34  H   UNL     1      -9.613  -9.142  18.688  0.00  0.00    +0.156 HD
BRANCH   8  20
ATOM     20  C   UNL     1     -11.461  -9.890  19.234  0.00  0.00    +0.035 A 
ATOM     23  C   UNL     1     -12.096  -9.732  20.466  0.00  0.00    +0.023 A 
ATOM     24  C   UNL     1     -12.220 -10.011  18.069  0.00  0.00    +0.023 A 
ATOM     26  C   UNL     1     -13.489  -9.694  20.533  0.00  0.00    +0.002 A 
ATOM     27  C   UNL     1     -13.612  -9.974  18.137  0.00  0.00    +0.002 A 
ATOM     29  C   UNL     1     -14.247  -9.816  19.368  0.00  0.00    +0.000 A 
ENDBRANCH   8  20
ENDBRANCH  15   6
ENDBRANCH  13  15
TORSDOF 9
ENDMDL
MODEL 7
REMARK VINA RESULT:      -6.5     14.029     17.747
REMARK  Name = 40778249
REMARK  9 active torsions:
REMARK  status: ('A' for Active; 'I' for Inactive)
REMARK    1  A    between atoms: O_2  and  C_10
REMARK    2  A    between atoms: O_3  and  C_11
REMARK    3  A    between atoms: N_6  and  C_15
REMARK    4  A    between atoms: N_7  and  C_18
REMARK    5  A    between atoms: N_8  and  C_20
REMARK    6  A    between atoms: C_12  and  C_14
REMARK    7  A    between atoms: C_13  and  C_15
REMARK    8  A    between atoms: C_14  and  C_16
REMARK    9  A    between atoms: C_18  and  C_19
REMARK                            x       y       z     vdW  Elec       q    Type
REMARK                         _______ _______ _______ _____ _____    ______ ____
ROOT
ATOM      1  O   UNL     1       9.399   5.846   5.920  0.00  0.00    -0.366 OA
ATOM     10  C   UNL     1      11.541   6.649   6.493  0.00  0.00    +0.175 C 
ATOM     11  C   UNL     1      10.841   6.234   7.772  0.00  0.00    +0.176 C 
ATOM     12  C   UNL     1      10.759   5.867   5.451  0.00  0.00    +0.158 C 
ATOM     13  C   UNL     1       9.384   6.170   7.329  0.00  0.00    +0.167 C 
ENDROOT
BRANCH  10   2
ATOM      2  O   UNL     1      12.914   6.325   6.477  0.00  0.00    -0.387 OA
ATOM     30  H   UNL     1      13.225   6.326   7.399  0.00  0.00    +0.210 HD
ENDBRANCH  10   2
BRANCH  11   3
ATOM      3  O   UNL     1      11.246   4.920   8.153  0.00  0.00    -0.387 OA
ATOM     31  H   UNL     1      10.447   4.366   8.180  0.00  0.00    +0.210 HD
ENDBRANCH  11   3
BRANCH  12  14
ATOM     14  C   UNL     1      10.813   6.488   4.067  0.00  0.00    +0.130 C 
BRANCH  14  16
ATOM      4  O   UNL     1      12.938   6.569   2.915  0.00  0.00    -0.276 OA
ATOM      7  N   UNL     1      11.685   4.614   2.844  0.00  0.00    -0.311 N 
ATOM     16  C   UNL     1      11.938   5.924   3.219  0.00  0.00    +0.216 C 
ATOM     33  H   UNL     1      10.808   4.184   3.127  0.00  0.00    +0.149 HD
BRANCH   7  18
ATOM     18  C   UNL     1      12.591   3.836   2.030  0.00  0.00    +0.141 C 
BRANCH  18  19
ATOM      9  N   UNL     1      10.429   4.177  -1.053  0.00  0.00    -0.263 NA
ATOM     19  C   UNL     1      12.151   3.777   0.597  0.00  0.00    -0.012 A 
ATOM     21  C   UNL     1      12.998   3.291  -0.393  0.00  0.00    +0.008 A 
ATOM     22  C   UNL     1      10.888   4.204   0.218  0.00  0.00    +0.115 A 
ATOM     25  C   UNL     1      12.562   3.247  -1.713  0.00  0.00    +0.020 A 
ATOM     28  C   UNL     1      11.280   3.698  -1.988  0.00  0.00    +0.111 A 
ENDBRANCH  18  19
ENDBRANCH   7  18
ENDBRANCH  14  16
ENDBRANCH  12  14
BRANCH  13  15
ATOM     15  C   UNL     1       8.652   7.495   7.495  0.00  0.00    +0.140 C 
BRANCH  15   6
ATOM      5  O   UNL     1       9.180   9.430   5.451  0.00  0.00    -0.253 OA
ATOM      6  N   UNL     1       7.833   7.781   6.354  0.00  0.00    -0.297 N 
ATOM      8  N   UNL     1       7.178   8.806   4.396  0.00  0.00    -0.269 N 
ATOM     17  C   UNL     1       8.159   8.749   5.390  0.00  0.00    +0.304 C 
ATOM     32  H   UNL     1       6.979   7.247   6.232  0.00  0.00    +0.150 HD
ATOM     34  H   UNL     1       6.391   8.169   4.495  0.00  0.00    +0.156 HD
BRANCH   8  20
ATOM     20  C   UNL     1       7.141   9.646   3.259  0.00  0.00    +0.035 A 
ATOM     23  C   UNL     1       6.580  10.920   3.351  0.00  0.00    +0.023 A 
ATOM     24  C   UNL     1       7.665   9.202   2.045  0.00  0.00    +0.023 A 
ATOM     26  C   UNL     1       6.544  11.749   2.230  0.00  0.00    +0.002 A 
ATOM     27  C   UNL     1       7.628  10.030   0.924  0.00  0.00    +0.002 A 
ATOM     29  C   UNL     1       7.067  11.304   1.016  0.00  0.00    +0.000 A 
ENDBRANCH   8  20
ENDBRANCH  15   6
ENDBRANCH  13  15
TORSDOF 9
ENDMDL
MODEL 8
REMARK VINA RESULT:      -6.5     27.200     29.186
REMARK  Name = 40778249
REMARK  9 active torsions:
REMARK  status: ('A' for Active; 'I' for Inactive)
REMARK    1  A    between atoms: O_2  and  C_10
REMARK    2  A    between atoms: O_3  and  C_11
REMARK    3  A    between atoms: N_6  and  C_15
REMARK    4  A    between atoms: N_7  and  C_18
REMARK    5  A    between atoms: N_8  and  C_20
REMARK    6  A    between atoms: C_12  and  C_14
REMARK    7  A    between atoms: C_13  and  C_15
REMARK    8  A    between atoms: C_14  and  C_16
REMARK    9  A    between atoms: C_18  and  C_19
REMARK                            x       y       z     vdW  Elec       q    Type
REMARK                         _______ _______ _______ _____ _____    ______ ____
ROOT
ATOM      1  O   UNL     1      -6.554  -9.737  17.781  0.00  0.00    -0.366 OA
ATOM     10  C   UNL     1      -5.270 -11.680  17.415  0.00  0.00    +0.175 C 
ATOM     11  C   UNL     1      -4.901 -10.670  16.347  0.00  0.00    +0.176 C 
ATOM     12  C   UNL     1      -5.868 -10.786  18.487  0.00  0.00    +0.158 C 
ATOM     13  C   UNL     1      -6.068  -9.691  16.421  0.00  0.00    +0.167 C 
ENDROOT
BRANCH  10   2
ATOM      2  O   UNL     1      -4.166 -12.417  17.893  0.00  0.00    -0.387 OA
ATOM     30  H   UNL     1      -3.914 -13.050  17.199  0.00  0.00    +0.210 HD
ENDBRANCH  10   2
BRANCH  11   3
ATOM      3  O   UNL     1      -3.713  -9.971  16.718  0.00  0.00    -0.387 OA
ATOM     31  H   UNL     1      -3.468 -10.267  17.611  0.00  0.00    +0.210 HD
ENDBRANCH  11   3
BRANCH  12  14
ATOM     14  C   UNL     1      -6.840 -11.509  19.401  0.00  0.00    +0.130 C 
BRANCH  14  16
ATOM      4  O   UNL     1      -8.772 -12.389  18.240  0.00  0.00    -0.276 OA
ATOM      7  N   UNL     1      -8.900 -10.286  19.222  0.00  0.00    -0.311 N 
ATOM     16  C   UNL     1      -8.266 -11.471  18.881  0.00  0.00    +0.216 C 
ATOM     33  H   UNL     1      -8.376  -9.580  19.731  0.00  0.00    +0.149 HD
BRANCH   7  18
ATOM     18  C   UNL     1     -10.265  -9.986  18.851  0.00  0.00    +0.141 C 
BRANCH  18  19
ATOM      9  N   UNL     1     -10.973  -9.366  15.189  0.00  0.00    -0.263 NA
ATOM     19  C   UNL     1     -10.347  -9.291  17.523  0.00  0.00    -0.012 A 
ATOM     21  C   UNL     1      -9.898  -7.984  17.370  0.00  0.00    +0.008 A 
ATOM     22  C   UNL     1     -10.871  -9.932  16.412  0.00  0.00    +0.115 A 
ATOM     25  C   UNL     1      -9.987  -7.367  16.127  0.00  0.00    +0.020 A 
ATOM     28  C   UNL     1     -10.527  -8.094  15.078  0.00  0.00    +0.111 A 
ENDBRANCH  18  19
ENDBRANCH   7  18
ENDBRANCH  14  16
ENDBRANCH  12  14
BRANCH  13  15
ATOM     15  C   UNL     1      -7.221 -10.069  15.500  0.00  0.00    +0.140 C 
BRANCH  15   6
ATOM      5  O   UNL     1      -5.944 -11.041  13.128  0.00  0.00    -0.253 OA
ATOM      6  N   UNL     1      -7.123  -9.391  14.241  0.00  0.00    -0.297 N 
ATOM      8  N   UNL     1      -6.541  -9.050  12.038  0.00  0.00    -0.269 N 
ATOM     17  C   UNL     1      -6.478  -9.934  13.118  0.00  0.00    +0.304 C 
ATOM     32  H   UNL     1      -7.553  -8.476  14.156  0.00  0.00    +0.150 HD
ATOM     34  H   UNL     1      -7.023  -8.169  12.197  0.00  0.00    +0.156 HD
BRANCH   8  20
ATOM     20  C   UNL     1      -6.013  -9.228  10.737  0.00  0.00    +0.035 A 
ATOM     23  C   UNL     1      -4.754  -8.717  10.420  0.00  0.00    +0.023 A 
ATOM     24  C   UNL     1      -6.751  -9.913   9.772  0.00  0.00    +0.023 A 
ATOM     26  C   UNL     1      -4.234  -8.893   9.137  0.00  0.00    +0.002 A 
ATOM     27  C   UNL     1      -6.231 -10.088   8.490  0.00  0.00    +0.002 A 
ATOM     29  C   UNL     1      -4.973  -9.578   8.173  0.00  0.00    +0.000 A 
ENDBRANCH   8  20
ENDBRANCH  15   6
ENDBRANCH  13  15
TORSDOF 9
ENDMDL
MODEL 9
REMARK VINA RESULT:      -6.4     16.281     19.656
REMARK  Name = 40778249
REMARK  9 active torsions:
REMARK  status: ('A' for Active; 'I' for Inactive)
REMARK    1  A    between atoms: O_2  and  C_10
REMARK    2  A    between atoms: O_3  and  C_11
REMARK    3  A    between atoms: N_6  and  C_15
REMARK    4  A    between atoms: N_7  and  C_18
REMARK    5  A    between atoms: N_8  and  C_20
REMARK    6  A    between atoms: C_12  and  C_14
REMARK    7  A    between atoms: C_13  and  C_15
REMARK    8  A    between atoms: C_14  and  C_16
REMARK    9  A    between atoms: C_18  and  C_19
REMARK                            x       y       z     vdW  Elec       q    Type
REMARK                         _______ _______ _______ _____ _____    ______ ____
ROOT
ATOM      1  O   UNL     1      13.198   3.096   0.062  0.00  0.00    -0.366 OA
ATOM     10  C   UNL     1      14.676   4.853   0.599  0.00  0.00    +0.175 C 
ATOM     11  C   UNL     1      14.444   4.038   1.856  0.00  0.00    +0.176 C 
ATOM     12  C   UNL     1      14.289   3.860  -0.483  0.00  0.00    +0.158 C 
ATOM     13  C   UNL     1      13.186   3.255   1.499  0.00  0.00    +0.167 C 
ENDROOT
BRANCH  10   2
ATOM      2  O   UNL     1      16.008   5.298   0.459  0.00  0.00    -0.387 OA
ATOM     30  H   UNL     1      16.504   4.593   0.008  0.00  0.00    +0.210 HD
ENDBRANCH  10   2
BRANCH  11   3
ATOM      3  O   UNL     1      15.508   3.104   2.043  0.00  0.00    -0.387 OA
ATOM     31  H   UNL     1      15.965   3.346   2.866  0.00  0.00    +0.210 HD
ENDBRANCH  11   3
BRANCH  12  14
ATOM     14  C   UNL     1      13.853   4.521  -1.778  0.00  0.00    +0.130 C 
BRANCH  14  16
ATOM      4  O   UNL     1      12.810   6.696  -1.586  0.00  0.00    -0.276 OA
ATOM      7  N   UNL     1      11.495   4.788  -1.404  0.00  0.00    -0.311 N 
ATOM     16  C   UNL     1      12.687   5.473  -1.583  0.00  0.00    +0.216 C 
ATOM     33  H   UNL     1      11.512   3.772  -1.390  0.00  0.00    +0.149 HD
BRANCH   7  18
ATOM     18  C   UNL     1      10.227   5.449  -1.194  0.00  0.00    +0.141 C 
BRANCH  18  19
ATOM      9  N   UNL     1       8.746   4.226  -4.451  0.00  0.00    -0.263 NA
ATOM     19  C   UNL     1       9.342   5.365  -2.403  0.00  0.00    -0.012 A 
ATOM     21  C   UNL     1       8.332   6.296  -2.617  0.00  0.00    +0.008 A 
ATOM     22  C   UNL     1       9.506   4.359  -3.341  0.00  0.00    +0.115 A 
ATOM     25  C   UNL     1       7.528   6.193  -3.747  0.00  0.00    +0.020 A 
ATOM     28  C   UNL     1       7.773   5.150  -4.625  0.00  0.00    +0.111 A 
ENDBRANCH  18  19
ENDBRANCH   7  18
ENDBRANCH  14  16
ENDBRANCH  12  14
BRANCH  13  15
ATOM     15  C   UNL     1      11.903   3.985   1.875  0.00  0.00    +0.140 C 
BRANCH  15   6
ATOM      5  O   UNL     1       9.760   5.046   3.452  0.00  0.00    -0.253 OA
ATOM      6  N   UNL     1      12.010   4.584   3.173  0.00  0.00    -0.297 N 
ATOM      8  N   UNL     1      11.315   5.606   5.118  0.00  0.00    -0.269 N 
ATOM     17  C   UNL     1      10.908   5.083   3.888  0.00  0.00    +0.304 C 
ATOM     32  H   UNL     1      12.928   4.638   3.602  0.00  0.00    +0.150 HD
ATOM     34  H   UNL     1      12.309   5.559   5.328  0.00  0.00    +0.156 HD
BRANCH   8  20
ATOM     20  C   UNL     1      10.510   6.198   6.120  0.00  0.00    +0.035 A 
ATOM     23  C   UNL     1      10.045   7.503   5.959  0.00  0.00    +0.023 A 
ATOM     24  C   UNL     1      10.181   5.477   7.268  0.00  0.00    +0.023 A 
ATOM     26  C   UNL     1       9.251   8.087   6.947  0.00  0.00    +0.002 A 
ATOM     27  C   UNL     1       9.388   6.060   8.255  0.00  0.00    +0.002 A 
ATOM     29  C   UNL     1       8.923   7.365   8.095  0.00  0.00    +0.000 A 
ENDBRANCH   8  20
ENDBRANCH  15   6
ENDBRANCH  13  15
TORSDOF 9
ENDMDL
MODEL 10
REMARK VINA RESULT:      -6.4     27.129     29.043
REMARK  Name = 40778249
REMARK  9 active torsions:
REMARK  status: ('A' for Active; 'I' for Inactive)
REMARK    1  A    between atoms: O_2  and  C_10
REMARK    2  A    between atoms: O_3  and  C_11
REMARK    3  A    between atoms: N_6  and  C_15
REMARK    4  A    between atoms: N_7  and  C_18
REMARK    5  A    between atoms: N_8  and  C_20
REMARK    6  A    between atoms: C_12  and  C_14
REMARK    7  A    between atoms: C_13  and  C_15
REMARK    8  A    between atoms: C_14  and  C_16
REMARK    9  A    between atoms: C_18  and  C_19
REMARK                            x       y       z     vdW  Elec       q    Type
REMARK                         _______ _______ _______ _____ _____    ______ ____
ROOT
ATOM      1  O   UNL     1      -6.749  -9.484  17.043  0.00  0.00    -0.366 OA
ATOM     10  C   UNL     1      -8.294 -10.599  18.434  0.00  0.00    +0.175 C 
ATOM     11  C   UNL     1      -6.902 -10.877  18.966  0.00  0.00    +0.176 C 
ATOM     12  C   UNL     1      -8.061  -9.339  17.617  0.00  0.00    +0.158 C 
ATOM     13  C   UNL     1      -6.027 -10.499  17.776  0.00  0.00    +0.167 C 
ENDROOT
BRANCH  10   2
ATOM      2  O   UNL     1      -9.252 -10.402  19.451  0.00  0.00    -0.387 OA
ATOM     30  H   UNL     1     -10.070 -10.091  19.025  0.00  0.00    +0.210 HD
ENDBRANCH  10   2
BRANCH  11   3
ATOM      3  O   UNL     1      -6.597  -9.988  20.040  0.00  0.00    -0.387 OA
ATOM     31  H   UNL     1      -5.939 -10.430  20.604  0.00  0.00    +0.210 HD
ENDBRANCH  11   3
BRANCH  12  14
ATOM     14  C   UNL     1      -9.083  -9.141  16.513  0.00  0.00    +0.130 C 
BRANCH  14  16
ATOM      4  O   UNL     1     -11.061  -8.548  17.773  0.00  0.00    -0.276 OA
ATOM      7  N   UNL     1     -10.191  -7.026  16.247  0.00  0.00    -0.311 N 
ATOM     16  C   UNL     1     -10.224  -8.231  16.931  0.00  0.00    +0.216 C 
ATOM     33  H   UNL     1      -9.468  -6.880  15.547  0.00  0.00    +0.149 HD
BRANCH   7  18
ATOM     18  C   UNL     1     -11.163  -5.976  16.450  0.00  0.00    +0.141 C 
BRANCH  18  19
ATOM      9  N   UNL     1     -13.037  -5.504  13.199  0.00  0.00    -0.263 NA
ATOM     19  C   UNL     1     -12.264  -6.024  15.431  0.00  0.00    -0.012 A 
ATOM     21  C   UNL     1     -13.494  -6.598  15.731  0.00  0.00    +0.008 A 
ATOM     22  C   UNL     1     -12.087  -5.495  14.162  0.00  0.00    +0.115 A 
ATOM     25  C   UNL     1     -14.496  -6.627  14.767  0.00  0.00    +0.020 A 
ATOM     28  C   UNL     1     -14.219  -6.072  13.528  0.00  0.00    +0.111 A 
ENDBRANCH  18  19
ENDBRANCH   7  18
ENDBRANCH  14  16
ENDBRANCH  12  14
BRANCH  13  15
ATOM     15  C   UNL     1      -5.772 -11.665  16.830  0.00  0.00    +0.140 C 
BRANCH  15   6
ATOM      5  O   UNL     1      -3.849 -10.669  14.955  0.00  0.00    -0.253 OA
ATOM      6  N   UNL     1      -6.018 -11.290  15.468  0.00  0.00    -0.297 N 
ATOM      8  N   UNL     1      -5.550 -10.525  13.345  0.00  0.00    -0.269 N 
ATOM     17  C   UNL     1      -5.019 -10.808  14.606  0.00  0.00    +0.304 C 
ATOM     32  H   UNL     1      -6.961 -11.390  15.107  0.00  0.00    +0.150 HD
ATOM     34  H   UNL     1      -6.545 -10.698  13.220  0.00  0.00    +0.156 HD
BRANCH   8  20
ATOM     20  C   UNL     1      -4.873 -10.025  12.209  0.00  0.00    +0.035 A 
ATOM     23  C   UNL     1      -3.648 -10.575  11.829  0.00  0.00    +0.023 A 
ATOM     24  C   UNL     1      -5.429  -8.982  11.466  0.00  0.00    +0.023 A 
ATOM     26  C   UNL     1      -2.980 -10.082  10.707  0.00  0.00    +0.002 A 
ATOM     27  C   UNL     1      -4.761  -8.490  10.346  0.00  0.00    +0.002 A 
ATOM     29  C   UNL     1      -3.536  -9.039   9.967  0.00  0.00    +0.000 A 
ENDBRANCH   8  20
ENDBRANCH  15   6
ENDBRANCH  13  15
TORSDOF 9
ENDMDL
