MODEL 1
REMARK VINA RESULT:      -6.7      0.000      0.000
REMARK  Name = 51136744
REMARK  11 active torsions:
REMARK  status: ('A' for Active; 'I' for Inactive)
REMARK    1  A    between atoms: O_2  and  C_17
REMARK    2  A    between atoms: O_4  and  C_26
REMARK    3  A    between atoms: O_4  and  C_29
REMARK    4  A    between atoms: C_7  and  C_12
REMARK    5  A    between atoms: C_8  and  C_13
REMARK    6  A    between atoms: C_12  and  C_15
REMARK    7  A    between atoms: C_13  and  C_17
REMARK    8  A    between atoms: C_14  and  C_16
REMARK    9  A    between atoms: C_16  and  C_19
REMARK   10  A    between atoms: C_16  and  C_20
REMARK   11  A    between atoms: C_16  and  C_21
REMARK                            x       y       z     vdW  Elec       q    Type
REMARK                         _______ _______ _______ _____ _____    ______ ____
ROOT
ATOM      1  O   UNL     1      13.501  12.982  23.155  0.00  0.00    -0.275 OA
ATOM      5  N   UNL     1      12.297  11.220  22.233  0.00  0.00    -0.301 N 
ATOM      7  C   UNL     1      13.687   9.684  20.875  0.00  0.00    +0.016 C 
ATOM      8  C   UNL     1      12.530   8.653  20.845  0.00  0.00    +0.006 C 
ATOM      9  C   UNL     1      13.167  11.117  21.058  0.00  0.00    +0.112 C 
ATOM     10  C   UNL     1      11.643   8.845  22.088  0.00  0.00    +0.023 C 
ATOM     11  C   UNL     1      11.165  10.287  22.252  0.00  0.00    +0.108 C 
ATOM     14  C   UNL     1      12.542  12.205  23.190  0.00  0.00    +0.221 C 
ENDROOT
BRANCH  14  16
ATOM     16  C   UNL     1      11.558  12.303  24.329  0.00  0.00    +0.039 C 
ATOM     19  C   UNL     1      10.274  12.932  23.786  0.00  0.00    +0.020 C 
ATOM     20  C   UNL     1      12.161  13.178  25.429  0.00  0.00    +0.020 C 
ATOM     21  C   UNL     1      11.280  10.895  24.862  0.00  0.00    +0.020 C 
ENDBRANCH  14  16
BRANCH   7  12
ATOM     12  C   UNL     1      14.599   9.595  19.652  0.00  0.00    +0.061 C 
BRANCH  12  15
ATOM      6  N   UNL     1      15.402   7.351  19.360  0.00  0.00    -0.287 NA
ATOM     15  C   UNL     1      15.636   8.518  19.863  0.00  0.00    +0.044 C 
ATOM     18  C   UNL     1      16.859   8.845  20.638  0.00  0.00    +0.003 A 
ATOM     22  C   UNL     1      17.595   7.765  21.142  0.00  0.00    +0.005 A 
ATOM     23  C   UNL     1      17.100   6.372  20.883  0.00  0.00    +0.062 C 
ATOM     24  C   UNL     1      16.436   6.322  19.512  0.00  0.00    +0.146 C 
ATOM     25  C   UNL     1      17.272  10.157  20.881  0.00  0.00    +0.010 A 
ATOM     26  C   UNL     1      18.735   8.006  21.914  0.00  0.00    +0.124 A 
ATOM     27  C   UNL     1      18.420  10.388  21.639  0.00  0.00    +0.004 A 
ATOM     28  C   UNL     1      19.148   9.315  22.157  0.00  0.00    +0.046 A 
BRANCH  26   4
ATOM      4  O   UNL     1      19.463   6.979  22.438  0.00  0.00    -0.495 OA
ATOM     29  C   UNL     1      20.364   7.299  23.496  0.00  0.00    +0.277 C 
ENDBRANCH  26   4
ENDBRANCH  12  15
ENDBRANCH   7  12
BRANCH   8  13
ATOM     13  C   UNL     1      11.692   8.692  19.562  0.00  0.00    +0.124 C 
BRANCH  13  17
ATOM      3  O   UNL     1      11.806   7.421  17.485  0.00  0.00    -0.251 OA
ATOM     17  C   UNL     1      11.941   7.487  18.699  0.00  0.00    +0.305 C 
BRANCH  17   2
ATOM      2  O   UNL     1      12.349   6.447  19.470  0.00  0.00    -0.481 OA
ATOM     30  H   UNL     1      11.999   6.511  20.385  0.00  0.00    +0.295 HD
ENDBRANCH  17   2
ENDBRANCH  13  17
ENDBRANCH   8  13
TORSDOF 7
ENDMDL
MODEL 2
REMARK VINA RESULT:      -6.3     28.017     30.866
REMARK  Name = 51136744
REMARK  11 active torsions:
REMARK  status: ('A' for Active; 'I' for Inactive)
REMARK    1  A    between atoms: O_2  and  C_17
REMARK    2  A    between atoms: O_4  and  C_26
REMARK    3  A    between atoms: O_4  and  C_29
REMARK    4  A    between atoms: C_7  and  C_12
REMARK    5  A    between atoms: C_8  and  C_13
REMARK    6  A    between atoms: C_12  and  C_15
REMARK    7  A    between atoms: C_13  and  C_17
REMARK    8  A    between atoms: C_14  and  C_16
REMARK    9  A    between atoms: C_16  and  C_19
REMARK   10  A    between atoms: C_16  and  C_20
REMARK   11  A    between atoms: C_16  and  C_21
REMARK                            x       y       z     vdW  Elec       q    Type
REMARK                         _______ _______ _______ _____ _____    ______ ____
ROOT
ATOM      1  O   UNL     1     -14.904  10.016  28.975  0.00  0.00    -0.275 OA
ATOM      5  N   UNL     1     -13.756   9.678  30.968  0.00  0.00    -0.301 N 
ATOM      7  C   UNL     1     -14.308   7.528  32.068  0.00  0.00    +0.016 C 
ATOM      8  C   UNL     1     -13.104   7.702  33.028  0.00  0.00    +0.006 C 
ATOM      9  C   UNL     1     -14.832   8.879  31.562  0.00  0.00    +0.112 C 
ATOM     10  C   UNL     1     -12.034   8.577  32.351  0.00  0.00    +0.023 C 
ATOM     11  C   UNL     1     -12.595   9.902  31.837  0.00  0.00    +0.108 C 
ATOM     14  C   UNL     1     -13.919  10.216  29.691  0.00  0.00    +0.221 C 
ENDROOT
BRANCH  14  16
ATOM     16  C   UNL     1     -12.804  11.092  29.179  0.00  0.00    +0.039 C 
ATOM     19  C   UNL     1     -13.235  11.655  27.824  0.00  0.00    +0.020 C 
ATOM     20  C   UNL     1     -11.539  10.246  29.030  0.00  0.00    +0.020 C 
ATOM     21  C   UNL     1     -12.569  12.227  30.179  0.00  0.00    +0.020 C 
ENDBRANCH  14  16
BRANCH   7  12
ATOM     12  C   UNL     1     -15.443   6.704  32.675  0.00  0.00    +0.061 C 
BRANCH  12  15
ATOM      6  N   UNL     1     -14.702   4.672  33.718  0.00  0.00    -0.287 NA
ATOM     15  C   UNL     1     -15.095   5.236  32.624  0.00  0.00    +0.044 C 
ATOM     18  C   UNL     1     -15.211   4.519  31.329  0.00  0.00    +0.003 A 
ATOM     22  C   UNL     1     -14.531   3.299  31.219  0.00  0.00    +0.005 A 
ATOM     23  C   UNL     1     -13.730   2.813  32.391  0.00  0.00    +0.062 C 
ATOM     24  C   UNL     1     -14.423   3.231  33.681  0.00  0.00    +0.146 C 
ATOM     25  C   UNL     1     -15.945   5.019  30.251  0.00  0.00    +0.010 A 
ATOM     26  C   UNL     1     -14.568   2.594  30.013  0.00  0.00    +0.124 A 
ATOM     27  C   UNL     1     -15.990   4.300  29.056  0.00  0.00    +0.004 A 
ATOM     28  C   UNL     1     -15.300   3.092  28.936  0.00  0.00    +0.046 A 
BRANCH  26   4
ATOM      4  O   UNL     1     -13.900   1.415  29.864  0.00  0.00    -0.495 OA
ATOM     29  C   UNL     1     -14.687   0.227  29.818  0.00  0.00    +0.277 C 
ENDBRANCH  26   4
ENDBRANCH  12  15
ENDBRANCH   7  12
BRANCH   8  13
ATOM     13  C   UNL     1     -13.479   8.263  34.405  0.00  0.00    +0.124 C 
BRANCH  13  17
ATOM      3  O   UNL     1     -11.859   7.893  36.189  0.00  0.00    -0.251 OA
ATOM     17  C   UNL     1     -12.804   7.507  35.515  0.00  0.00    +0.305 C 
BRANCH  17   2
ATOM      2  O   UNL     1     -13.401   6.298  35.676  0.00  0.00    -0.481 OA
ATOM     30  H   UNL     1     -13.797   5.972  34.839  0.00  0.00    +0.295 HD
ENDBRANCH  17   2
ENDBRANCH  13  17
ENDBRANCH   8  13
TORSDOF 7
ENDMDL
MODEL 3
REMARK VINA RESULT:      -6.2     26.976     30.244
REMARK  Name = 51136744
REMARK  11 active torsions:
REMARK  status: ('A' for Active; 'I' for Inactive)
REMARK    1  A    between atoms: O_2  and  C_17
REMARK    2  A    between atoms: O_4  and  C_26
REMARK    3  A    between atoms: O_4  and  C_29
REMARK    4  A    between atoms: C_7  and  C_12
REMARK    5  A    between atoms: C_8  and  C_13
REMARK    6  A    between atoms: C_12  and  C_15
REMARK    7  A    between atoms: C_13  and  C_17
REMARK    8  A    between atoms: C_14  and  C_16
REMARK    9  A    between atoms: C_16  and  C_19
REMARK   10  A    between atoms: C_16  and  C_20
REMARK   11  A    between atoms: C_16  and  C_21
REMARK                            x       y       z     vdW  Elec       q    Type
REMARK                         _______ _______ _______ _____ _____    ______ ____
ROOT
ATOM      1  O   UNL     1     -11.590  -8.281  13.223  0.00  0.00    -0.275 OA
ATOM      5  N   UNL     1     -11.184  -8.699  15.474  0.00  0.00    -0.301 N 
ATOM      7  C   UNL     1      -9.021  -9.834  15.889  0.00  0.00    +0.016 C 
ATOM      8  C   UNL     1      -9.150  -9.540  17.404  0.00  0.00    +0.006 C 
ATOM      9  C   UNL     1     -10.394  -9.904  15.204  0.00  0.00    +0.112 C 
ATOM     10  C   UNL     1     -10.018  -8.285  17.609  0.00  0.00    +0.023 C 
ATOM     11  C   UNL     1     -11.365  -8.379  16.894  0.00  0.00    +0.108 C 
ATOM     14  C   UNL     1     -11.754  -7.995  14.412  0.00  0.00    +0.221 C 
ENDROOT
BRANCH  14  16
ATOM     16  C   UNL     1     -12.619  -6.813  14.772  0.00  0.00    +0.039 C 
ATOM     19  C   UNL     1     -11.745  -5.801  15.514  0.00  0.00    +0.020 C 
ATOM     20  C   UNL     1     -13.762  -7.293  15.667  0.00  0.00    +0.020 C 
ATOM     21  C   UNL     1     -13.174  -6.198  13.484  0.00  0.00    +0.020 C 
ENDBRANCH  14  16
BRANCH   7  12
ATOM     12  C   UNL     1      -8.207 -11.093  15.590  0.00  0.00    +0.061 C 
BRANCH  12  15
ATOM      6  N   UNL     1      -6.899 -10.315  13.734  0.00  0.00    -0.287 NA
ATOM     15  C   UNL     1      -6.888 -10.713  14.963  0.00  0.00    +0.044 C 
ATOM     18  C   UNL     1      -5.651 -10.821  15.778  0.00  0.00    +0.003 A 
ATOM     22  C   UNL     1      -4.436 -10.841  15.081  0.00  0.00    +0.005 A 
ATOM     23  C   UNL     1      -4.463 -10.769  13.583  0.00  0.00    +0.062 C 
ATOM     24  C   UNL     1      -5.625  -9.888  13.143  0.00  0.00    +0.146 C 
ATOM     25  C   UNL     1      -5.670 -10.913  17.171  0.00  0.00    +0.010 A 
ATOM     26  C   UNL     1      -3.238 -10.981  15.787  0.00  0.00    +0.124 A 
ATOM     27  C   UNL     1      -4.467 -11.037  17.868  0.00  0.00    +0.004 A 
ATOM     28  C   UNL     1      -3.254 -11.074  17.178  0.00  0.00    +0.046 A 
BRANCH  26   4
ATOM      4  O   UNL     1      -2.039 -11.027  15.140  0.00  0.00    -0.495 OA
ATOM     29  C   UNL     1      -0.958 -10.307  15.731  0.00  0.00    +0.277 C 
ENDBRANCH  26   4
ENDBRANCH  12  15
ENDBRANCH   7  12
BRANCH   8  13
ATOM     13  C   UNL     1      -9.687 -10.717  18.226  0.00  0.00    +0.124 C 
BRANCH  13  17
ATOM      3  O   UNL     1      -7.918 -11.188  19.836  0.00  0.00    -0.251 OA
ATOM     17  C   UNL     1      -9.044 -10.786  19.583  0.00  0.00    +0.305 C 
BRANCH  17   2
ATOM      2  O   UNL     1      -9.910 -10.327  20.524  0.00  0.00    -0.481 OA
ATOM     30  H   UNL     1      -9.732 -10.718  21.406  0.00  0.00    +0.295 HD
ENDBRANCH  17   2
ENDBRANCH  13  17
ENDBRANCH   8  13
TORSDOF 7
ENDMDL
MODEL 4
REMARK VINA RESULT:      -6.2     30.526     32.642
REMARK  Name = 51136744
REMARK  11 active torsions:
REMARK  status: ('A' for Active; 'I' for Inactive)
REMARK    1  A    between atoms: O_2  and  C_17
REMARK    2  A    between atoms: O_4  and  C_26
REMARK    3  A    between atoms: O_4  and  C_29
REMARK    4  A    between atoms: C_7  and  C_12
REMARK    5  A    between atoms: C_8  and  C_13
REMARK    6  A    between atoms: C_12  and  C_15
REMARK    7  A    between atoms: C_13  and  C_17
REMARK    8  A    between atoms: C_14  and  C_16
REMARK    9  A    between atoms: C_16  and  C_19
REMARK   10  A    between atoms: C_16  and  C_20
REMARK   11  A    between atoms: C_16  and  C_21
REMARK                            x       y       z     vdW  Elec       q    Type
REMARK                         _______ _______ _______ _____ _____    ______ ____
ROOT
ATOM      1  O   UNL     1     -17.000   5.890  28.295  0.00  0.00    -0.275 OA
ATOM      5  N   UNL     1     -16.171   3.721  28.409  0.00  0.00    -0.301 N 
ATOM      7  C   UNL     1     -15.868   2.904  30.728  0.00  0.00    +0.016 C 
ATOM      8  C   UNL     1     -15.669   1.461  30.201  0.00  0.00    +0.006 C 
ATOM      9  C   UNL     1     -15.475   3.953  29.678  0.00  0.00    +0.112 C 
ATOM     10  C   UNL     1     -16.397   1.304  28.854  0.00  0.00    +0.023 C 
ATOM     11  C   UNL     1     -16.001   2.378  27.842  0.00  0.00    +0.108 C 
ATOM     14  C   UNL     1     -16.869   4.766  27.802  0.00  0.00    +0.221 C 
ENDROOT
BRANCH  14  16
ATOM     16  C   UNL     1     -17.491   4.475  26.460  0.00  0.00    +0.039 C 
ATOM     19  C   UNL     1     -18.093   5.777  25.930  0.00  0.00    +0.020 C 
ATOM     20  C   UNL     1     -18.580   3.415  26.640  0.00  0.00    +0.020 C 
ATOM     21  C   UNL     1     -16.403   3.964  25.512  0.00  0.00    +0.020 C 
ENDBRANCH  14  16
BRANCH   7  12
ATOM     12  C   UNL     1     -15.142   3.165  32.047  0.00  0.00    +0.061 C 
BRANCH  12  15
ATOM      6  N   UNL     1     -16.999   3.974  33.335  0.00  0.00    -0.287 NA
ATOM     15  C   UNL     1     -15.850   4.254  32.816  0.00  0.00    +0.044 C 
ATOM     18  C   UNL     1     -15.202   5.585  32.930  0.00  0.00    +0.003 A 
ATOM     22  C   UNL     1     -16.025   6.659  33.296  0.00  0.00    +0.005 A 
ATOM     23  C   UNL     1     -17.484   6.401  33.529  0.00  0.00    +0.062 C 
ATOM     24  C   UNL     1     -17.659   5.013  34.134  0.00  0.00    +0.146 C 
ATOM     25  C   UNL     1     -13.844   5.789  32.678  0.00  0.00    +0.010 A 
ATOM     26  C   UNL     1     -15.485   7.945  33.383  0.00  0.00    +0.124 A 
ATOM     27  C   UNL     1     -13.310   7.074  32.783  0.00  0.00    +0.004 A 
ATOM     28  C   UNL     1     -14.129   8.150  33.131  0.00  0.00    +0.046 A 
BRANCH  26   4
ATOM      4  O   UNL     1     -16.260   9.015  33.715  0.00  0.00    -0.495 OA
ATOM     29  C   UNL     1     -15.652  10.303  33.639  0.00  0.00    +0.277 C 
ENDBRANCH  26   4
ENDBRANCH  12  15
ENDBRANCH   7  12
BRANCH   8  13
ATOM     13  C   UNL     1     -14.200   1.036  30.082  0.00  0.00    +0.124 C 
BRANCH  13  17
ATOM      3  O   UNL     1     -13.295  -1.016  29.127  0.00  0.00    -0.251 OA
ATOM     17  C   UNL     1     -14.065  -0.448  29.888  0.00  0.00    +0.305 C 
BRANCH  17   2
ATOM      2  O   UNL     1     -14.942  -1.098  30.698  0.00  0.00    -0.481 OA
ATOM     30  H   UNL     1     -15.797  -0.622  30.766  0.00  0.00    +0.295 HD
ENDBRANCH  17   2
ENDBRANCH  13  17
ENDBRANCH   8  13
TORSDOF 7
ENDMDL
MODEL 5
REMARK VINA RESULT:      -6.1      1.504      2.470
REMARK  Name = 51136744
REMARK  11 active torsions:
REMARK  status: ('A' for Active; 'I' for Inactive)
REMARK    1  A    between atoms: O_2  and  C_17
REMARK    2  A    between atoms: O_4  and  C_26
REMARK    3  A    between atoms: O_4  and  C_29
REMARK    4  A    between atoms: C_7  and  C_12
REMARK    5  A    between atoms: C_8  and  C_13
REMARK    6  A    between atoms: C_12  and  C_15
REMARK    7  A    between atoms: C_13  and  C_17
REMARK    8  A    between atoms: C_14  and  C_16
REMARK    9  A    between atoms: C_16  and  C_19
REMARK   10  A    between atoms: C_16  and  C_20
REMARK   11  A    between atoms: C_16  and  C_21
REMARK                            x       y       z     vdW  Elec       q    Type
REMARK                         _______ _______ _______ _____ _____    ______ ____
ROOT
ATOM      1  O   UNL     1      13.505  14.035  23.475  0.00  0.00    -0.275 OA
ATOM      5  N   UNL     1      12.436  12.195  22.538  0.00  0.00    -0.301 N 
ATOM      7  C   UNL     1      13.993  10.590  21.472  0.00  0.00    +0.016 C 
ATOM      8  C   UNL     1      12.856   9.542  21.373  0.00  0.00    +0.006 C 
ATOM      9  C   UNL     1      13.445  12.025  21.489  0.00  0.00    +0.112 C 
ATOM     10  C   UNL     1      11.821   9.806  22.482  0.00  0.00    +0.023 C 
ATOM     11  C   UNL     1      11.317  11.248  22.485  0.00  0.00    +0.108 C 
ATOM     14  C   UNL     1      12.555  13.247  23.447  0.00  0.00    +0.221 C 
ENDROOT
BRANCH  14  16
ATOM     16  C   UNL     1      11.437  13.408  24.446  0.00  0.00    +0.039 C 
ATOM     19  C   UNL     1      11.787  14.587  25.355  0.00  0.00    +0.020 C 
ATOM     20  C   UNL     1      11.316  12.120  25.263  0.00  0.00    +0.020 C 
ATOM     21  C   UNL     1      10.135  13.682  23.691  0.00  0.00    +0.020 C 
ENDBRANCH  14  16
BRANCH   7  12
ATOM     12  C   UNL     1      15.050  10.431  20.379  0.00  0.00    +0.061 C 
BRANCH  12  15
ATOM      6  N   UNL     1      16.990  10.734  21.761  0.00  0.00    -0.287 NA
ATOM     15  C   UNL     1      16.340   9.933  20.983  0.00  0.00    +0.044 C 
ATOM     18  C   UNL     1      16.801   8.561  20.652  0.00  0.00    +0.003 A 
ATOM     22  C   UNL     1      18.150   8.271  20.897  0.00  0.00    +0.005 A 
ATOM     23  C   UNL     1      19.029   9.352  21.455  0.00  0.00    +0.062 C 
ATOM     24  C   UNL     1      18.212  10.228  22.396  0.00  0.00    +0.146 C 
ATOM     25  C   UNL     1      15.958   7.591  20.108  0.00  0.00    +0.010 A 
ATOM     26  C   UNL     1      18.657   7.011  20.570  0.00  0.00    +0.124 A 
ATOM     27  C   UNL     1      16.468   6.329  19.799  0.00  0.00    +0.004 A 
ATOM     28  C   UNL     1      17.815   6.041  20.026  0.00  0.00    +0.046 A 
BRANCH  26   4
ATOM      4  O   UNL     1      19.968   6.702  20.775  0.00  0.00    -0.495 OA
ATOM     29  C   UNL     1      20.353   5.344  20.569  0.00  0.00    +0.277 C 
ENDBRANCH  26   4
ENDBRANCH  12  15
ENDBRANCH   7  12
BRANCH   8  13
ATOM     13  C   UNL     1      12.182   9.479  19.998  0.00  0.00    +0.124 C 
BRANCH  13  17
ATOM      3  O   UNL     1      12.211   7.137  19.324  0.00  0.00    -0.251 OA
ATOM     17  C   UNL     1      11.603   8.120  19.724  0.00  0.00    +0.305 C 
BRANCH  17   2
ATOM      2  O   UNL     1      10.271   8.127  19.988  0.00  0.00    -0.481 OA
ATOM     30  H   UNL     1      10.026   7.445  20.650  0.00  0.00    +0.295 HD
ENDBRANCH  17   2
ENDBRANCH  13  17
ENDBRANCH   8  13
TORSDOF 7
ENDMDL
MODEL 6
REMARK VINA RESULT:      -6.1     26.575     29.841
REMARK  Name = 51136744
REMARK  11 active torsions:
REMARK  status: ('A' for Active; 'I' for Inactive)
REMARK    1  A    between atoms: O_2  and  C_17
REMARK    2  A    between atoms: O_4  and  C_26
REMARK    3  A    between atoms: O_4  and  C_29
REMARK    4  A    between atoms: C_7  and  C_12
REMARK    5  A    between atoms: C_8  and  C_13
REMARK    6  A    between atoms: C_12  and  C_15
REMARK    7  A    between atoms: C_13  and  C_17
REMARK    8  A    between atoms: C_14  and  C_16
REMARK    9  A    between atoms: C_16  and  C_19
REMARK   10  A    between atoms: C_16  and  C_20
REMARK   11  A    between atoms: C_16  and  C_21
REMARK                            x       y       z     vdW  Elec       q    Type
REMARK                         _______ _______ _______ _____ _____    ______ ____
ROOT
ATOM      1  O   UNL     1      -7.623 -13.211  17.261  0.00  0.00    -0.275 OA
ATOM      5  N   UNL     1      -5.578 -12.137  16.995  0.00  0.00    -0.301 N 
ATOM      7  C   UNL     1      -5.023 -11.651  14.631  0.00  0.00    +0.016 C 
ATOM      8  C   UNL     1      -3.870 -10.722  15.085  0.00  0.00    +0.006 C 
ATOM      9  C   UNL     1      -5.332 -12.730  15.678  0.00  0.00    +0.112 C 
ATOM     10  C   UNL     1      -4.183 -10.167  16.486  0.00  0.00    +0.023 C 
ATOM     11  C   UNL     1      -4.509 -11.266  17.496  0.00  0.00    +0.108 C 
ATOM     14  C   UNL     1      -6.735 -12.476  17.700  0.00  0.00    +0.221 C 
ENDROOT
BRANCH  14  16
ATOM     16  C   UNL     1      -6.881 -11.889  19.082  0.00  0.00    +0.039 C 
ATOM     19  C   UNL     1      -7.360 -10.445  18.929  0.00  0.00    +0.020 C 
ATOM     20  C   UNL     1      -5.522 -11.933  19.783  0.00  0.00    +0.020 C 
ATOM     21  C   UNL     1      -7.908 -12.714  19.861  0.00  0.00    +0.020 C 
ENDBRANCH  14  16
BRANCH   7  12
ATOM     12  C   UNL     1      -4.778 -12.284  13.262  0.00  0.00    +0.061 C 
BRANCH  12  15
ATOM      6  N   UNL     1      -6.936 -11.906  12.279  0.00  0.00    -0.287 NA
ATOM     15  C   UNL     1      -5.672 -11.640  12.231  0.00  0.00    +0.044 C 
ATOM     18  C   UNL     1      -5.063 -10.744  11.215  0.00  0.00    +0.003 A 
ATOM     22  C   UNL     1      -5.824 -10.479  10.069  0.00  0.00    +0.005 A 
ATOM     23  C   UNL     1      -7.174 -11.119   9.937  0.00  0.00    +0.062 C 
ATOM     24  C   UNL     1      -7.813 -11.232  11.315  0.00  0.00    +0.146 C 
ATOM     25  C   UNL     1      -3.790 -10.190  11.363  0.00  0.00    +0.010 A 
ATOM     26  C   UNL     1      -5.291  -9.677   9.057  0.00  0.00    +0.124 A 
ATOM     27  C   UNL     1      -3.272  -9.376  10.354  0.00  0.00    +0.004 A 
ATOM     28  C   UNL     1      -4.019  -9.123   9.202  0.00  0.00    +0.046 A 
BRANCH  26   4
ATOM      4  O   UNL     1      -5.994  -9.416   7.918  0.00  0.00    -0.495 OA
ATOM     29  C   UNL     1      -5.585 -10.098   6.734  0.00  0.00    +0.277 C 
ENDBRANCH  26   4
ENDBRANCH  12  15
ENDBRANCH   7  12
BRANCH   8  13
ATOM     13  C   UNL     1      -2.487 -11.384  15.055  0.00  0.00    +0.124 C 
BRANCH  13  17
ATOM      3  O   UNL     1      -1.084  -9.465  14.514  0.00  0.00    -0.251 OA
ATOM     17  C   UNL     1      -1.387 -10.381  15.265  0.00  0.00    +0.305 C 
BRANCH  17   2
ATOM      2  O   UNL     1      -0.751 -10.636  16.438  0.00  0.00    -0.481 OA
ATOM     30  H   UNL     1      -0.815  -9.880  17.060  0.00  0.00    +0.295 HD
ENDBRANCH  17   2
ENDBRANCH  13  17
ENDBRANCH   8  13
TORSDOF 7
ENDMDL
MODEL 7
REMARK VINA RESULT:      -6.0     14.670     18.051
REMARK  Name = 51136744
REMARK  11 active torsions:
REMARK  status: ('A' for Active; 'I' for Inactive)
REMARK    1  A    between atoms: O_2  and  C_17
REMARK    2  A    between atoms: O_4  and  C_26
REMARK    3  A    between atoms: O_4  and  C_29
REMARK    4  A    between atoms: C_7  and  C_12
REMARK    5  A    between atoms: C_8  and  C_13
REMARK    6  A    between atoms: C_12  and  C_15
REMARK    7  A    between atoms: C_13  and  C_17
REMARK    8  A    between atoms: C_14  and  C_16
REMARK    9  A    between atoms: C_16  and  C_19
REMARK   10  A    between atoms: C_16  and  C_20
REMARK   11  A    between atoms: C_16  and  C_21
REMARK                            x       y       z     vdW  Elec       q    Type
REMARK                         _______ _______ _______ _____ _____    ______ ____
ROOT
ATOM      1  O   UNL     1       8.573  11.617   6.053  0.00  0.00    -0.275 OA
ATOM      5  N   UNL     1       9.156   9.587   7.024  0.00  0.00    -0.301 N 
ATOM      7  C   UNL     1       9.382   7.743   5.385  0.00  0.00    +0.016 C 
ATOM      8  C   UNL     1      10.057   6.858   6.463  0.00  0.00    +0.006 C 
ATOM      9  C   UNL     1       8.454   8.794   6.010  0.00  0.00    +0.112 C 
ATOM     10  C   UNL     1      10.741   7.759   7.508  0.00  0.00    +0.023 C 
ATOM     11  C   UNL     1       9.795   8.808   8.090  0.00  0.00    +0.108 C 
ATOM     14  C   UNL     1       9.118  10.980   6.959  0.00  0.00    +0.221 C 
ENDROOT
BRANCH  14  16
ATOM     16  C   UNL     1       9.794  11.728   8.080  0.00  0.00    +0.039 C 
ATOM     19  C   UNL     1      11.285  11.390   8.036  0.00  0.00    +0.020 C 
ATOM     20  C   UNL     1       9.182  11.284   9.409  0.00  0.00    +0.020 C 
ATOM     21  C   UNL     1       9.580  13.229   7.871  0.00  0.00    +0.020 C 
ENDBRANCH  14  16
BRANCH   7  12
ATOM     12  C   UNL     1       8.639   6.931   4.325  0.00  0.00    +0.061 C 
BRANCH  12  15
ATOM      6  N   UNL     1       9.180   8.194   2.356  0.00  0.00    -0.287 NA
ATOM     15  C   UNL     1       9.328   7.078   2.990  0.00  0.00    +0.044 C 
ATOM     18  C   UNL     1      10.130   5.942   2.471  0.00  0.00    +0.003 A 
ATOM     22  C   UNL     1      10.426   5.951   1.101  0.00  0.00    +0.005 A 
ATOM     23  C   UNL     1       9.908   7.080   0.260  0.00  0.00    +0.062 C 
ATOM     24  C   UNL     1       9.899   8.359   1.088  0.00  0.00    +0.146 C 
ATOM     25  C   UNL     1      10.570   4.894   3.282  0.00  0.00    +0.010 A 
ATOM     26  C   UNL     1      11.143   4.889   0.543  0.00  0.00    +0.124 A 
ATOM     27  C   UNL     1      11.300   3.846   2.719  0.00  0.00    +0.004 A 
ATOM     28  C   UNL     1      11.583   3.842   1.352  0.00  0.00    +0.046 A 
BRANCH  26   4
ATOM      4  O   UNL     1      11.429   4.855  -0.790  0.00  0.00    -0.495 OA
ATOM     29  C   UNL     1      11.417   3.576  -1.421  0.00  0.00    +0.277 C 
ENDBRANCH  26   4
ENDBRANCH  12  15
ENDBRANCH   7  12
BRANCH   8  13
ATOM     13  C   UNL     1       9.106   5.862   7.138  0.00  0.00    +0.124 C 
BRANCH  13  17
ATOM      3  O   UNL     1      10.150   4.962   9.149  0.00  0.00    -0.251 OA
ATOM     17  C   UNL     1       9.854   4.856   7.968  0.00  0.00    +0.305 C 
BRANCH  17   2
ATOM      2  O   UNL     1      10.167   3.776   7.206  0.00  0.00    -0.481 OA
ATOM     30  H   UNL     1       9.366   3.336   6.849  0.00  0.00    +0.295 HD
ENDBRANCH  17   2
ENDBRANCH  13  17
ENDBRANCH   8  13
TORSDOF 7
ENDMDL
MODEL 8
REMARK VINA RESULT:      -5.8     28.388     30.853
REMARK  Name = 51136744
REMARK  11 active torsions:
REMARK  status: ('A' for Active; 'I' for Inactive)
REMARK    1  A    between atoms: O_2  and  C_17
REMARK    2  A    between atoms: O_4  and  C_26
REMARK    3  A    between atoms: O_4  and  C_29
REMARK    4  A    between atoms: C_7  and  C_12
REMARK    5  A    between atoms: C_8  and  C_13
REMARK    6  A    between atoms: C_12  and  C_15
REMARK    7  A    between atoms: C_13  and  C_17
REMARK    8  A    between atoms: C_14  and  C_16
REMARK    9  A    between atoms: C_16  and  C_19
REMARK   10  A    between atoms: C_16  and  C_20
REMARK   11  A    between atoms: C_16  and  C_21
REMARK                            x       y       z     vdW  Elec       q    Type
REMARK                         _______ _______ _______ _____ _____    ______ ____
ROOT
ATOM      1  O   UNL     1      -5.847  -9.514  12.255  0.00  0.00    -0.275 OA
ATOM      5  N   UNL     1      -4.889 -10.699  14.012  0.00  0.00    -0.301 N 
ATOM      7  C   UNL     1      -6.180 -10.545  16.120  0.00  0.00    +0.016 C 
ATOM      8  C   UNL     1      -5.337 -11.694  16.728  0.00  0.00    +0.006 C 
ATOM      9  C   UNL     1      -5.406  -9.785  15.034  0.00  0.00    +0.112 C 
ATOM     10  C   UNL     1      -4.802 -12.589  15.595  0.00  0.00    +0.023 C 
ATOM     11  C   UNL     1      -4.060 -11.796  14.520  0.00  0.00    +0.108 C 
ATOM     14  C   UNL     1      -5.146 -10.444  12.664  0.00  0.00    +0.221 C 
ENDROOT
BRANCH  14  16
ATOM     16  C   UNL     1      -4.515 -11.382  11.666  0.00  0.00    +0.039 C 
ATOM     19  C   UNL     1      -4.858 -10.875  10.264  0.00  0.00    +0.020 C 
ATOM     20  C   UNL     1      -5.081 -12.786  11.881  0.00  0.00    +0.020 C 
ATOM     21  C   UNL     1      -2.999 -11.381  11.879  0.00  0.00    +0.020 C 
ENDBRANCH  14  16
BRANCH   7  12
ATOM     12  C   UNL     1      -6.720  -9.578  17.173  0.00  0.00    +0.061 C 
BRANCH  12  15
ATOM      6  N   UNL     1      -8.648  -8.794  15.976  0.00  0.00    -0.287 NA
ATOM     15  C   UNL     1      -8.213  -9.429  17.014  0.00  0.00    +0.044 C 
ATOM     18  C   UNL     1      -9.104 -10.006  18.053  0.00  0.00    +0.003 A 
ATOM     22  C   UNL     1     -10.422  -9.531  18.090  0.00  0.00    +0.005 A 
ATOM     23  C   UNL     1     -10.836  -8.478  17.105  0.00  0.00    +0.062 C 
ATOM     24  C   UNL     1     -10.100  -8.703  15.790  0.00  0.00    +0.146 C 
ATOM     25  C   UNL     1      -8.672 -10.967  18.970  0.00  0.00    +0.010 A 
ATOM     26  C   UNL     1     -11.299 -10.005  19.069  0.00  0.00    +0.124 A 
ATOM     27  C   UNL     1      -9.560 -11.446  19.934  0.00  0.00    +0.004 A 
ATOM     28  C   UNL     1     -10.869 -10.964  19.986  0.00  0.00    +0.046 A 
BRANCH  26   4
ATOM      4  O   UNL     1     -12.581  -9.550  19.148  0.00  0.00    -0.495 OA
ATOM     29  C   UNL     1     -13.306  -9.861  20.337  0.00  0.00    +0.277 C 
ENDBRANCH  26   4
ENDBRANCH  12  15
ENDBRANCH   7  12
BRANCH   8  13
ATOM     13  C   UNL     1      -4.196 -11.219  17.636  0.00  0.00    +0.124 C 
BRANCH  13  17
ATOM      3  O   UNL     1      -5.353 -11.865  19.682  0.00  0.00    -0.251 OA
ATOM     17  C   UNL     1      -4.325 -11.775  19.027  0.00  0.00    +0.305 C 
BRANCH  17   2
ATOM      2  O   UNL     1      -3.108 -12.178  19.474  0.00  0.00    -0.481 OA
ATOM     30  H   UNL     1      -3.070 -12.207  20.454  0.00  0.00    +0.295 HD
ENDBRANCH  17   2
ENDBRANCH  13  17
ENDBRANCH   8  13
TORSDOF 7
ENDMDL
MODEL 9
REMARK VINA RESULT:      -5.8     28.275     30.337
REMARK  Name = 51136744
REMARK  11 active torsions:
REMARK  status: ('A' for Active; 'I' for Inactive)
REMARK    1  A    between atoms: O_2  and  C_17
REMARK    2  A    between atoms: O_4  and  C_26
REMARK    3  A    between atoms: O_4  and  C_29
REMARK    4  A    between atoms: C_7  and  C_12
REMARK    5  A    between atoms: C_8  and  C_13
REMARK    6  A    between atoms: C_12  and  C_15
REMARK    7  A    between atoms: C_13  and  C_17
REMARK    8  A    between atoms: C_14  and  C_16
REMARK    9  A    between atoms: C_16  and  C_19
REMARK   10  A    between atoms: C_16  and  C_20
REMARK   11  A    between atoms: C_16  and  C_21
REMARK                            x       y       z     vdW  Elec       q    Type
REMARK                         _______ _______ _______ _____ _____    ______ ____
ROOT
ATOM      1  O   UNL     1     -10.680 -11.510  16.296  0.00  0.00    -0.275 OA
ATOM      5  N   UNL     1      -8.813 -11.288  17.664  0.00  0.00    -0.301 N 
ATOM      7  C   UNL     1      -6.689 -11.870  16.530  0.00  0.00    +0.016 C 
ATOM      8  C   UNL     1      -5.886 -11.246  17.698  0.00  0.00    +0.006 C 
ATOM      9  C   UNL     1      -8.073 -12.356  16.985  0.00  0.00    +0.112 C 
ATOM     10  C   UNL     1      -6.739 -10.162  18.382  0.00  0.00    +0.023 C 
ATOM     11  C   UNL     1      -8.117 -10.672  18.798  0.00  0.00    +0.108 C 
ATOM     14  C   UNL     1     -10.111 -10.980  17.254  0.00  0.00    +0.221 C 
ENDROOT
BRANCH  14  16
ATOM     16  C   UNL     1     -10.840  -9.927  18.051  0.00  0.00    +0.039 C 
ATOM     19  C   UNL     1     -10.223  -8.570  17.709  0.00  0.00    +0.020 C 
ATOM     20  C   UNL     1     -10.672 -10.231  19.541  0.00  0.00    +0.020 C 
ATOM     21  C   UNL     1     -12.321  -9.954  17.666  0.00  0.00    +0.020 C 
ENDBRANCH  14  16
BRANCH   7  12
ATOM     12  C   UNL     1      -5.933 -12.991  15.816  0.00  0.00    +0.061 C 
BRANCH  12  15
ATOM      6  N   UNL     1      -3.695 -12.402  15.175  0.00  0.00    -0.287 NA
ATOM     15  C   UNL     1      -4.943 -12.401  14.841  0.00  0.00    +0.044 C 
ATOM     18  C   UNL     1      -5.447 -11.847  13.559  0.00  0.00    +0.003 A 
ATOM     22  C   UNL     1      -4.591 -10.979  12.866  0.00  0.00    +0.005 A 
ATOM     23  C   UNL     1      -3.252 -10.661  13.463  0.00  0.00    +0.062 C 
ATOM     24  C   UNL     1      -2.727 -11.886  14.202  0.00  0.00    +0.146 C 
ATOM     25  C   UNL     1      -6.712 -12.147  13.050  0.00  0.00    +0.010 A 
ATOM     26  C   UNL     1      -5.021 -10.392  11.674  0.00  0.00    +0.124 A 
ATOM     27  C   UNL     1      -7.127 -11.568  11.850  0.00  0.00    +0.004 A 
ATOM     28  C   UNL     1      -6.285 -10.690  11.165  0.00  0.00    +0.046 A 
BRANCH  26   4
ATOM      4  O   UNL     1      -4.223  -9.527  10.985  0.00  0.00    -0.495 OA
ATOM     29  C   UNL     1      -4.842  -8.354  10.461  0.00  0.00    +0.277 C 
ENDBRANCH  26   4
ENDBRANCH  12  15
ENDBRANCH   7  12
BRANCH   8  13
ATOM     13  C   UNL     1      -5.376 -12.267  18.722  0.00  0.00    +0.124 C 
BRANCH  13  17
ATOM      3  O   UNL     1      -3.348 -12.283  20.074  0.00  0.00    -0.251 OA
ATOM     17  C   UNL     1      -3.912 -12.084  19.008  0.00  0.00    +0.305 C 
BRANCH  17   2
ATOM      2  O   UNL     1      -3.277 -11.652  17.887  0.00  0.00    -0.481 OA
ATOM     30  H   UNL     1      -2.424 -12.118  17.748  0.00  0.00    +0.295 HD
ENDBRANCH  17   2
ENDBRANCH  13  17
ENDBRANCH   8  13
TORSDOF 7
ENDMDL
MODEL 10
REMARK VINA RESULT:      -5.8     26.721     29.683
REMARK  Name = 51136744
REMARK  11 active torsions:
REMARK  status: ('A' for Active; 'I' for Inactive)
REMARK    1  A    between atoms: O_2  and  C_17
REMARK    2  A    between atoms: O_4  and  C_26
REMARK    3  A    between atoms: O_4  and  C_29
REMARK    4  A    between atoms: C_7  and  C_12
REMARK    5  A    between atoms: C_8  and  C_13
REMARK    6  A    between atoms: C_12  and  C_15
REMARK    7  A    between atoms: C_13  and  C_17
REMARK    8  A    between atoms: C_14  and  C_16
REMARK    9  A    between atoms: C_16  and  C_19
REMARK   10  A    between atoms: C_16  and  C_20
REMARK   11  A    between atoms: C_16  and  C_21
REMARK                            x       y       z     vdW  Elec       q    Type
REMARK                         _______ _______ _______ _____ _____    ______ ____
ROOT
ATOM      1  O   UNL     1     -11.085  -9.808  14.626  0.00  0.00    -0.275 OA
ATOM      5  N   UNL     1      -9.659 -10.042  16.447  0.00  0.00    -0.301 N 
ATOM      7  C   UNL     1      -7.348 -10.666  15.813  0.00  0.00    +0.016 C 
ATOM      8  C   UNL     1      -6.860 -10.348  17.248  0.00  0.00    +0.006 C 
ATOM      9  C   UNL     1      -8.832 -11.057  15.789  0.00  0.00    +0.112 C 
ATOM     10  C   UNL     1      -7.795  -9.304  17.885  0.00  0.00    +0.023 C 
ATOM     11  C   UNL     1      -9.265  -9.714  17.822  0.00  0.00    +0.108 C 
ATOM     14  C   UNL     1     -10.770  -9.519  15.783  0.00  0.00    +0.221 C 
ENDROOT
BRANCH  14  16
ATOM     16  C   UNL     1     -11.619  -8.539  16.553  0.00  0.00    +0.039 C 
ATOM     19  C   UNL     1     -10.786  -7.278  16.785  0.00  0.00    +0.020 C 
ATOM     20  C   UNL     1     -12.016  -9.173  17.888  0.00  0.00    +0.020 C 
ATOM     21  C   UNL     1     -12.866  -8.212  15.728  0.00  0.00    +0.020 C 
ENDBRANCH  14  16
BRANCH   7  12
ATOM     12  C   UNL     1      -6.500 -11.730  15.115  0.00  0.00    +0.061 C 
BRANCH  12  15
ATOM      6  N   UNL     1      -6.426 -10.820  12.894  0.00  0.00    -0.287 NA
ATOM     15  C   UNL     1      -5.753 -11.112  13.958  0.00  0.00    +0.044 C 
ATOM     18  C   UNL     1      -4.293 -10.877  14.093  0.00  0.00    +0.003 A 
ATOM     22  C   UNL     1      -3.574 -10.676  12.907  0.00  0.00    +0.005 A 
ATOM     23  C   UNL     1      -4.309 -10.726  11.601  0.00  0.00    +0.062 C 
ATOM     24  C   UNL     1      -5.712 -10.164  11.793  0.00  0.00    +0.146 C 
ATOM     25  C   UNL     1      -3.641 -10.866  15.327  0.00  0.00    +0.010 A 
ATOM     26  C   UNL     1      -2.190 -10.490  12.963  0.00  0.00    +0.124 A 
ATOM     27  C   UNL     1      -2.261 -10.663  15.374  0.00  0.00    +0.004 A 
ATOM     28  C   UNL     1      -1.536 -10.479  14.195  0.00  0.00    +0.046 A 
BRANCH  26   4
ATOM      4  O   UNL     1      -1.455 -10.313  11.829  0.00  0.00    -0.495 OA
ATOM     29  C   UNL     1      -0.919  -9.011  11.601  0.00  0.00    +0.277 C 
ENDBRANCH  26   4
ENDBRANCH  12  15
ENDBRANCH   7  12
BRANCH   8  13
ATOM     13  C   UNL     1      -6.723 -11.582  18.149  0.00  0.00    +0.124 C 
BRANCH  13  17
ATOM      3  O   UNL     1      -6.189 -11.034  20.463  0.00  0.00    -0.251 OA
ATOM     17  C   UNL     1      -5.831 -11.312  19.328  0.00  0.00    +0.305 C 
BRANCH  17   2
ATOM      2  O   UNL     1      -4.530 -11.421  18.954  0.00  0.00    -0.481 OA
ATOM     30  H   UNL     1      -4.068 -10.556  18.979  0.00  0.00    +0.295 HD
ENDBRANCH  17   2
ENDBRANCH  13  17
ENDBRANCH   8  13
TORSDOF 7
ENDMDL
