MODEL 1
REMARK VINA RESULT:      -7.1      0.000      0.000
REMARK  Name = 28959956
REMARK  8 active torsions:
REMARK  status: ('A' for Active; 'I' for Inactive)
REMARK    1  A    between atoms: O_3  and  C_22
REMARK    2  A    between atoms: N_7  and  C_15
REMARK    3  A    between atoms: N_8  and  C_24
REMARK    4  A    between atoms: C_9  and  C_12
REMARK    5  A    between atoms: C_10  and  C_16
REMARK    6  A    between atoms: C_12  and  C_15
REMARK    7  A    between atoms: C_16  and  C_22
REMARK    8  A    between atoms: C_21  and  C_23
REMARK                            x       y       z     vdW  Elec       q    Type
REMARK                         _______ _______ _______ _____ _____    ______ ____
ROOT
ATOM      4  O   UNL     1      13.250   8.933  15.131  0.00  0.00    -0.269 OA
ATOM      6  N   UNL     1      12.600   9.538  17.296  0.00  0.00    -0.297 N 
ATOM      9  C   UNL     1      13.060   9.609  19.737  0.00  0.00    +0.011 C 
ATOM     10  C   UNL     1      12.047   8.449  19.922  0.00  0.00    +0.006 C 
ATOM     11  C   UNL     1      12.710  10.413  18.471  0.00  0.00    +0.112 C 
ATOM     13  C   UNL     1      11.932   7.591  18.651  0.00  0.00    +0.023 C 
ATOM     14  C   UNL     1      11.630   8.453  17.428  0.00  0.00    +0.108 C 
ATOM     21  C   UNL     1      13.335   9.667  16.115  0.00  0.00    +0.253 C 
ENDROOT
BRANCH  21  23
ATOM      1  S   UNL     1      14.203  11.847  14.694  0.00  0.00    -0.092 S 
ATOM     23  C   UNL     1      14.300  10.768  16.019  0.00  0.00    +0.074 A 
ATOM     25  C   UNL     1      15.331  11.089  16.874  0.00  0.00    +0.021 A 
ATOM     28  C   UNL     1      16.051  12.237  16.436  0.00  0.00    +0.008 A 
ATOM     31  C   UNL     1      15.542  12.750  15.262  0.00  0.00    +0.046 A 
ENDBRANCH  21  23
BRANCH   9  12
ATOM     12  C   UNL     1      14.524   9.156  19.693  0.00  0.00    +0.020 C 
BRANCH  12  15
ATOM     15  C   UNL     1      15.337   9.839  20.784  0.00  0.00    +0.085 C 
BRANCH  15   7
ATOM      7  N   UNL     1      16.302   8.896  21.348  0.00  0.00    -0.299 NA
ATOM      8  N   UNL     1      18.612   7.215  21.347  0.00  0.00    -0.327 N 
ATOM     17  C   UNL     1      17.648   9.482  21.362  0.00  0.00    +0.103 C 
ATOM     18  C   UNL     1      16.311   7.646  20.578  0.00  0.00    +0.103 C 
ATOM     19  C   UNL     1      18.658   8.527  22.003  0.00  0.00    +0.120 C 
ATOM     20  C   UNL     1      17.275   6.629  21.193  0.00  0.00    +0.120 C 
BRANCH   8  24
ATOM      2  F   UNL     1      22.919   3.778  21.788  0.00  0.00    -0.205 F 
ATOM     24  C   UNL     1      19.702   6.345  21.459  0.00  0.00    +0.030 A 
ATOM     26  C   UNL     1      19.946   5.402  20.461  0.00  0.00    +0.026 A 
ATOM     27  C   UNL     1      20.545   6.421  22.568  0.00  0.00    +0.026 A 
ATOM     29  C   UNL     1      21.033   4.534  20.571  0.00  0.00    +0.040 A 
ATOM     30  C   UNL     1      21.631   5.554  22.678  0.00  0.00    +0.040 A 
ATOM     32  C   UNL     1      21.876   4.611  21.681  0.00  0.00    +0.124 A 
ENDBRANCH   8  24
ENDBRANCH  15   7
ENDBRANCH  12  15
ENDBRANCH   9  12
BRANCH  10  16
ATOM     16  C   UNL     1      12.353   7.575  21.137  0.00  0.00    +0.124 C 
BRANCH  16  22
ATOM      5  O   UNL     1      11.227   5.456  21.565  0.00  0.00    -0.251 OA
ATOM     22  C   UNL     1      11.197   6.674  21.477  0.00  0.00    +0.305 C 
BRANCH  22   3
ATOM      3  O   UNL     1      10.080   7.418  21.677  0.00  0.00    -0.481 OA
ATOM     33  H   UNL     1       9.318   7.082  21.157  0.00  0.00    +0.295 HD
ENDBRANCH  22   3
ENDBRANCH  16  22
ENDBRANCH  10  16
TORSDOF 8
ENDMDL
MODEL 2
REMARK VINA RESULT:      -6.8      3.090      4.049
REMARK  Name = 28959956
REMARK  8 active torsions:
REMARK  status: ('A' for Active; 'I' for Inactive)
REMARK    1  A    between atoms: O_3  and  C_22
REMARK    2  A    between atoms: N_7  and  C_15
REMARK    3  A    between atoms: N_8  and  C_24
REMARK    4  A    between atoms: C_9  and  C_12
REMARK    5  A    between atoms: C_10  and  C_16
REMARK    6  A    between atoms: C_12  and  C_15
REMARK    7  A    between atoms: C_16  and  C_22
REMARK    8  A    between atoms: C_21  and  C_23
REMARK                            x       y       z     vdW  Elec       q    Type
REMARK                         _______ _______ _______ _____ _____    ______ ____
ROOT
ATOM      4  O   UNL     1      14.605  13.691  21.514  0.00  0.00    -0.269 OA
ATOM      6  N   UNL     1      13.835  11.576  22.153  0.00  0.00    -0.297 N 
ATOM      9  C   UNL     1      13.341   9.207  21.586  0.00  0.00    +0.011 C 
ATOM     10  C   UNL     1      11.835   9.573  21.540  0.00  0.00    +0.006 C 
ATOM     11  C   UNL     1      14.087  10.176  22.522  0.00  0.00    +0.112 C 
ATOM     13  C   UNL     1      11.624  11.057  21.196  0.00  0.00    +0.023 C 
ATOM     14  C   UNL     1      12.425  11.960  22.130  0.00  0.00    +0.108 C 
ATOM     21  C   UNL     1      14.813  12.520  21.830  0.00  0.00    +0.253 C 
ENDROOT
BRANCH  21  23
ATOM      1  S   UNL     1      17.104  12.265  23.316  0.00  0.00    -0.092 S 
ATOM     23  C   UNL     1      16.217  12.098  21.862  0.00  0.00    +0.074 A 
ATOM     25  C   UNL     1      16.980  11.558  20.850  0.00  0.00    +0.021 A 
ATOM     28  C   UNL     1      18.310  11.278  21.275  0.00  0.00    +0.008 A 
ATOM     31  C   UNL     1      18.514  11.614  22.595  0.00  0.00    +0.046 A 
ENDBRANCH  21  23
BRANCH   9  12
ATOM     12  C   UNL     1      14.016   9.171  20.210  0.00  0.00    +0.020 C 
BRANCH  12  15
ATOM     15  C   UNL     1      14.400   7.747  19.831  0.00  0.00    +0.085 C 
BRANCH  15   7
ATOM      7  N   UNL     1      15.852   7.589  19.902  0.00  0.00    -0.299 NA
ATOM      8  N   UNL     1      18.308   6.424  20.782  0.00  0.00    -0.327 N 
ATOM     17  C   UNL     1      16.248   6.253  19.442  0.00  0.00    +0.103 C 
ATOM     18  C   UNL     1      16.326   7.803  21.275  0.00  0.00    +0.103 C 
ATOM     19  C   UNL     1      17.770   6.093  19.458  0.00  0.00    +0.120 C 
ATOM     20  C   UNL     1      17.851   7.697  21.352  0.00  0.00    +0.120 C 
BRANCH   8  24
ATOM      2  F   UNL     1      23.297   4.556  22.260  0.00  0.00    -0.205 F 
ATOM     24  C   UNL     1      19.570   5.951  21.156  0.00  0.00    +0.030 A 
ATOM     26  C   UNL     1      20.157   6.393  22.341  0.00  0.00    +0.026 A 
ATOM     27  C   UNL     1      20.243   5.038  20.343  0.00  0.00    +0.026 A 
ATOM     29  C   UNL     1      21.416   5.922  22.715  0.00  0.00    +0.040 A 
ATOM     30  C   UNL     1      21.501   4.568  20.717  0.00  0.00    +0.040 A 
ATOM     32  C   UNL     1      22.088   5.009  21.902  0.00  0.00    +0.124 A 
ENDBRANCH   8  24
ENDBRANCH  15   7
ENDBRANCH  12  15
ENDBRANCH   9  12
BRANCH  10  16
ATOM     16  C   UNL     1      11.030   8.682  20.595  0.00  0.00    +0.124 C 
BRANCH  16  22
ATOM      5  O   UNL     1      11.369   6.292  20.938  0.00  0.00    -0.251 OA
ATOM     22  C   UNL     1      10.772   7.327  21.196  0.00  0.00    +0.305 C 
BRANCH  22   3
ATOM      3  O   UNL     1       9.755   7.409  22.090  0.00  0.00    -0.481 OA
ATOM     33  H   UNL     1       9.321   6.540  22.231  0.00  0.00    +0.295 HD
ENDBRANCH  22   3
ENDBRANCH  16  22
ENDBRANCH  10  16
TORSDOF 8
ENDMDL
MODEL 3
REMARK VINA RESULT:      -6.7     16.748     20.282
REMARK  Name = 28959956
REMARK  8 active torsions:
REMARK  status: ('A' for Active; 'I' for Inactive)
REMARK    1  A    between atoms: O_3  and  C_22
REMARK    2  A    between atoms: N_7  and  C_15
REMARK    3  A    between atoms: N_8  and  C_24
REMARK    4  A    between atoms: C_9  and  C_12
REMARK    5  A    between atoms: C_10  and  C_16
REMARK    6  A    between atoms: C_12  and  C_15
REMARK    7  A    between atoms: C_16  and  C_22
REMARK    8  A    between atoms: C_21  and  C_23
REMARK                            x       y       z     vdW  Elec       q    Type
REMARK                         _______ _______ _______ _____ _____    ______ ____
ROOT
ATOM      4  O   UNL     1      12.140   5.850  -5.103  0.00  0.00    -0.269 OA
ATOM      6  N   UNL     1      12.236   4.493  -3.200  0.00  0.00    -0.297 N 
ATOM      9  C   UNL     1      12.195   4.253  -0.726  0.00  0.00    +0.011 C 
ATOM     10  C   UNL     1      13.733   4.053  -0.759  0.00  0.00    +0.006 C 
ATOM     11  C   UNL     1      11.582   3.818  -2.070  0.00  0.00    +0.112 C 
ATOM     13  C   UNL     1      14.365   4.736  -1.983  0.00  0.00    +0.023 C 
ATOM     14  C   UNL     1      13.683   4.297  -3.276  0.00  0.00    +0.108 C 
ATOM     21  C   UNL     1      11.595   5.279  -4.159  0.00  0.00    +0.253 C 
ENDROOT
BRANCH  21  23
ATOM      1  S   UNL     1       9.116   4.563  -5.092  0.00  0.00    -0.092 S 
ATOM     23  C   UNL     1      10.142   5.453  -4.050  0.00  0.00    +0.074 A 
ATOM     25  C   UNL     1       9.432   6.266  -3.195  0.00  0.00    +0.021 A 
ATOM     28  C   UNL     1       8.026   6.156  -3.396  0.00  0.00    +0.008 A 
ATOM     31  C   UNL     1       7.716   5.264  -4.399  0.00  0.00    +0.046 A 
ENDBRANCH  21  23
BRANCH   9  12
ATOM     12  C   UNL     1      11.760   5.681  -0.380  0.00  0.00    +0.020 C 
BRANCH  12  15
ATOM     15  C   UNL     1      10.439   5.678   0.377  0.00  0.00    +0.085 C 
BRANCH  15   7
ATOM      7  N   UNL     1      10.692   5.714   1.817  0.00  0.00    -0.299 NA
ATOM      8  N   UNL     1      10.025   5.505   4.587  0.00  0.00    -0.327 N 
ATOM     17  C   UNL     1      10.420   4.403   2.420  0.00  0.00    +0.103 C 
ATOM     18  C   UNL     1       9.861   6.740   2.461  0.00  0.00    +0.103 C 
ATOM     19  C   UNL     1      10.735   4.410   3.918  0.00  0.00    +0.120 C 
ATOM     20  C   UNL     1      10.159   6.826   3.959  0.00  0.00    +0.120 C 
BRANCH   8  24
ATOM      2  F   UNL     1       9.190   5.298  10.048  0.00  0.00    -0.205 F 
ATOM     24  C   UNL     1       9.813   5.453   5.969  0.00  0.00    +0.030 A 
ATOM     26  C   UNL     1       9.538   6.623   6.677  0.00  0.00    +0.026 A 
ATOM     27  C   UNL     1       9.879   4.231   6.640  0.00  0.00    +0.026 A 
ATOM     29  C   UNL     1       9.327   6.571   8.055  0.00  0.00    +0.040 A 
ATOM     30  C   UNL     1       9.667   4.180   8.017  0.00  0.00    +0.040 A 
ATOM     32  C   UNL     1       9.392   5.349   8.725  0.00  0.00    +0.124 A 
ENDBRANCH   8  24
ENDBRANCH  15   7
ENDBRANCH  12  15
ENDBRANCH   9  12
BRANCH  10  16
ATOM     16  C   UNL     1      14.424   4.503   0.527  0.00  0.00    +0.124 C 
BRANCH  16  22
ATOM      5  O   UNL     1      13.421   2.870   2.033  0.00  0.00    -0.251 OA
ATOM     22  C   UNL     1      14.409   3.423   1.573  0.00  0.00    +0.305 C 
BRANCH  22   3
ATOM      3  O   UNL     1      15.680   3.135   1.952  0.00  0.00    -0.481 OA
ATOM     33  H   UNL     1      16.124   2.534   1.316  0.00  0.00    +0.295 HD
ENDBRANCH  22   3
ENDBRANCH  16  22
ENDBRANCH  10  16
TORSDOF 8
ENDMDL
MODEL 4
REMARK VINA RESULT:      -6.7     27.601     29.967
REMARK  Name = 28959956
REMARK  8 active torsions:
REMARK  status: ('A' for Active; 'I' for Inactive)
REMARK    1  A    between atoms: O_3  and  C_22
REMARK    2  A    between atoms: N_7  and  C_15
REMARK    3  A    between atoms: N_8  and  C_24
REMARK    4  A    between atoms: C_9  and  C_12
REMARK    5  A    between atoms: C_10  and  C_16
REMARK    6  A    between atoms: C_12  and  C_15
REMARK    7  A    between atoms: C_16  and  C_22
REMARK    8  A    between atoms: C_21  and  C_23
REMARK                            x       y       z     vdW  Elec       q    Type
REMARK                         _______ _______ _______ _____ _____    ______ ____
ROOT
ATOM      4  O   UNL     1      -1.723 -10.739  16.641  0.00  0.00    -0.269 OA
ATOM      6  N   UNL     1      -3.894 -11.611  16.680  0.00  0.00    -0.297 N 
ATOM      9  C   UNL     1      -6.330 -11.331  16.276  0.00  0.00    +0.011 C 
ATOM     10  C   UNL     1      -6.527 -11.181  17.807  0.00  0.00    +0.006 C 
ATOM     11  C   UNL     1      -5.067 -12.164  15.990  0.00  0.00    +0.112 C 
ATOM     13  C   UNL     1      -5.258 -10.643  18.490  0.00  0.00    +0.023 C 
ATOM     14  C   UNL     1      -4.037 -11.485  18.129  0.00  0.00    +0.108 C 
ATOM     21  C   UNL     1      -2.705 -11.208  16.067  0.00  0.00    +0.253 C 
ENDROOT
BRANCH  21  23
ATOM      1  S   UNL     1      -2.056 -12.834  13.954  0.00  0.00    -0.092 S 
ATOM     23  C   UNL     1      -2.597 -11.348  14.611  0.00  0.00    +0.074 A 
ATOM     25  C   UNL     1      -2.877 -10.421  13.632  0.00  0.00    +0.021 A 
ATOM     28  C   UNL     1      -2.646 -10.938  12.325  0.00  0.00    +0.008 A 
ATOM     31  C   UNL     1      -2.197 -12.240  12.355  0.00  0.00    +0.046 A 
ENDBRANCH  21  23
BRANCH   9  12
ATOM     12  C   UNL     1      -6.270  -9.998  15.521  0.00  0.00    +0.020 C 
BRANCH  12  15
ATOM     15  C   UNL     1      -7.193 -10.017  14.311  0.00  0.00    +0.085 C 
BRANCH  15   7
ATOM      7  N   UNL     1      -6.411 -10.236  13.094  0.00  0.00    -0.299 NA
ATOM      8  N   UNL     1      -5.992 -10.550  10.286  0.00  0.00    -0.327 N 
ATOM     17  C   UNL     1      -6.531  -9.085  12.191  0.00  0.00    +0.103 C 
ATOM     18  C   UNL     1      -6.857 -11.455  12.408  0.00  0.00    +0.103 C 
ATOM     19  C   UNL     1      -5.673  -9.276  10.938  0.00  0.00    +0.120 C 
ATOM     20  C   UNL     1      -6.008 -11.727  11.164  0.00  0.00    +0.120 C 
BRANCH   8  24
ATOM      2  F   UNL     1      -4.709 -11.304   4.961  0.00  0.00    -0.205 F 
ATOM     24  C   UNL     1      -5.667 -10.741   8.938  0.00  0.00    +0.030 A 
ATOM     26  C   UNL     1      -6.218  -9.908   7.964  0.00  0.00    +0.026 A 
ATOM     27  C   UNL     1      -4.794 -11.764   8.569  0.00  0.00    +0.026 A 
ATOM     29  C   UNL     1      -5.894 -10.098   6.620  0.00  0.00    +0.040 A 
ATOM     30  C   UNL     1      -4.471 -11.953   7.226  0.00  0.00    +0.040 A 
ATOM     32  C   UNL     1      -5.020 -11.121   6.252  0.00  0.00    +0.124 A 
ENDBRANCH   8  24
ENDBRANCH  15   7
ENDBRANCH  12  15
ENDBRANCH   9  12
BRANCH  10  16
ATOM     16  C   UNL     1      -7.740 -10.327  18.174  0.00  0.00    +0.124 C 
BRANCH  16  22
ATOM      5  O   UNL     1      -8.139 -11.845  20.038  0.00  0.00    -0.251 OA
ATOM     22  C   UNL     1      -8.485 -10.898  19.349  0.00  0.00    +0.305 C 
BRANCH  22   3
ATOM      3  O   UNL     1      -9.632 -10.200  19.546  0.00  0.00    -0.481 OA
ATOM     33  H   UNL     1     -10.369 -10.780  19.836  0.00  0.00    +0.295 HD
ENDBRANCH  22   3
ENDBRANCH  16  22
ENDBRANCH  10  16
TORSDOF 8
ENDMDL
MODEL 5
REMARK VINA RESULT:      -6.6     27.766     30.911
REMARK  Name = 28959956
REMARK  8 active torsions:
REMARK  status: ('A' for Active; 'I' for Inactive)
REMARK    1  A    between atoms: O_3  and  C_22
REMARK    2  A    between atoms: N_7  and  C_15
REMARK    3  A    between atoms: N_8  and  C_24
REMARK    4  A    between atoms: C_9  and  C_12
REMARK    5  A    between atoms: C_10  and  C_16
REMARK    6  A    between atoms: C_12  and  C_15
REMARK    7  A    between atoms: C_16  and  C_22
REMARK    8  A    between atoms: C_21  and  C_23
REMARK                            x       y       z     vdW  Elec       q    Type
REMARK                         _______ _______ _______ _____ _____    ______ ____
ROOT
ATOM      4  O   UNL     1      -1.805 -10.148  13.092  0.00  0.00    -0.269 OA
ATOM      6  N   UNL     1      -3.343 -11.289  14.435  0.00  0.00    -0.297 N 
ATOM      9  C   UNL     1      -5.433 -11.296  15.781  0.00  0.00    +0.011 C 
ATOM     10  C   UNL     1      -4.561 -11.274  17.063  0.00  0.00    +0.006 C 
ATOM     11  C   UNL     1      -4.647 -11.941  14.624  0.00  0.00    +0.112 C 
ATOM     13  C   UNL     1      -3.191 -10.626  16.804  0.00  0.00    +0.023 C 
ATOM     14  C   UNL     1      -2.485 -11.280  15.619  0.00  0.00    +0.108 C 
ATOM     21  C   UNL     1      -2.893 -10.700  13.252  0.00  0.00    +0.253 C 
ENDROOT
BRANCH  21  23
ATOM      1  S   UNL     1      -3.584 -11.963  10.917  0.00  0.00    -0.092 S 
ATOM     23  C   UNL     1      -3.782 -10.727  12.085  0.00  0.00    +0.074 A 
ATOM     25  C   UNL     1      -4.808  -9.868  11.762  0.00  0.00    +0.021 A 
ATOM     28  C   UNL     1      -5.442 -10.229  10.538  0.00  0.00    +0.008 A 
ATOM     31  C   UNL     1      -4.875 -11.351   9.973  0.00  0.00    +0.046 A 
ENDBRANCH  21  23
BRANCH   9  12
ATOM     12  C   UNL     1      -5.961  -9.918  15.363  0.00  0.00    +0.020 C 
BRANCH  12  15
ATOM     15  C   UNL     1      -7.436  -9.992  14.994  0.00  0.00    +0.085 C 
BRANCH  15   7
ATOM      7  N   UNL     1      -8.257  -9.760  16.181  0.00  0.00    -0.299 NA
ATOM      8  N   UNL     1     -10.640  -9.822  17.757  0.00  0.00    -0.327 N 
ATOM     17  C   UNL     1      -8.765 -11.031  16.712  0.00  0.00    +0.103 C 
ATOM     18  C   UNL     1      -9.380  -8.868  15.866  0.00  0.00    +0.103 C 
ATOM     19  C   UNL     1      -9.580 -10.810  17.989  0.00  0.00    +0.120 C 
ATOM     20  C   UNL     1     -10.214  -8.572  17.115  0.00  0.00    +0.120 C 
BRANCH   8  24
ATOM      2  F   UNL     1     -15.011  -9.647  21.137  0.00  0.00    -0.205 F 
ATOM     24  C   UNL     1     -11.746  -9.778  18.612  0.00  0.00    +0.030 A 
ATOM     26  C   UNL     1     -11.571  -9.932  19.987  0.00  0.00    +0.026 A 
ATOM     27  C   UNL     1     -13.025  -9.580  18.090  0.00  0.00    +0.026 A 
ATOM     29  C   UNL     1     -12.673  -9.888  20.841  0.00  0.00    +0.040 A 
ATOM     30  C   UNL     1     -14.126  -9.536  18.943  0.00  0.00    +0.040 A 
ATOM     32  C   UNL     1     -13.951  -9.689  20.318  0.00  0.00    +0.124 A 
ENDBRANCH   8  24
ENDBRANCH  15   7
ENDBRANCH  12  15
ENDBRANCH   9  12
BRANCH  10  16
ATOM     16  C   UNL     1      -5.256 -10.607  18.250  0.00  0.00    +0.124 C 
BRANCH  16  22
ATOM      5  O   UNL     1      -6.102 -11.383  20.400  0.00  0.00    -0.251 OA
ATOM     22  C   UNL     1      -5.707 -11.618  19.268  0.00  0.00    +0.305 C 
BRANCH  22   3
ATOM      3  O   UNL     1      -5.611 -12.867  18.747  0.00  0.00    -0.481 OA
ATOM     33  H   UNL     1      -4.949 -13.414  19.223  0.00  0.00    +0.295 HD
ENDBRANCH  22   3
ENDBRANCH  16  22
ENDBRANCH  10  16
TORSDOF 8
ENDMDL
MODEL 6
REMARK VINA RESULT:      -6.5     26.918     30.524
REMARK  Name = 28959956
REMARK  8 active torsions:
REMARK  status: ('A' for Active; 'I' for Inactive)
REMARK    1  A    between atoms: O_3  and  C_22
REMARK    2  A    between atoms: N_7  and  C_15
REMARK    3  A    between atoms: N_8  and  C_24
REMARK    4  A    between atoms: C_9  and  C_12
REMARK    5  A    between atoms: C_10  and  C_16
REMARK    6  A    between atoms: C_12  and  C_15
REMARK    7  A    between atoms: C_16  and  C_22
REMARK    8  A    between atoms: C_21  and  C_23
REMARK                            x       y       z     vdW  Elec       q    Type
REMARK                         _______ _______ _______ _____ _____    ______ ____
ROOT
ATOM      4  O   UNL     1      -7.920 -11.482  18.774  0.00  0.00    -0.269 OA
ATOM      6  N   UNL     1      -6.302 -10.359  17.510  0.00  0.00    -0.297 N 
ATOM      9  C   UNL     1      -4.814 -10.261  15.522  0.00  0.00    +0.011 C 
ATOM     10  C   UNL     1      -3.622 -10.623  16.445  0.00  0.00    +0.006 C 
ATOM     11  C   UNL     1      -5.915  -9.560  16.339  0.00  0.00    +0.112 C 
ATOM     13  C   UNL     1      -4.083 -11.417  17.678  0.00  0.00    +0.023 C 
ATOM     14  C   UNL     1      -5.204 -10.690  18.416  0.00  0.00    +0.108 C 
ATOM     21  C   UNL     1      -7.593 -10.808  17.798  0.00  0.00    +0.253 C 
ENDROOT
BRANCH  21  23
ATOM      1  S   UNL     1      -9.588  -9.040  17.148  0.00  0.00    -0.092 S 
ATOM     23  C   UNL     1      -8.670 -10.456  16.865  0.00  0.00    +0.074 A 
ATOM     25  C   UNL     1      -9.083 -11.123  15.733  0.00  0.00    +0.021 A 
ATOM     28  C   UNL     1     -10.168 -10.462  15.089  0.00  0.00    +0.008 A 
ATOM     31  C   UNL     1     -10.543  -9.316  15.754  0.00  0.00    +0.046 A 
ENDBRANCH  21  23
BRANCH   9  12
ATOM     12  C   UNL     1      -5.397 -11.456  14.759  0.00  0.00    +0.020 C 
BRANCH  12  15
ATOM     15  C   UNL     1      -5.042 -11.383  13.280  0.00  0.00    +0.085 C 
BRANCH  15   7
ATOM      7  N   UNL     1      -5.810 -10.318  12.638  0.00  0.00    -0.299 NA
ATOM      8  N   UNL     1      -7.320  -9.090  10.546  0.00  0.00    -0.327 N 
ATOM     17  C   UNL     1      -7.172 -10.776  12.336  0.00  0.00    +0.103 C 
ATOM     18  C   UNL     1      -5.148  -9.878  11.403  0.00  0.00    +0.103 C 
ATOM     19  C   UNL     1      -8.006  -9.653  11.714  0.00  0.00    +0.120 C 
ATOM     20  C   UNL     1      -5.913  -8.725  10.751  0.00  0.00    +0.120 C 
BRANCH   8  24
ATOM      2  F   UNL     1     -10.209  -6.285   6.758  0.00  0.00    -0.205 F 
ATOM     24  C   UNL     1      -8.051  -8.380   9.587  0.00  0.00    +0.030 A 
ATOM     26  C   UNL     1      -9.445  -8.432   9.594  0.00  0.00    +0.026 A 
ATOM     27  C   UNL     1      -7.386  -7.621   8.623  0.00  0.00    +0.026 A 
ATOM     29  C   UNL     1     -10.175  -7.724   8.639  0.00  0.00    +0.040 A 
ATOM     30  C   UNL     1      -8.116  -6.914   7.669  0.00  0.00    +0.040 A 
ATOM     32  C   UNL     1      -9.509  -6.964   7.676  0.00  0.00    +0.124 A 
ENDBRANCH   8  24
ENDBRANCH  15   7
ENDBRANCH  12  15
ENDBRANCH   9  12
BRANCH  10  16
ATOM     16  C   UNL     1      -2.502 -11.363  15.715  0.00  0.00    +0.124 C 
BRANCH  16  22
ATOM      5  O   UNL     1      -1.485  -9.870  14.078  0.00  0.00    -0.251 OA
ATOM     22  C   UNL     1      -1.470 -10.413  15.173  0.00  0.00    +0.305 C 
BRANCH  22   3
ATOM      3  O   UNL     1      -0.486 -10.233  16.090  0.00  0.00    -0.481 OA
ATOM     33  H   UNL     1      -0.011  -9.385  15.956  0.00  0.00    +0.295 HD
ENDBRANCH  22   3
ENDBRANCH  16  22
ENDBRANCH  10  16
TORSDOF 8
ENDMDL
MODEL 7
REMARK VINA RESULT:      -6.4     27.253     30.379
REMARK  Name = 28959956
REMARK  8 active torsions:
REMARK  status: ('A' for Active; 'I' for Inactive)
REMARK    1  A    between atoms: O_3  and  C_22
REMARK    2  A    between atoms: N_7  and  C_15
REMARK    3  A    between atoms: N_8  and  C_24
REMARK    4  A    between atoms: C_9  and  C_12
REMARK    5  A    between atoms: C_10  and  C_16
REMARK    6  A    between atoms: C_12  and  C_15
REMARK    7  A    between atoms: C_16  and  C_22
REMARK    8  A    between atoms: C_21  and  C_23
REMARK                            x       y       z     vdW  Elec       q    Type
REMARK                         _______ _______ _______ _____ _____    ______ ____
ROOT
ATOM      4  O   UNL     1      -8.409 -11.509  18.863  0.00  0.00    -0.269 OA
ATOM      6  N   UNL     1      -6.694 -10.344  17.780  0.00  0.00    -0.297 N 
ATOM      9  C   UNL     1      -5.296  -9.963  15.761  0.00  0.00    +0.011 C 
ATOM     10  C   UNL     1      -4.135 -10.705  16.472  0.00  0.00    +0.006 C 
ATOM     11  C   UNL     1      -6.239  -9.341  16.807  0.00  0.00    +0.112 C 
ATOM     13  C   UNL     1      -4.659 -11.709  17.513  0.00  0.00    +0.023 C 
ATOM     14  C   UNL     1      -5.622 -11.040  18.490  0.00  0.00    +0.108 C 
ATOM     21  C   UNL     1      -8.025 -10.666  18.054  0.00  0.00    +0.253 C 
ENDROOT
BRANCH  21  23
ATOM      1  S   UNL     1      -9.778 -10.679  15.943  0.00  0.00    -0.092 S 
ATOM     23  C   UNL     1      -9.073  -9.947  17.321  0.00  0.00    +0.074 A 
ATOM     25  C   UNL     1      -9.611  -8.706  17.580  0.00  0.00    +0.021 A 
ATOM     28  C   UNL     1     -10.616  -8.351  16.635  0.00  0.00    +0.008 A 
ATOM     31  C   UNL     1     -10.808  -9.335  15.690  0.00  0.00    +0.046 A 
ENDBRANCH  21  23
BRANCH   9  12
ATOM     12  C   UNL     1      -6.088 -10.839  14.783  0.00  0.00    +0.020 C 
BRANCH  12  15
ATOM     15  C   UNL     1      -6.791  -9.985  13.736  0.00  0.00    +0.085 C 
BRANCH  15   7
ATOM      7  N   UNL     1      -6.073 -10.068  12.465  0.00  0.00    -0.299 NA
ATOM      8  N   UNL     1      -5.758 -10.625   9.680  0.00  0.00    -0.327 N 
ATOM     17  C   UNL     1      -6.708  -9.209  11.458  0.00  0.00    +0.103 C 
ATOM     18  C   UNL     1      -6.037 -11.455  11.984  0.00  0.00    +0.103 C 
ATOM     19  C   UNL     1      -5.933  -9.242  10.138  0.00  0.00    +0.120 C 
ATOM     20  C   UNL     1      -5.239 -11.564  10.683  0.00  0.00    +0.120 C 
BRANCH   8  24
ATOM      2  F   UNL     1      -4.652 -11.634   4.358  0.00  0.00    -0.205 F 
ATOM     24  C   UNL     1      -5.478 -10.880   8.334  0.00  0.00    +0.030 A 
ATOM     26  C   UNL     1      -6.082 -10.112   7.338  0.00  0.00    +0.026 A 
ATOM     27  C   UNL     1      -4.596 -11.904   7.986  0.00  0.00    +0.026 A 
ATOM     29  C   UNL     1      -5.803 -10.366   5.995  0.00  0.00    +0.040 A 
ATOM     30  C   UNL     1      -4.317 -12.157   6.643  0.00  0.00    +0.040 A 
ATOM     32  C   UNL     1      -4.920 -11.389   5.648  0.00  0.00    +0.124 A 
ENDBRANCH   8  24
ENDBRANCH  15   7
ENDBRANCH  12  15
ENDBRANCH   9  12
BRANCH  10  16
ATOM     16  C   UNL     1      -3.175 -11.390  15.500  0.00  0.00    +0.124 C 
BRANCH  16  22
ATOM      5  O   UNL     1      -1.426  -9.979  14.556  0.00  0.00    -0.251 OA
ATOM     22  C   UNL     1      -1.842 -10.695  15.454  0.00  0.00    +0.305 C 
BRANCH  22   3
ATOM      3  O   UNL     1      -1.139 -10.978  16.580  0.00  0.00    -0.481 OA
ATOM     33  H   UNL     1      -1.560 -10.597  17.380  0.00  0.00    +0.295 HD
ENDBRANCH  22   3
ENDBRANCH  16  22
ENDBRANCH  10  16
TORSDOF 8
ENDMDL
MODEL 8
REMARK VINA RESULT:      -6.4     14.497     18.063
REMARK  Name = 28959956
REMARK  8 active torsions:
REMARK  status: ('A' for Active; 'I' for Inactive)
REMARK    1  A    between atoms: O_3  and  C_22
REMARK    2  A    between atoms: N_7  and  C_15
REMARK    3  A    between atoms: N_8  and  C_24
REMARK    4  A    between atoms: C_9  and  C_12
REMARK    5  A    between atoms: C_10  and  C_16
REMARK    6  A    between atoms: C_12  and  C_15
REMARK    7  A    between atoms: C_16  and  C_22
REMARK    8  A    between atoms: C_21  and  C_23
REMARK                            x       y       z     vdW  Elec       q    Type
REMARK                         _______ _______ _______ _____ _____    ______ ____
ROOT
ATOM      4  O   UNL     1      10.629  11.074   5.303  0.00  0.00    -0.269 OA
ATOM      6  N   UNL     1      11.247   9.067   6.334  0.00  0.00    -0.297 N 
ATOM      9  C   UNL     1      11.027   6.601   6.543  0.00  0.00    +0.011 C 
ATOM     10  C   UNL     1      10.186   6.824   7.827  0.00  0.00    +0.006 C 
ATOM     11  C   UNL     1      11.978   7.792   6.326  0.00  0.00    +0.112 C 
ATOM     13  C   UNL     1       9.480   8.190   7.810  0.00  0.00    +0.023 C 
ATOM     14  C   UNL     1      10.470   9.321   7.546  0.00  0.00    +0.108 C 
ATOM     21  C   UNL     1      11.244  10.008   5.303  0.00  0.00    +0.253 C 
ENDROOT
BRANCH  21  23
ATOM      1  S   UNL     1      13.664  10.240   4.033  0.00  0.00    -0.092 S 
ATOM     23  C   UNL     1      12.035   9.720   4.102  0.00  0.00    +0.074 A 
ATOM     25  C   UNL     1      11.654   9.059   2.955  0.00  0.00    +0.021 A 
ATOM     28  C   UNL     1      12.714   8.978   2.007  0.00  0.00    +0.008 A 
ATOM     31  C   UNL     1      13.865   9.580   2.465  0.00  0.00    +0.046 A 
ENDBRANCH  21  23
BRANCH   9  12
ATOM     12  C   UNL     1      10.187   6.354   5.284  0.00  0.00    +0.020 C 
BRANCH  12  15
ATOM     15  C   UNL     1      10.381   4.933   4.773  0.00  0.00    +0.085 C 
BRANCH  15   7
ATOM      7  N   UNL     1      11.002   4.962   3.450  0.00  0.00    -0.299 NA
ATOM      8  N   UNL     1      11.216   4.401   0.656  0.00  0.00    -0.327 N 
ATOM     17  C   UNL     1      10.129   5.642   2.485  0.00  0.00    +0.103 C 
ATOM     18  C   UNL     1      11.290   3.599   2.985  0.00  0.00    +0.103 C 
ATOM     19  C   UNL     1      10.792   5.731   1.108  0.00  0.00    +0.120 C 
ATOM     20  C   UNL     1      11.993   3.619   1.626  0.00  0.00    +0.120 C 
BRANCH   8  24
ATOM      2  F   UNL     1      12.105   3.490  -4.724  0.00  0.00    -0.205 F 
ATOM     24  C   UNL     1      11.441   4.170  -0.705  0.00  0.00    +0.030 A 
ATOM     26  C   UNL     1      12.553   3.434  -1.113  0.00  0.00    +0.026 A 
ATOM     27  C   UNL     1      10.554   4.678  -1.655  0.00  0.00    +0.026 A 
ATOM     29  C   UNL     1      12.778   3.204  -2.471  0.00  0.00    +0.040 A 
ATOM     30  C   UNL     1      10.778   4.447  -3.012  0.00  0.00    +0.040 A 
ATOM     32  C   UNL     1      11.889   3.710  -3.420  0.00  0.00    +0.124 A 
ENDBRANCH   8  24
ENDBRANCH  15   7
ENDBRANCH  12  15
ENDBRANCH   9  12
BRANCH  10  16
ATOM     16  C   UNL     1       9.183   5.701   8.090  0.00  0.00    +0.124 C 
BRANCH  16  22
ATOM      5  O   UNL     1       9.937   4.579  10.117  0.00  0.00    -0.251 OA
ATOM     22  C   UNL     1       9.791   4.593   8.905  0.00  0.00    +0.305 C 
BRANCH  22   3
ATOM      3  O   UNL     1      10.169   3.579   8.087  0.00  0.00    -0.481 OA
ATOM     33  H   UNL     1      10.185   2.717   8.556  0.00  0.00    +0.295 HD
ENDBRANCH  22   3
ENDBRANCH  16  22
ENDBRANCH  10  16
TORSDOF 8
ENDMDL
MODEL 9
REMARK VINA RESULT:      -6.3     27.331     30.365
REMARK  Name = 28959956
REMARK  8 active torsions:
REMARK  status: ('A' for Active; 'I' for Inactive)
REMARK    1  A    between atoms: O_3  and  C_22
REMARK    2  A    between atoms: N_7  and  C_15
REMARK    3  A    between atoms: N_8  and  C_24
REMARK    4  A    between atoms: C_9  and  C_12
REMARK    5  A    between atoms: C_10  and  C_16
REMARK    6  A    between atoms: C_12  and  C_15
REMARK    7  A    between atoms: C_16  and  C_22
REMARK    8  A    between atoms: C_21  and  C_23
REMARK                            x       y       z     vdW  Elec       q    Type
REMARK                         _______ _______ _______ _____ _____    ______ ____
ROOT
ATOM      4  O   UNL     1      -4.791 -15.789  12.635  0.00  0.00    -0.269 OA
ATOM      6  N   UNL     1      -2.975 -14.356  12.984  0.00  0.00    -0.297 N 
ATOM      9  C   UNL     1      -2.039 -12.269  13.958  0.00  0.00    +0.011 C 
ATOM     10  C   UNL     1      -2.066 -11.642  12.540  0.00  0.00    +0.006 C 
ATOM     11  C   UNL     1      -1.925 -13.801  13.851  0.00  0.00    +0.112 C 
ATOM     13  C   UNL     1      -3.147 -12.287  11.656  0.00  0.00    +0.023 C 
ATOM     14  C   UNL     1      -3.005 -13.806  11.630  0.00  0.00    +0.108 C 
ATOM     21  C   UNL     1      -3.907 -15.327  13.356  0.00  0.00    +0.253 C 
ENDROOT
BRANCH  21  23
ATOM      1  S   UNL     1      -2.864 -17.218  15.047  0.00  0.00    -0.092 S 
ATOM     23  C   UNL     1      -3.846 -15.855  14.723  0.00  0.00    +0.074 A 
ATOM     25  C   UNL     1      -4.491 -15.402  15.853  0.00  0.00    +0.021 A 
ATOM     28  C   UNL     1      -4.174 -16.185  17.000  0.00  0.00    +0.008 A 
ATOM     31  C   UNL     1      -3.299 -17.206  16.703  0.00  0.00    +0.046 A 
ENDBRANCH  21  23
BRANCH   9  12
ATOM     12  C   UNL     1      -3.239 -11.884  14.832  0.00  0.00    +0.020 C 
BRANCH  12  15
ATOM     15  C   UNL     1      -2.801 -11.015  16.003  0.00  0.00    +0.085 C 
BRANCH  15   7
ATOM      7  N   UNL     1      -3.973 -10.442  16.662  0.00  0.00    -0.299 NA
ATOM      8  N   UNL     1      -6.684 -10.372  17.563  0.00  0.00    -0.327 N 
ATOM     17  C   UNL     1      -4.411 -11.299  17.771  0.00  0.00    +0.103 C 
ATOM     18  C   UNL     1      -5.071 -10.272  15.702  0.00  0.00    +0.103 C 
ATOM     19  C   UNL     1      -5.604 -10.682  18.506  0.00  0.00    +0.120 C 
ATOM     20  C   UNL     1      -6.285  -9.619  16.367  0.00  0.00    +0.120 C 
BRANCH   8  24
ATOM      2  F   UNL     1     -11.852  -9.750  19.423  0.00  0.00    -0.205 F 
ATOM     24  C   UNL     1      -7.992 -10.215  18.033  0.00  0.00    +0.030 A 
ATOM     26  C   UNL     1      -8.862  -9.332  17.394  0.00  0.00    +0.026 A 
ATOM     27  C   UNL     1      -8.426 -10.940  19.144  0.00  0.00    +0.026 A 
ATOM     29  C   UNL     1     -10.166  -9.175  17.862  0.00  0.00    +0.040 A 
ATOM     30  C   UNL     1      -9.730 -10.783  19.612  0.00  0.00    +0.040 A 
ATOM     32  C   UNL     1     -10.600  -9.901  18.972  0.00  0.00    +0.124 A 
ENDBRANCH   8  24
ENDBRANCH  15   7
ENDBRANCH  12  15
ENDBRANCH   9  12
BRANCH  10  16
ATOM     16  C   UNL     1      -2.221 -10.122  12.559  0.00  0.00    +0.124 C 
BRANCH  16  22
ATOM      5  O   UNL     1      -2.682  -9.390  10.280  0.00  0.00    -0.251 OA
ATOM     22  C   UNL     1      -1.910  -9.515  11.219  0.00  0.00    +0.305 C 
BRANCH  22   3
ATOM      3  O   UNL     1      -0.614  -9.114  11.188  0.00  0.00    -0.481 OA
ATOM     33  H   UNL     1      -0.509  -8.247  10.740  0.00  0.00    +0.295 HD
ENDBRANCH  22   3
ENDBRANCH  16  22
ENDBRANCH  10  16
TORSDOF 8
ENDMDL
MODEL 10
REMARK VINA RESULT:      -6.2     27.512     30.550
REMARK  Name = 28959956
REMARK  8 active torsions:
REMARK  status: ('A' for Active; 'I' for Inactive)
REMARK    1  A    between atoms: O_3  and  C_22
REMARK    2  A    between atoms: N_7  and  C_15
REMARK    3  A    between atoms: N_8  and  C_24
REMARK    4  A    between atoms: C_9  and  C_12
REMARK    5  A    between atoms: C_10  and  C_16
REMARK    6  A    between atoms: C_12  and  C_15
REMARK    7  A    between atoms: C_16  and  C_22
REMARK    8  A    between atoms: C_21  and  C_23
REMARK                            x       y       z     vdW  Elec       q    Type
REMARK                         _______ _______ _______ _____ _____    ______ ____
ROOT
ATOM      4  O   UNL     1      -8.704 -11.640  18.065  0.00  0.00    -0.269 OA
ATOM      6  N   UNL     1      -6.728 -10.589  17.384  0.00  0.00    -0.297 N 
ATOM      9  C   UNL     1      -5.046 -10.112  15.617  0.00  0.00    +0.011 C 
ATOM     10  C   UNL     1      -4.091 -11.119  16.309  0.00  0.00    +0.006 C 
ATOM     11  C   UNL     1      -6.027  -9.526  16.650  0.00  0.00    +0.112 C 
ATOM     13  C   UNL     1      -4.870 -12.183  17.101  0.00  0.00    +0.023 C 
ATOM     14  C   UNL     1      -5.854 -11.538  18.072  0.00  0.00    +0.108 C 
ATOM     21  C   UNL     1      -8.113 -10.749  17.457  0.00  0.00    +0.253 C 
ENDROOT
BRANCH  21  23
ATOM      1  S   UNL     1      -9.764 -10.258  15.321  0.00  0.00    -0.092 S 
ATOM     23  C   UNL     1      -8.958  -9.778  16.753  0.00  0.00    +0.074 A 
ATOM     25  C   UNL     1      -9.221  -8.465  17.079  0.00  0.00    +0.021 A 
ATOM     28  C   UNL     1     -10.096  -7.846  16.141  0.00  0.00    +0.008 A 
ATOM     31  C   UNL     1     -10.469  -8.709  15.134  0.00  0.00    +0.046 A 
ENDBRANCH  21  23
BRANCH   9  12
ATOM     12  C   UNL     1      -5.814 -10.698  14.426  0.00  0.00    +0.020 C 
BRANCH  12  15
ATOM     15  C   UNL     1      -6.629  -9.621  13.723  0.00  0.00    +0.085 C 
BRANCH  15   7
ATOM      7  N   UNL     1      -6.663  -9.884  12.285  0.00  0.00    -0.299 NA
ATOM      8  N   UNL     1      -6.881  -9.213   9.517  0.00  0.00    -0.327 N 
ATOM     17  C   UNL     1      -5.576  -9.168  11.605  0.00  0.00    +0.103 C 
ATOM     18  C   UNL     1      -7.956  -9.481  11.718  0.00  0.00    +0.103 C 
ATOM     19  C   UNL     1      -5.565  -9.479  10.107  0.00  0.00    +0.120 C 
ATOM     20  C   UNL     1      -8.025  -9.804  10.224  0.00  0.00    +0.120 C 
BRANCH   8  24
ATOM      2  F   UNL     1      -7.332  -8.411   4.065  0.00  0.00    -0.205 F 
ATOM     24  C   UNL     1      -6.996  -9.011   8.137  0.00  0.00    +0.030 A 
ATOM     26  C   UNL     1      -6.211  -9.754   7.256  0.00  0.00    +0.026 A 
ATOM     27  C   UNL     1      -7.893  -8.063   7.643  0.00  0.00    +0.026 A 
ATOM     29  C   UNL     1      -6.325  -9.552   5.880  0.00  0.00    +0.040 A 
ATOM     30  C   UNL     1      -8.007  -7.862   6.268  0.00  0.00    +0.040 A 
ATOM     32  C   UNL     1      -7.223  -8.606   5.386  0.00  0.00    +0.124 A 
ENDBRANCH   8  24
ENDBRANCH  15   7
ENDBRANCH  12  15
ENDBRANCH   9  12
BRANCH  10  16
ATOM     16  C   UNL     1      -3.112 -11.779  15.339  0.00  0.00    +0.124 C 
BRANCH  16  22
ATOM      5  O   UNL     1      -1.593 -10.280  14.162  0.00  0.00    -0.251 OA
ATOM     22  C   UNL     1      -1.875 -10.946  15.146  0.00  0.00    +0.305 C 
BRANCH  22   3
ATOM      3  O   UNL     1      -1.087 -11.035  16.247  0.00  0.00    -0.481 OA
ATOM     33  H   UNL     1      -0.408 -11.737  16.156  0.00  0.00    +0.295 HD
ENDBRANCH  22   3
ENDBRANCH  16  22
ENDBRANCH  10  16
TORSDOF 8
ENDMDL
