MODEL 1
REMARK VINA RESULT:      -6.9      0.000      0.000
REMARK  Name = 45784085
REMARK  3 active torsions:
REMARK  status: ('A' for Active; 'I' for Inactive)
REMARK    1  A    between atoms: N_3  and  C_9
REMARK    2  A    between atoms: C_5  and  C_10
REMARK    3  A    between atoms: C_9  and  C_11
REMARK                            x       y       z     vdW  Elec       q    Type
REMARK                         _______ _______ _______ _____ _____    ______ ____
ROOT
ATOM      3  N   UNL     1      12.041   4.229   1.425  0.00  0.00    -0.297 NA
ATOM      5  C   UNL     1      10.536   5.165   2.961  0.00  0.00    +0.090 C 
ATOM      6  C   UNL     1      11.507   6.252   2.464  0.00  0.00    +0.029 C 
ATOM      7  C   UNL     1      11.197   3.840   2.556  0.00  0.00    +0.097 C 
ATOM      8  C   UNL     1      12.665   5.488   1.836  0.00  0.00    +0.085 C 
ENDROOT
BRANCH   5  10
ATOM      1 CL   UNL     1       9.056   4.747  10.397  0.00  0.00    -0.083 Cl
ATOM      2  O   UNL     1       9.815   6.452   4.900  0.00  0.00    -0.439 OA
ATOM      4  N   UNL     1      10.250   4.269   5.327  0.00  0.00    -0.213 NA
ATOM     10  C   UNL     1      10.208   5.234   4.434  0.00  0.00    +0.201 A 
ATOM     12  C   UNL     1       9.854   4.892   6.485  0.00  0.00    +0.111 A 
ATOM     13  C   UNL     1       9.587   6.229   6.228  0.00  0.00    +0.155 A 
ATOM     16  C   UNL     1       9.692   4.408   7.792  0.00  0.00    +0.051 A 
ATOM     17  C   UNL     1       9.163   7.149   7.179  0.00  0.00    +0.050 A 
ATOM     20  C   UNL     1       9.265   5.308   8.780  0.00  0.00    +0.043 A 
ATOM     21  C   UNL     1       9.007   6.650   8.477  0.00  0.00    +0.024 A 
ENDBRANCH   5  10
BRANCH   3   9
ATOM      9  C   UNL     1      13.022   3.209   1.088  0.00  0.00    +0.119 C 
BRANCH   9  11
ATOM     11  C   UNL     1      14.024   3.705   0.080  0.00  0.00    -0.033 A 
ATOM     14  C   UNL     1      15.347   3.925   0.462  0.00  0.00    +0.005 A 
ATOM     15  C   UNL     1      13.630   3.943  -1.237  0.00  0.00    +0.005 A 
ATOM     18  C   UNL     1      16.276   4.385  -0.473  0.00  0.00    +0.000 A 
ATOM     19  C   UNL     1      14.558   4.403  -2.172  0.00  0.00    +0.000 A 
ATOM     22  C   UNL     1      15.881   4.624  -1.789  0.00  0.00    +0.000 A 
ENDBRANCH   9  11
ENDBRANCH   3   9
TORSDOF 3
ENDMDL
MODEL 2
REMARK VINA RESULT:      -6.9     22.676     25.473
REMARK  Name = 45784085
REMARK  3 active torsions:
REMARK  status: ('A' for Active; 'I' for Inactive)
REMARK    1  A    between atoms: N_3  and  C_9
REMARK    2  A    between atoms: C_5  and  C_10
REMARK    3  A    between atoms: C_9  and  C_11
REMARK                            x       y       z     vdW  Elec       q    Type
REMARK                         _______ _______ _______ _____ _____    ______ ____
ROOT
ATOM      3  N   UNL     1      -2.098 -11.041  13.669  0.00  0.00    -0.297 NA
ATOM      5  C   UNL     1      -3.178 -10.182  15.564  0.00  0.00    +0.090 C 
ATOM      6  C   UNL     1      -1.874 -10.880  15.988  0.00  0.00    +0.029 C 
ATOM      7  C   UNL     1      -3.437 -10.676  14.134  0.00  0.00    +0.097 C 
ATOM      8  C   UNL     1      -1.485 -11.745  14.796  0.00  0.00    +0.085 C 
ENDROOT
BRANCH   5  10
ATOM      1 CL   UNL     1      -9.473 -10.849  19.759  0.00  0.00    -0.083 Cl
ATOM      2  O   UNL     1      -4.129 -11.263  17.529  0.00  0.00    -0.439 OA
ATOM      4  N   UNL     1      -5.559  -9.898  16.422  0.00  0.00    -0.213 NA
ATOM     10  C   UNL     1      -4.351 -10.413  16.489  0.00  0.00    +0.201 A 
ATOM     12  C   UNL     1      -6.199 -10.450  17.504  0.00  0.00    +0.111 A 
ATOM     13  C   UNL     1      -5.327 -11.286  18.185  0.00  0.00    +0.155 A 
ATOM     16  C   UNL     1      -7.508 -10.300  17.985  0.00  0.00    +0.051 A 
ATOM     17  C   UNL     1      -5.650 -12.005  19.330  0.00  0.00    +0.050 A 
ATOM     20  C   UNL     1      -7.872 -11.009  19.140  0.00  0.00    +0.043 A 
ATOM     21  C   UNL     1      -6.960 -11.844  19.796  0.00  0.00    +0.024 A 
ENDBRANCH   5  10
BRANCH   3   9
ATOM      9  C   UNL     1      -2.131 -11.852  12.461  0.00  0.00    +0.119 C 
BRANCH   9  11
ATOM     11  C   UNL     1      -2.833 -11.147  11.331  0.00  0.00    -0.033 A 
ATOM     14  C   UNL     1      -3.779 -11.828  10.565  0.00  0.00    +0.005 A 
ATOM     15  C   UNL     1      -2.538  -9.813  11.051  0.00  0.00    +0.005 A 
ATOM     18  C   UNL     1      -4.429 -11.174   9.517  0.00  0.00    +0.000 A 
ATOM     19  C   UNL     1      -3.187  -9.159  10.003  0.00  0.00    +0.000 A 
ATOM     22  C   UNL     1      -4.133  -9.840   9.237  0.00  0.00    +0.000 A 
ENDBRANCH   9  11
ENDBRANCH   3   9
TORSDOF 3
ENDMDL
MODEL 3
REMARK VINA RESULT:      -6.9     16.784     19.946
REMARK  Name = 45784085
REMARK  3 active torsions:
REMARK  status: ('A' for Active; 'I' for Inactive)
REMARK    1  A    between atoms: N_3  and  C_9
REMARK    2  A    between atoms: C_5  and  C_10
REMARK    3  A    between atoms: C_9  and  C_11
REMARK                            x       y       z     vdW  Elec       q    Type
REMARK                         _______ _______ _______ _____ _____    ______ ____
ROOT
ATOM      3  N   UNL     1      11.542   9.665  21.146  0.00  0.00    -0.297 NA
ATOM      5  C   UNL     1      13.514   9.219  19.958  0.00  0.00    +0.090 C 
ATOM      6  C   UNL     1      12.338   8.475  19.301  0.00  0.00    +0.029 C 
ATOM      7  C   UNL     1      12.992   9.624  21.344  0.00  0.00    +0.097 C 
ATOM      8  C   UNL     1      11.236   8.475  20.352  0.00  0.00    +0.085 C 
ENDROOT
BRANCH   5  10
ATOM      1 CL   UNL     1      20.215   5.760  20.854  0.00  0.00    -0.083 Cl
ATOM      2  O   UNL     1      14.929   7.420  19.122  0.00  0.00    -0.439 OA
ATOM      4  N   UNL     1      15.828   8.609  20.829  0.00  0.00    -0.213 NA
ATOM     10  C   UNL     1      14.805   8.436  20.021  0.00  0.00    +0.201 A 
ATOM     12  C   UNL     1      16.707   7.627  20.441  0.00  0.00    +0.111 A 
ATOM     13  C   UNL     1      16.160   6.898  19.396  0.00  0.00    +0.155 A 
ATOM     16  C   UNL     1      17.982   7.283  20.913  0.00  0.00    +0.051 A 
ATOM     17  C   UNL     1      16.786   5.830  18.763  0.00  0.00    +0.050 A 
ATOM     20  C   UNL     1      18.646   6.211  20.299  0.00  0.00    +0.043 A 
ATOM     21  C   UNL     1      18.057   5.500  19.246  0.00  0.00    +0.024 A 
ENDBRANCH   5  10
BRANCH   3   9
ATOM      9  C   UNL     1      10.811   9.696  22.404  0.00  0.00    +0.119 C 
BRANCH   9  11
ATOM     11  C   UNL     1      10.931  11.030  23.091  0.00  0.00    -0.033 A 
ATOM     14  C   UNL     1      11.029  11.093  24.480  0.00  0.00    +0.005 A 
ATOM     15  C   UNL     1      10.945  12.204  22.336  0.00  0.00    +0.005 A 
ATOM     18  C   UNL     1      11.140  12.330  25.117  0.00  0.00    +0.000 A 
ATOM     19  C   UNL     1      11.055  13.441  22.972  0.00  0.00    +0.000 A 
ATOM     22  C   UNL     1      11.153  13.503  24.362  0.00  0.00    +0.000 A 
ENDBRANCH   9  11
ENDBRANCH   3   9
TORSDOF 3
ENDMDL
MODEL 4
REMARK VINA RESULT:      -6.8     17.133     20.979
REMARK  Name = 45784085
REMARK  3 active torsions:
REMARK  status: ('A' for Active; 'I' for Inactive)
REMARK    1  A    between atoms: N_3  and  C_9
REMARK    2  A    between atoms: C_5  and  C_10
REMARK    3  A    between atoms: C_9  and  C_11
REMARK                            x       y       z     vdW  Elec       q    Type
REMARK                         _______ _______ _______ _____ _____    ______ ____
ROOT
ATOM      3  N   UNL     1      11.164  10.744  22.845  0.00  0.00    -0.297 NA
ATOM      5  C   UNL     1      12.599   9.948  21.170  0.00  0.00    +0.090 C 
ATOM      6  C   UNL     1      11.280   9.156  21.136  0.00  0.00    +0.029 C 
ATOM      7  C   UNL     1      12.591  10.658  22.530  0.00  0.00    +0.097 C 
ATOM      8  C   UNL     1      10.618   9.436  22.479  0.00  0.00    +0.085 C 
ENDROOT
BRANCH   5  10
ATOM      1 CL   UNL     1      19.164   6.169  20.640  0.00  0.00    -0.083 Cl
ATOM      2  O   UNL     1      13.787   8.231  19.913  0.00  0.00    -0.439 OA
ATOM      4  N   UNL     1      14.974   9.145  21.614  0.00  0.00    -0.213 NA
ATOM     10  C   UNL     1      13.842   9.119  20.944  0.00  0.00    +0.201 A 
ATOM     12  C   UNL     1      15.738   8.196  20.980  0.00  0.00    +0.111 A 
ATOM     13  C   UNL     1      15.014   7.634  19.938  0.00  0.00    +0.155 A 
ATOM     16  C   UNL     1      17.046   7.747  21.215  0.00  0.00    +0.051 A 
ATOM     17  C   UNL     1      15.489   6.640  19.089  0.00  0.00    +0.050 A 
ATOM     20  C   UNL     1      17.560   6.745  20.379  0.00  0.00    +0.043 A 
ATOM     21  C   UNL     1      16.794   6.204  19.339  0.00  0.00    +0.024 A 
ENDBRANCH   5  10
BRANCH   3   9
ATOM      9  C   UNL     1      10.922  11.075  24.241  0.00  0.00    +0.119 C 
BRANCH   9  11
ATOM     11  C   UNL     1      10.729  12.554  24.442  0.00  0.00    -0.033 A 
ATOM     14  C   UNL     1      10.203  13.335  23.413  0.00  0.00    +0.005 A 
ATOM     15  C   UNL     1      11.073  13.144  25.659  0.00  0.00    +0.005 A 
ATOM     18  C   UNL     1      10.024  14.706  23.599  0.00  0.00    +0.000 A 
ATOM     19  C   UNL     1      10.894  14.515  25.846  0.00  0.00    +0.000 A 
ATOM     22  C   UNL     1      10.370  15.295  24.816  0.00  0.00    +0.000 A 
ENDBRANCH   9  11
ENDBRANCH   3   9
TORSDOF 3
ENDMDL
MODEL 5
REMARK VINA RESULT:      -6.6     27.807     32.016
REMARK  Name = 45784085
REMARK  3 active torsions:
REMARK  status: ('A' for Active; 'I' for Inactive)
REMARK    1  A    between atoms: N_3  and  C_9
REMARK    2  A    between atoms: C_5  and  C_10
REMARK    3  A    between atoms: C_9  and  C_11
REMARK                            x       y       z     vdW  Elec       q    Type
REMARK                         _______ _______ _______ _____ _____    ______ ____
ROOT
ATOM      3  N   UNL     1     -13.265   7.069  20.863  0.00  0.00    -0.297 NA
ATOM      5  C   UNL     1     -14.881   5.494  21.500  0.00  0.00    +0.090 C 
ATOM      6  C   UNL     1     -15.545   6.872  21.331  0.00  0.00    +0.029 C 
ATOM      7  C   UNL     1     -13.377   5.792  21.571  0.00  0.00    +0.097 C 
ATOM      8  C   UNL     1     -14.393   7.868  21.344  0.00  0.00    +0.085 C 
ENDROOT
BRANCH   5  10
ATOM      1 CL   UNL     1     -16.914   1.893  27.869  0.00  0.00    -0.083 Cl
ATOM      2  O   UNL     1     -16.284   3.713  22.393  0.00  0.00    -0.439 OA
ATOM      4  N   UNL     1     -15.051   4.809  23.947  0.00  0.00    -0.213 NA
ATOM     10  C   UNL     1     -15.379   4.690  22.679  0.00  0.00    +0.201 A 
ATOM     12  C   UNL     1     -15.798   3.833  24.560  0.00  0.00    +0.111 A 
ATOM     13  C   UNL     1     -16.554   3.160  23.612  0.00  0.00    +0.155 A 
ATOM     16  C   UNL     1     -15.899   3.448  25.905  0.00  0.00    +0.051 A 
ATOM     17  C   UNL     1     -17.423   2.111  23.891  0.00  0.00    +0.050 A 
ATOM     20  C   UNL     1     -16.765   2.393  26.225  0.00  0.00    +0.043 A 
ATOM     21  C   UNL     1     -17.511   1.740  25.237  0.00  0.00    +0.024 A 
ENDBRANCH   5  10
BRANCH   3   9
ATOM      9  C   UNL     1     -11.985   7.721  21.094  0.00  0.00    +0.119 C 
BRANCH   9  11
ATOM     11  C   UNL     1     -11.351   8.184  19.809  0.00  0.00    -0.033 A 
ATOM     14  C   UNL     1     -11.388   7.367  18.679  0.00  0.00    +0.005 A 
ATOM     15  C   UNL     1     -10.729   9.431  19.749  0.00  0.00    +0.005 A 
ATOM     18  C   UNL     1     -10.801   7.797  17.489  0.00  0.00    +0.000 A 
ATOM     19  C   UNL     1     -10.141   9.861  18.559  0.00  0.00    +0.000 A 
ATOM     22  C   UNL     1     -10.177   9.043  17.429  0.00  0.00    +0.000 A 
ENDBRANCH   9  11
ENDBRANCH   3   9
TORSDOF 3
ENDMDL
MODEL 6
REMARK VINA RESULT:      -6.6     16.879     19.523
REMARK  Name = 45784085
REMARK  3 active torsions:
REMARK  status: ('A' for Active; 'I' for Inactive)
REMARK    1  A    between atoms: N_3  and  C_9
REMARK    2  A    between atoms: C_5  and  C_10
REMARK    3  A    between atoms: C_9  and  C_11
REMARK                            x       y       z     vdW  Elec       q    Type
REMARK                         _______ _______ _______ _____ _____    ______ ____
ROOT
ATOM      3  N   UNL     1      21.457   4.865  21.291  0.00  0.00    -0.297 NA
ATOM      5  C   UNL     1      19.827   6.391  20.574  0.00  0.00    +0.090 C 
ATOM      6  C   UNL     1      20.395   6.845  21.930  0.00  0.00    +0.029 C 
ATOM      7  C   UNL     1      20.269   4.927  20.438  0.00  0.00    +0.097 C 
ATOM      8  C   UNL     1      21.097   5.617  22.494  0.00  0.00    +0.085 C 
ENDROOT
BRANCH   5  10
ATOM      1 CL   UNL     1      12.416   7.057  19.058  0.00  0.00    -0.083 Cl
ATOM      2  O   UNL     1      17.673   7.029  21.518  0.00  0.00    -0.439 OA
ATOM      4  N   UNL     1      17.589   6.347  19.358  0.00  0.00    -0.213 NA
ATOM     10  C   UNL     1      18.334   6.572  20.419  0.00  0.00    +0.201 A 
ATOM     12  C   UNL     1      16.326   6.680  19.783  0.00  0.00    +0.111 A 
ATOM     13  C   UNL     1      16.374   7.098  21.105  0.00  0.00    +0.155 A 
ATOM     16  C   UNL     1      15.089   6.660  19.123  0.00  0.00    +0.051 A 
ATOM     17  C   UNL     1      15.271   7.509  21.846  0.00  0.00    +0.050 A 
ATOM     20  C   UNL     1      13.953   7.069  19.838  0.00  0.00    +0.043 A 
ATOM     21  C   UNL     1      14.045   7.483  21.172  0.00  0.00    +0.024 A 
ENDBRANCH   5  10
BRANCH   3   9
ATOM      9  C   UNL     1      21.856   3.498  21.590  0.00  0.00    +0.119 C 
BRANCH   9  11
ATOM     11  C   UNL     1      23.278   3.226  21.179  0.00  0.00    -0.033 A 
ATOM     14  C   UNL     1      23.990   4.181  20.453  0.00  0.00    +0.005 A 
ATOM     15  C   UNL     1      23.885   2.019  21.525  0.00  0.00    +0.005 A 
ATOM     18  C   UNL     1      25.308   3.929  20.072  0.00  0.00    +0.000 A 
ATOM     19  C   UNL     1      25.204   1.765  21.145  0.00  0.00    +0.000 A 
ATOM     22  C   UNL     1      25.914   2.721  20.418  0.00  0.00    +0.000 A 
ENDBRANCH   9  11
ENDBRANCH   3   9
TORSDOF 3
ENDMDL
MODEL 7
REMARK VINA RESULT:      -6.6     23.487     26.491
REMARK  Name = 45784085
REMARK  3 active torsions:
REMARK  status: ('A' for Active; 'I' for Inactive)
REMARK    1  A    between atoms: N_3  and  C_9
REMARK    2  A    between atoms: C_5  and  C_10
REMARK    3  A    between atoms: C_9  and  C_11
REMARK                            x       y       z     vdW  Elec       q    Type
REMARK                         _______ _______ _______ _____ _____    ______ ____
ROOT
ATOM      3  N   UNL     1      -4.025 -10.845  14.842  0.00  0.00    -0.297 NA
ATOM      5  C   UNL     1      -5.351  -9.874  16.514  0.00  0.00    +0.090 C 
ATOM      6  C   UNL     1      -4.346 -10.847  17.155  0.00  0.00    +0.029 C 
ATOM      7  C   UNL     1      -5.343 -10.233  15.022  0.00  0.00    +0.097 C 
ATOM      8  C   UNL     1      -3.850 -11.714  16.006  0.00  0.00    +0.085 C 
ENDROOT
BRANCH   5  10
ATOM      1 CL   UNL     1     -12.513  -9.493  19.010  0.00  0.00    -0.083 Cl
ATOM      2  O   UNL     1      -6.899 -10.721  18.195  0.00  0.00    -0.439 OA
ATOM      4  N   UNL     1      -7.806  -9.235  16.744  0.00  0.00    -0.213 NA
ATOM     10  C   UNL     1      -6.736  -9.902  17.119  0.00  0.00    +0.201 A 
ATOM     12  C   UNL     1      -8.763  -9.643  17.641  0.00  0.00    +0.111 A 
ATOM     13  C   UNL     1      -8.211 -10.553  18.530  0.00  0.00    +0.155 A 
ATOM     16  C   UNL     1     -10.116  -9.298  17.776  0.00  0.00    +0.051 A 
ATOM     17  C   UNL     1      -8.904 -11.165  19.569  0.00  0.00    +0.050 A 
ATOM     20  C   UNL     1     -10.848  -9.895  18.814  0.00  0.00    +0.043 A 
ATOM     21  C   UNL     1     -10.252 -10.810  19.689  0.00  0.00    +0.024 A 
ENDBRANCH   5  10
BRANCH   3   9
ATOM      9  C   UNL     1      -3.917 -11.571  13.586  0.00  0.00    +0.119 C 
BRANCH   9  11
ATOM     11  C   UNL     1      -3.349 -10.712  12.488  0.00  0.00    -0.033 A 
ATOM     14  C   UNL     1      -4.191 -10.185  11.509  0.00  0.00    +0.005 A 
ATOM     15  C   UNL     1      -1.981 -10.443  12.450  0.00  0.00    +0.005 A 
ATOM     18  C   UNL     1      -3.665  -9.388  10.491  0.00  0.00    +0.000 A 
ATOM     19  C   UNL     1      -1.454  -9.647  11.432  0.00  0.00    +0.000 A 
ATOM     22  C   UNL     1      -2.296  -9.120  10.453  0.00  0.00    +0.000 A 
ENDBRANCH   9  11
ENDBRANCH   3   9
TORSDOF 3
ENDMDL
MODEL 8
REMARK VINA RESULT:      -6.5     17.551     19.143
REMARK  Name = 45784085
REMARK  3 active torsions:
REMARK  status: ('A' for Active; 'I' for Inactive)
REMARK    1  A    between atoms: N_3  and  C_9
REMARK    2  A    between atoms: C_5  and  C_10
REMARK    3  A    between atoms: C_9  and  C_11
REMARK                            x       y       z     vdW  Elec       q    Type
REMARK                         _______ _______ _______ _____ _____    ______ ____
ROOT
ATOM      3  N   UNL     1      17.945   6.350  20.648  0.00  0.00    -0.297 NA
ATOM      5  C   UNL     1      15.684   6.714  21.153  0.00  0.00    +0.090 C 
ATOM      6  C   UNL     1      15.809   6.166  19.721  0.00  0.00    +0.029 C 
ATOM      7  C   UNL     1      17.103   7.171  21.519  0.00  0.00    +0.097 C 
ATOM      8  C   UNL     1      17.272   6.367  19.348  0.00  0.00    +0.085 C 
ENDROOT
BRANCH   5  10
ATOM      1 CL   UNL     1      11.028  12.683  21.755  0.00  0.00    -0.083 Cl
ATOM      2  O   UNL     1      13.449   7.408  21.832  0.00  0.00    -0.439 OA
ATOM      4  N   UNL     1      14.761   9.086  21.058  0.00  0.00    -0.213 NA
ATOM     10  C   UNL     1      14.651   7.804  21.328  0.00  0.00    +0.201 A 
ATOM     12  C   UNL     1      13.532   9.589  21.409  0.00  0.00    +0.111 A 
ATOM     13  C   UNL     1      12.726   8.565  21.883  0.00  0.00    +0.155 A 
ATOM     16  C   UNL     1      13.015  10.892  21.361  0.00  0.00    +0.051 A 
ATOM     17  C   UNL     1      11.418   8.726  22.325  0.00  0.00    +0.050 A 
ATOM     20  C   UNL     1      11.697  11.094  21.800  0.00  0.00    +0.043 A 
ATOM     21  C   UNL     1      10.918  10.031  22.271  0.00  0.00    +0.024 A 
ENDBRANCH   5  10
BRANCH   3   9
ATOM      9  C   UNL     1      19.312   6.842  20.572  0.00  0.00    +0.119 C 
BRANCH   9  11
ATOM     11  C   UNL     1      20.296   5.861  21.152  0.00  0.00    -0.033 A 
ATOM     14  C   UNL     1      20.936   6.146  22.357  0.00  0.00    +0.005 A 
ATOM     15  C   UNL     1      20.565   4.666  20.484  0.00  0.00    +0.005 A 
ATOM     18  C   UNL     1      21.848   5.237  22.895  0.00  0.00    +0.000 A 
ATOM     19  C   UNL     1      21.476   3.757  21.021  0.00  0.00    +0.000 A 
ATOM     22  C   UNL     1      22.118   4.043  22.227  0.00  0.00    +0.000 A 
ENDBRANCH   9  11
ENDBRANCH   3   9
TORSDOF 3
ENDMDL
MODEL 9
REMARK VINA RESULT:      -6.5      1.084      1.619
REMARK  Name = 45784085
REMARK  3 active torsions:
REMARK  status: ('A' for Active; 'I' for Inactive)
REMARK    1  A    between atoms: N_3  and  C_9
REMARK    2  A    between atoms: C_5  and  C_10
REMARK    3  A    between atoms: C_9  and  C_11
REMARK                            x       y       z     vdW  Elec       q    Type
REMARK                         _______ _______ _______ _____ _____    ______ ____
ROOT
ATOM      3  N   UNL     1      11.961   4.860   0.994  0.00  0.00    -0.297 NA
ATOM      5  C   UNL     1      10.440   5.587   2.624  0.00  0.00    +0.090 C 
ATOM      6  C   UNL     1      11.285   6.779   2.140  0.00  0.00    +0.029 C 
ATOM      7  C   UNL     1      11.203   4.348   2.136  0.00  0.00    +0.097 C 
ATOM      8  C   UNL     1      12.482   6.154   1.437  0.00  0.00    +0.085 C 
ENDROOT
BRANCH   5  10
ATOM      1 CL   UNL     1       9.301   4.725  10.082  0.00  0.00    -0.083 Cl
ATOM      2  O   UNL     1       9.694   6.723   4.646  0.00  0.00    -0.439 OA
ATOM      4  N   UNL     1      10.324   4.568   4.955  0.00  0.00    -0.213 NA
ATOM     10  C   UNL     1      10.167   5.564   4.110  0.00  0.00    +0.201 A 
ATOM     12  C   UNL     1       9.926   5.105   6.154  0.00  0.00    +0.111 A 
ATOM     13  C   UNL     1       9.539   6.425   5.969  0.00  0.00    +0.155 A 
ATOM     16  C   UNL     1       9.858   4.554   7.442  0.00  0.00    +0.051 A 
ATOM     17  C   UNL     1       9.080   7.264   6.977  0.00  0.00    +0.050 A 
ATOM     20  C   UNL     1       9.398   5.370   8.486  0.00  0.00    +0.043 A 
ATOM     21  C   UNL     1       9.018   6.698   8.255  0.00  0.00    +0.024 A 
ENDBRANCH   5  10
BRANCH   3   9
ATOM      9  C   UNL     1      13.017   3.951   0.575  0.00  0.00    +0.119 C 
BRANCH   9  11
ATOM     11  C   UNL     1      12.965   3.673  -0.904  0.00  0.00    -0.033 A 
ATOM     14  C   UNL     1      13.712   4.453  -1.787  0.00  0.00    +0.005 A 
ATOM     15  C   UNL     1      12.171   2.635  -1.390  0.00  0.00    +0.005 A 
ATOM     18  C   UNL     1      13.664   4.195  -3.157  0.00  0.00    +0.000 A 
ATOM     19  C   UNL     1      12.123   2.377  -2.761  0.00  0.00    +0.000 A 
ATOM     22  C   UNL     1      12.869   3.157  -3.644  0.00  0.00    +0.000 A 
ENDBRANCH   9  11
ENDBRANCH   3   9
TORSDOF 3
ENDMDL
MODEL 10
REMARK VINA RESULT:      -6.4     35.787     38.228
REMARK  Name = 45784085
REMARK  3 active torsions:
REMARK  status: ('A' for Active; 'I' for Inactive)
REMARK    1  A    between atoms: N_3  and  C_9
REMARK    2  A    between atoms: C_5  and  C_10
REMARK    3  A    between atoms: C_9  and  C_11
REMARK                            x       y       z     vdW  Elec       q    Type
REMARK                         _______ _______ _______ _____ _____    ______ ____
ROOT
ATOM      3  N   UNL     1     -14.384   2.209  31.115  0.00  0.00    -0.297 NA
ATOM      5  C   UNL     1     -16.013   1.476  29.597  0.00  0.00    +0.090 C 
ATOM      6  C   UNL     1     -15.103   0.297  29.984  0.00  0.00    +0.029 C 
ATOM      7  C   UNL     1     -15.244   2.725  30.049  0.00  0.00    +0.097 C 
ATOM      8  C   UNL     1     -13.868   0.939  30.603  0.00  0.00    +0.085 C 
ENDROOT
BRANCH   5  10
ATOM      1 CL   UNL     1     -18.329   1.014  22.380  0.00  0.00    -0.083 Cl
ATOM      2  O   UNL     1     -15.998   2.622  27.447  0.00  0.00    -0.439 OA
ATOM      4  N   UNL     1     -17.090   0.636  27.447  0.00  0.00    -0.213 NA
ATOM     10  C   UNL     1     -16.406   1.522  28.138  0.00  0.00    +0.201 A 
ATOM     12  C   UNL     1     -17.145   1.189  26.191  0.00  0.00    +0.111 A 
ATOM     13  C   UNL     1     -16.478   2.405  26.187  0.00  0.00    +0.155 A 
ATOM     16  C   UNL     1     -17.734   0.736  25.002  0.00  0.00    +0.051 A 
ATOM     17  C   UNL     1     -16.342   3.230  25.077  0.00  0.00    +0.050 A 
ATOM     20  C   UNL     1     -17.617   1.541  23.859  0.00  0.00    +0.043 A 
ATOM     21  C   UNL     1     -16.935   2.763  23.899  0.00  0.00    +0.024 A 
ENDBRANCH   5  10
BRANCH   3   9
ATOM      9  C   UNL     1     -13.320   3.137  31.468  0.00  0.00    +0.119 C 
BRANCH   9  11
ATOM     11  C   UNL     1     -13.742   4.089  32.555  0.00  0.00    -0.033 A 
ATOM     14  C   UNL     1     -13.673   5.466  32.342  0.00  0.00    +0.005 A 
ATOM     15  C   UNL     1     -14.205   3.594  33.774  0.00  0.00    +0.005 A 
ATOM     18  C   UNL     1     -14.065   6.348  33.349  0.00  0.00    +0.000 A 
ATOM     19  C   UNL     1     -14.597   4.476  34.782  0.00  0.00    +0.000 A 
ATOM     22  C   UNL     1     -14.526   5.853  34.569  0.00  0.00    +0.000 A 
ENDBRANCH   9  11
ENDBRANCH   3   9
TORSDOF 3
ENDMDL
