MODEL 1
REMARK VINA RESULT:      -6.2      0.000      0.000
REMARK  Name = 7161596
REMARK  6 active torsions:
REMARK  status: ('A' for Active; 'I' for Inactive)
REMARK    1  A    between atoms: S_1  and  N_8
REMARK    2  A    between atoms: S_1  and  C_16
REMARK    3  A    between atoms: O_5  and  C_14
REMARK    4  A    between atoms: O_5  and  C_24
REMARK    5  A    between atoms: C_10  and  C_14
REMARK    6  A    between atoms: C_15  and  C_17
REMARK                            x       y       z     vdW  Elec       q    Type
REMARK                         _______ _______ _______ _____ _____    ______ ____
ROOT
ATOM      7  O   UNL     1     -17.315   4.283  20.945  0.00  0.00    -0.270 OA
ATOM      8  N   UNL     1     -17.474   3.455  25.942  0.00  0.00    -0.160 NA
ATOM      9  N   UNL     1     -17.047   4.446  23.263  0.00  0.00    -0.294 N 
ATOM     10  C   UNL     1     -18.109   2.772  24.782  0.00  0.00    +0.205 C 
ATOM     11  C   UNL     1     -18.254   3.672  23.558  0.00  0.00    +0.140 C 
ATOM     12  C   UNL     1     -17.098   4.874  25.708  0.00  0.00    +0.129 C 
ATOM     13  C   UNL     1     -16.304   4.973  24.413  0.00  0.00    +0.125 C 
ATOM     15  C   UNL     1     -16.713   4.709  21.930  0.00  0.00    +0.247 C 
ENDROOT
BRANCH  15  17
ATOM      2  F   UNL     1     -11.922   5.436  21.888  0.00  0.00    -0.205 F 
ATOM     17  C   UNL     1     -15.547   5.568  21.668  0.00  0.00    +0.040 A 
ATOM     20  C   UNL     1     -14.264   5.084  21.907  0.00  0.00    +0.051 A 
ATOM     21  C   UNL     1     -15.733   6.860  21.182  0.00  0.00    +0.013 A 
ATOM     26  C   UNL     1     -13.158   5.897  21.659  0.00  0.00    +0.124 A 
ATOM     27  C   UNL     1     -14.628   7.673  20.934  0.00  0.00    +0.004 A 
ATOM     28  C   UNL     1     -13.340   7.192  21.173  0.00  0.00    +0.038 A 
ENDBRANCH  15  17
BRANCH   8   1
ATOM      1  S   UNL     1     -18.097   3.086  27.490  0.00  0.00    +0.062 S 
ATOM      3  O   UNL     1     -18.961   1.928  27.375  0.00  0.00    -0.153 OA
ATOM      4  O   UNL     1     -18.535   4.308  28.130  0.00  0.00    -0.153 OA
BRANCH   1  16
ATOM     16  C   UNL     1     -16.728   2.535  28.504  0.00  0.00    +0.106 A 
ATOM     18  C   UNL     1     -15.834   3.472  28.959  0.00  0.00    +0.028 A 
ATOM     19  C   UNL     1     -16.623   1.196  28.788  0.00  0.00    +0.028 A 
ATOM     22  C   UNL     1     -14.766   3.043  29.748  0.00  0.00    +0.002 A 
ATOM     23  C   UNL     1     -15.556   0.767  29.578  0.00  0.00    +0.002 A 
ATOM     25  C   UNL     1     -14.628   1.690  30.058  0.00  0.00    +0.000 A 
ENDBRANCH   1  16
ENDBRANCH   8   1
BRANCH  10  14
ATOM      6  O   UNL     1     -16.299   1.254  25.233  0.00  0.00    -0.249 OA
ATOM     14  C   UNL     1     -17.214   1.607  24.501  0.00  0.00    +0.327 C 
BRANCH  14   5
ATOM      5  O   UNL     1     -17.580   1.026  23.323  0.00  0.00    -0.467 OA
ATOM     24  C   UNL     1     -18.286  -0.213  23.443  0.00  0.00    +0.280 C 
ENDBRANCH  14   5
ENDBRANCH  10  14
TORSDOF 5
ENDMDL
MODEL 2
REMARK VINA RESULT:      -6.2     32.991     34.739
REMARK  Name = 7161596
REMARK  6 active torsions:
REMARK  status: ('A' for Active; 'I' for Inactive)
REMARK    1  A    between atoms: S_1  and  N_8
REMARK    2  A    between atoms: S_1  and  C_16
REMARK    3  A    between atoms: O_5  and  C_14
REMARK    4  A    between atoms: O_5  and  C_24
REMARK    5  A    between atoms: C_10  and  C_14
REMARK    6  A    between atoms: C_15  and  C_17
REMARK                            x       y       z     vdW  Elec       q    Type
REMARK                         _______ _______ _______ _____ _____    ______ ____
ROOT
ATOM      7  O   UNL     1      20.155  -1.054  26.459  0.00  0.00    -0.270 OA
ATOM      8  N   UNL     1      17.631  -4.277  29.445  0.00  0.00    -0.160 NA
ATOM      9  N   UNL     1      18.824  -2.797  27.271  0.00  0.00    -0.294 N 
ATOM     10  C   UNL     1      18.579  -3.165  29.729  0.00  0.00    +0.205 C 
ATOM     11  C   UNL     1      19.512  -2.856  28.561  0.00  0.00    +0.140 C 
ATOM     12  C   UNL     1      17.758  -4.883  28.094  0.00  0.00    +0.129 C 
ATOM     13  C   UNL     1      17.754  -3.776  27.049  0.00  0.00    +0.125 C 
ATOM     15  C   UNL     1      19.262  -1.886  26.304  0.00  0.00    +0.247 C 
ENDROOT
BRANCH  15  17
ATOM      2  F   UNL     1      18.721  -3.836  21.900  0.00  0.00    -0.205 F 
ATOM     17  C   UNL     1      18.612  -1.915  24.984  0.00  0.00    +0.040 A 
ATOM     20  C   UNL     1      18.983  -2.881  24.052  0.00  0.00    +0.051 A 
ATOM     21  C   UNL     1      17.627  -0.980  24.676  0.00  0.00    +0.013 A 
ATOM     26  C   UNL     1      18.366  -2.910  22.801  0.00  0.00    +0.124 A 
ATOM     27  C   UNL     1      17.011  -1.009  23.425  0.00  0.00    +0.004 A 
ATOM     28  C   UNL     1      17.380  -1.974  22.487  0.00  0.00    +0.038 A 
ENDBRANCH  15  17
BRANCH   8   1
ATOM      1  S   UNL     1      17.304  -5.358  30.729  0.00  0.00    +0.062 S 
ATOM      3  O   UNL     1      17.729  -4.741  31.969  0.00  0.00    -0.153 OA
ATOM      4  O   UNL     1      17.729  -6.688  30.349  0.00  0.00    -0.153 OA
BRANCH   1  16
ATOM     16  C   UNL     1      15.526  -5.498  30.874  0.00  0.00    +0.106 A 
ATOM     18  C   UNL     1      14.872  -6.392  30.062  0.00  0.00    +0.028 A 
ATOM     19  C   UNL     1      14.880  -4.705  31.792  0.00  0.00    +0.028 A 
ATOM     22  C   UNL     1      13.485  -6.501  30.175  0.00  0.00    +0.002 A 
ATOM     23  C   UNL     1      13.494  -4.815  31.904  0.00  0.00    +0.002 A 
ATOM     25  C   UNL     1      12.797  -5.712  31.096  0.00  0.00    +0.000 A 
ENDBRANCH   1  16
ENDBRANCH   8   1
BRANCH  10  14
ATOM      6  O   UNL     1      16.486  -1.990  29.885  0.00  0.00    -0.249 OA
ATOM     14  C   UNL     1      17.699  -1.998  30.049  0.00  0.00    +0.327 C 
BRANCH  14   5
ATOM      5  O   UNL     1      18.458  -0.976  30.537  0.00  0.00    -0.467 OA
ATOM     24  C   UNL     1      17.845  -0.195  31.569  0.00  0.00    +0.280 C 
ENDBRANCH  14   5
ENDBRANCH  10  14
TORSDOF 5
ENDMDL
MODEL 3
REMARK VINA RESULT:      -6.1     20.016     21.688
REMARK  Name = 7161596
REMARK  6 active torsions:
REMARK  status: ('A' for Active; 'I' for Inactive)
REMARK    1  A    between atoms: S_1  and  N_8
REMARK    2  A    between atoms: S_1  and  C_16
REMARK    3  A    between atoms: O_5  and  C_14
REMARK    4  A    between atoms: O_5  and  C_24
REMARK    5  A    between atoms: C_10  and  C_14
REMARK    6  A    between atoms: C_15  and  C_17
REMARK                            x       y       z     vdW  Elec       q    Type
REMARK                         _______ _______ _______ _____ _____    ______ ____
ROOT
ATOM      7  O   UNL     1      -1.755 -12.228  12.563  0.00  0.00    -0.270 OA
ATOM      8  N   UNL     1      -5.550 -11.921  15.907  0.00  0.00    -0.160 NA
ATOM      9  N   UNL     1      -3.854 -12.011  13.571  0.00  0.00    -0.294 N 
ATOM     10  C   UNL     1      -4.099 -12.226  16.047  0.00  0.00    +0.205 C 
ATOM     11  C   UNL     1      -3.471 -12.765  14.765  0.00  0.00    +0.140 C 
ATOM     12  C   UNL     1      -6.123 -12.193  14.563  0.00  0.00    +0.129 C 
ATOM     13  C   UNL     1      -5.243 -11.542  13.505  0.00  0.00    +0.125 C 
ATOM     15  C   UNL     1      -2.924 -11.847  12.538  0.00  0.00    +0.247 C 
ENDROOT
BRANCH  15  17
ATOM      2  F   UNL     1      -4.997 -11.952   8.159  0.00  0.00    -0.205 F 
ATOM     17  C   UNL     1      -3.369 -11.166  11.312  0.00  0.00    +0.040 A 
ATOM     20  C   UNL     1      -3.984 -11.898  10.299  0.00  0.00    +0.051 A 
ATOM     21  C   UNL     1      -3.175  -9.795  11.172  0.00  0.00    +0.013 A 
ATOM     26  C   UNL     1      -4.407 -11.253   9.136  0.00  0.00    +0.124 A 
ATOM     27  C   UNL     1      -3.598  -9.150  10.010  0.00  0.00    +0.004 A 
ATOM     28  C   UNL     1      -4.214  -9.879   8.992  0.00  0.00    +0.038 A 
ENDBRANCH  15  17
BRANCH   8   1
ATOM      1  S   UNL     1      -6.549 -12.297  17.242  0.00  0.00    +0.062 S 
ATOM      3  O   UNL     1      -5.770 -12.153  18.456  0.00  0.00    -0.153 OA
ATOM      4  O   UNL     1      -7.298 -13.501  16.952  0.00  0.00    -0.153 OA
BRANCH   1  16
ATOM     16  C   UNL     1      -7.803 -11.025  17.351  0.00  0.00    +0.106 A 
ATOM     18  C   UNL     1      -9.058 -11.379  17.777  0.00  0.00    +0.028 A 
ATOM     19  C   UNL     1      -7.462  -9.740  17.003  0.00  0.00    +0.028 A 
ATOM     22  C   UNL     1     -10.037 -10.387  17.861  0.00  0.00    +0.002 A 
ATOM     23  C   UNL     1      -8.440  -8.749  17.087  0.00  0.00    +0.002 A 
ATOM     25  C   UNL     1      -9.726  -9.072  17.516  0.00  0.00    +0.000 A 
ENDBRANCH   1  16
ENDBRANCH   8   1
BRANCH  10  14
ATOM      6  O   UNL     1      -4.121  -9.900  16.657  0.00  0.00    -0.249 OA
ATOM     14  C   UNL     1      -3.484 -10.924  16.452  0.00  0.00    +0.327 C 
BRANCH  14   5
ATOM      5  O   UNL     1      -2.132 -11.070  16.548  0.00  0.00    -0.467 OA
ATOM     24  C   UNL     1      -1.358 -10.186  15.730  0.00  0.00    +0.280 C 
ENDBRANCH  14   5
ENDBRANCH  10  14
TORSDOF 5
ENDMDL
MODEL 4
REMARK VINA RESULT:      -6.1     33.676     37.565
REMARK  Name = 7161596
REMARK  6 active torsions:
REMARK  status: ('A' for Active; 'I' for Inactive)
REMARK    1  A    between atoms: S_1  and  N_8
REMARK    2  A    between atoms: S_1  and  C_16
REMARK    3  A    between atoms: O_5  and  C_14
REMARK    4  A    between atoms: O_5  and  C_24
REMARK    5  A    between atoms: C_10  and  C_14
REMARK    6  A    between atoms: C_15  and  C_17
REMARK                            x       y       z     vdW  Elec       q    Type
REMARK                         _______ _______ _______ _____ _____    ______ ____
ROOT
ATOM      7  O   UNL     1      12.685   7.184   3.461  0.00  0.00    -0.270 OA
ATOM      8  N   UNL     1      12.181   4.001  -0.450  0.00  0.00    -0.160 NA
ATOM      9  N   UNL     1      11.827   5.797   1.784  0.00  0.00    -0.294 N 
ATOM     10  C   UNL     1      13.360   4.674   0.162  0.00  0.00    +0.205 C 
ATOM     11  C   UNL     1      12.999   5.949   0.920  0.00  0.00    +0.140 C 
ATOM     12  C   UNL     1      10.879   4.681  -0.221  0.00  0.00    +0.129 C 
ATOM     13  C   UNL     1      10.727   4.978   1.264  0.00  0.00    +0.125 C 
ATOM     15  C   UNL     1      11.780   6.490   2.999  0.00  0.00    +0.247 C 
ENDROOT
BRANCH  15  17
ATOM      2  F   UNL     1       7.411   8.164   4.259  0.00  0.00    -0.205 F 
ATOM     17  C   UNL     1      10.550   6.391   3.800  0.00  0.00    +0.040 A 
ATOM     20  C   UNL     1       9.546   7.343   3.645  0.00  0.00    +0.051 A 
ATOM     21  C   UNL     1      10.397   5.347   4.708  0.00  0.00    +0.013 A 
ATOM     26  C   UNL     1       8.379   7.250   4.404  0.00  0.00    +0.124 A 
ATOM     27  C   UNL     1       9.230   5.254   5.467  0.00  0.00    +0.004 A 
ATOM     28  C   UNL     1       8.221   6.205   5.315  0.00  0.00    +0.038 A 
ENDBRANCH  15  17
BRANCH   8   1
ATOM      1  S   UNL     1      12.407   3.307  -1.996  0.00  0.00    +0.062 S 
ATOM      3  O   UNL     1      12.101   1.893  -1.914  0.00  0.00    -0.153 OA
ATOM      4  O   UNL     1      13.650   3.791  -2.557  0.00  0.00    -0.153 OA
BRANCH   1  16
ATOM     16  C   UNL     1      11.153   3.984  -3.078  0.00  0.00    +0.106 A 
ATOM     18  C   UNL     1      10.048   3.219  -3.357  0.00  0.00    +0.028 A 
ATOM     19  C   UNL     1      11.343   5.245  -3.590  0.00  0.00    +0.028 A 
ATOM     22  C   UNL     1       9.070   3.746  -4.202  0.00  0.00    +0.002 A 
ATOM     23  C   UNL     1      10.365   5.772  -4.434  0.00  0.00    +0.002 A 
ATOM     25  C   UNL     1       9.229   5.023  -4.739  0.00  0.00    +0.000 A 
ENDBRANCH   1  16
ENDBRANCH   8   1
BRANCH  10  14
ATOM      6  O   UNL     1      13.296   2.744   1.595  0.00  0.00    -0.249 OA
ATOM     14  C   UNL     1      13.943   3.643   1.076  0.00  0.00    +0.327 C 
BRANCH  14   5
ATOM      5  O   UNL     1      15.279   3.872   1.227  0.00  0.00    -0.467 OA
ATOM     24  C   UNL     1      16.026   3.973   0.010  0.00  0.00    +0.280 C 
ENDBRANCH  14   5
ENDBRANCH  10  14
TORSDOF 5
ENDMDL
MODEL 5
REMARK VINA RESULT:      -6.1     33.640     37.532
REMARK  Name = 7161596
REMARK  6 active torsions:
REMARK  status: ('A' for Active; 'I' for Inactive)
REMARK    1  A    between atoms: S_1  and  N_8
REMARK    2  A    between atoms: S_1  and  C_16
REMARK    3  A    between atoms: O_5  and  C_14
REMARK    4  A    between atoms: O_5  and  C_24
REMARK    5  A    between atoms: C_10  and  C_14
REMARK    6  A    between atoms: C_15  and  C_17
REMARK                            x       y       z     vdW  Elec       q    Type
REMARK                         _______ _______ _______ _____ _____    ______ ____
ROOT
ATOM      7  O   UNL     1      12.670   7.067   3.951  0.00  0.00    -0.270 OA
ATOM      8  N   UNL     1      11.665   4.088  -0.023  0.00  0.00    -0.160 NA
ATOM      9  N   UNL     1      11.599   5.811   2.294  0.00  0.00    -0.294 N 
ATOM     10  C   UNL     1      12.929   4.654   0.523  0.00  0.00    +0.205 C 
ATOM     11  C   UNL     1      12.713   5.919   1.351  0.00  0.00    +0.140 C 
ATOM     12  C   UNL     1      10.433   4.843   0.326  0.00  0.00    +0.129 C 
ATOM     13  C   UNL     1      10.410   5.089   1.829  0.00  0.00    +0.125 C 
ATOM     15  C   UNL     1      11.688   6.455   3.533  0.00  0.00    +0.247 C 
ENDROOT
BRANCH  15  17
ATOM      2  F   UNL     1       9.421   4.728   7.452  0.00  0.00    -0.205 F 
ATOM     17  C   UNL     1      10.515   6.406   4.420  0.00  0.00    +0.040 A 
ATOM     20  C   UNL     1      10.527   5.574   5.536  0.00  0.00    +0.051 A 
ATOM     21  C   UNL     1       9.402   7.194   4.140  0.00  0.00    +0.013 A 
ATOM     26  C   UNL     1       9.415   5.528   6.379  0.00  0.00    +0.124 A 
ATOM     27  C   UNL     1       8.290   7.148   4.982  0.00  0.00    +0.004 A 
ATOM     28  C   UNL     1       8.297   6.315   6.101  0.00  0.00    +0.038 A 
ENDBRANCH  15  17
BRANCH   8   1
ATOM      1  S   UNL     1      11.730   3.443  -1.605  0.00  0.00    +0.062 S 
ATOM      3  O   UNL     1      10.395   3.472  -2.169  0.00  0.00    -0.153 OA
ATOM      4  O   UNL     1      12.532   2.239  -1.595  0.00  0.00    -0.153 OA
BRANCH   1  16
ATOM     16  C   UNL     1      12.675   4.583  -2.611  0.00  0.00    +0.106 A 
ATOM     18  C   UNL     1      13.936   4.212  -3.008  0.00  0.00    +0.028 A 
ATOM     19  C   UNL     1      12.104   5.786  -2.949  0.00  0.00    +0.028 A 
ATOM     22  C   UNL     1      14.673   5.101  -3.792  0.00  0.00    +0.002 A 
ATOM     23  C   UNL     1      12.841   6.673  -3.732  0.00  0.00    +0.002 A 
ATOM     25  C   UNL     1      14.125   6.331  -4.154  0.00  0.00    +0.000 A 
ENDBRANCH   1  16
ENDBRANCH   8   1
BRANCH  10  14
ATOM      6  O   UNL     1      12.850   2.612   1.791  0.00  0.00    -0.249 OA
ATOM     14  C   UNL     1      13.502   3.550   1.353  0.00  0.00    +0.327 C 
BRANCH  14   5
ATOM      5  O   UNL     1      14.837   3.763   1.534  0.00  0.00    -0.467 OA
ATOM     24  C   UNL     1      15.600   3.934   0.335  0.00  0.00    +0.280 C 
ENDBRANCH  14   5
ENDBRANCH  10  14
TORSDOF 5
ENDMDL
MODEL 6
REMARK VINA RESULT:      -6.0      8.878     13.861
REMARK  Name = 7161596
REMARK  6 active torsions:
REMARK  status: ('A' for Active; 'I' for Inactive)
REMARK    1  A    between atoms: S_1  and  N_8
REMARK    2  A    between atoms: S_1  and  C_16
REMARK    3  A    between atoms: O_5  and  C_14
REMARK    4  A    between atoms: O_5  and  C_24
REMARK    5  A    between atoms: C_10  and  C_14
REMARK    6  A    between atoms: C_15  and  C_17
REMARK                            x       y       z     vdW  Elec       q    Type
REMARK                         _______ _______ _______ _____ _____    ______ ____
ROOT
ATOM      7  O   UNL     1     -10.791   7.361  16.987  0.00  0.00    -0.270 OA
ATOM      8  N   UNL     1     -10.801  12.428  16.929  0.00  0.00    -0.160 NA
ATOM      9  N   UNL     1     -10.926   9.618  17.585  0.00  0.00    -0.294 N 
ATOM     10  C   UNL     1     -10.472  11.404  15.899  0.00  0.00    +0.205 C 
ATOM     11  C   UNL     1     -10.056  10.062  16.495  0.00  0.00    +0.140 C 
ATOM     12  C   UNL     1     -10.666  11.970  18.337  0.00  0.00    +0.129 C 
ATOM     13  C   UNL     1     -11.410  10.653  18.506  0.00  0.00    +0.125 C 
ATOM     15  C   UNL     1     -11.182   8.251  17.741  0.00  0.00    +0.247 C 
ENDROOT
BRANCH  15  17
ATOM      2  F   UNL     1     -15.470   7.525  19.878  0.00  0.00    -0.205 F 
ATOM     17  C   UNL     1     -11.983   7.828  18.900  0.00  0.00    +0.040 A 
ATOM     20  C   UNL     1     -13.373   7.879  18.836  0.00  0.00    +0.051 A 
ATOM     21  C   UNL     1     -11.347   7.379  20.055  0.00  0.00    +0.013 A 
ATOM     26  C   UNL     1     -14.134   7.477  19.935  0.00  0.00    +0.124 A 
ATOM     27  C   UNL     1     -12.107   6.977  21.153  0.00  0.00    +0.004 A 
ATOM     28  C   UNL     1     -13.500   7.027  21.094  0.00  0.00    +0.038 A 
ENDBRANCH  15  17
BRANCH   8   1
ATOM      1  S   UNL     1     -10.305  14.032  16.608  0.00  0.00    +0.062 S 
ATOM      3  O   UNL     1     -10.130  14.722  17.870  0.00  0.00    -0.153 OA
ATOM      4  O   UNL     1     -11.120  14.577  15.543  0.00  0.00    -0.153 OA
BRANCH   1  16
ATOM     16  C   UNL     1      -8.664  13.955  15.898  0.00  0.00    +0.106 A 
ATOM     18  C   UNL     1      -8.521  14.193  14.554  0.00  0.00    +0.028 A 
ATOM     19  C   UNL     1      -7.607  13.661  16.725  0.00  0.00    +0.028 A 
ATOM     22  C   UNL     1      -7.241  14.132  14.000  0.00  0.00    +0.002 A 
ATOM     23  C   UNL     1      -6.328  13.600  16.172  0.00  0.00    +0.002 A 
ATOM     25  C   UNL     1      -6.145  13.836  14.810  0.00  0.00    +0.000 A 
ENDBRANCH   1  16
ENDBRANCH   8   1
BRANCH  10  14
ATOM      6  O   UNL     1     -12.811  11.718  15.436  0.00  0.00    -0.249 OA
ATOM     14  C   UNL     1     -11.724  11.278  15.089  0.00  0.00    +0.327 C 
BRANCH  14   5
ATOM      5  O   UNL     1     -11.452  10.605  13.934  0.00  0.00    -0.467 OA
ATOM     24  C   UNL     1     -12.207   9.406  13.730  0.00  0.00    +0.280 C 
ENDBRANCH  14   5
ENDBRANCH  10  14
TORSDOF 5
ENDMDL
MODEL 7
REMARK VINA RESULT:      -6.0     19.210     20.830
REMARK  Name = 7161596
REMARK  6 active torsions:
REMARK  status: ('A' for Active; 'I' for Inactive)
REMARK    1  A    between atoms: S_1  and  N_8
REMARK    2  A    between atoms: S_1  and  C_16
REMARK    3  A    between atoms: O_5  and  C_14
REMARK    4  A    between atoms: O_5  and  C_24
REMARK    5  A    between atoms: C_10  and  C_14
REMARK    6  A    between atoms: C_15  and  C_17
REMARK                            x       y       z     vdW  Elec       q    Type
REMARK                         _______ _______ _______ _____ _____    ______ ____
ROOT
ATOM      7  O   UNL     1      -4.183 -13.266  13.031  0.00  0.00    -0.270 OA
ATOM      8  N   UNL     1      -6.225 -10.550  16.791  0.00  0.00    -0.160 NA
ATOM      9  N   UNL     1      -5.170 -11.569  14.303  0.00  0.00    -0.294 N 
ATOM     10  C   UNL     1      -5.778 -11.967  16.692  0.00  0.00    +0.205 C 
ATOM     11  C   UNL     1      -5.770 -12.498  15.261  0.00  0.00    +0.140 C 
ATOM     12  C   UNL     1      -6.581  -9.911  15.497  0.00  0.00    +0.129 C 
ATOM     13  C   UNL     1      -5.453 -10.143  14.500  0.00  0.00    +0.125 C 
ATOM     15  C   UNL     1      -4.438 -12.078  13.224  0.00  0.00    +0.247 C 
ENDROOT
BRANCH  15  17
ATOM      2  F   UNL     1      -0.861  -9.337  11.441  0.00  0.00    -0.205 F 
ATOM     17  C   UNL     1      -3.927 -11.125  12.227  0.00  0.00    +0.040 A 
ATOM     20  C   UNL     1      -2.612 -10.676  12.310  0.00  0.00    +0.051 A 
ATOM     21  C   UNL     1      -4.760 -10.677  11.205  0.00  0.00    +0.013 A 
ATOM     26  C   UNL     1      -2.125  -9.773  11.364  0.00  0.00    +0.124 A 
ATOM     27  C   UNL     1      -4.275  -9.774  10.260  0.00  0.00    +0.004 A 
ATOM     28  C   UNL     1      -2.958  -9.321  10.339  0.00  0.00    +0.038 A 
ENDBRANCH  15  17
BRANCH   8   1
ATOM      1  S   UNL     1      -7.209 -10.143  18.128  0.00  0.00    +0.062 S 
ATOM      3  O   UNL     1      -8.193  -9.171  17.696  0.00  0.00    -0.153 OA
ATOM      4  O   UNL     1      -6.370  -9.922  19.286  0.00  0.00    -0.153 OA
BRANCH   1  16
ATOM     16  C   UNL     1      -8.161 -11.597  18.557  0.00  0.00    +0.106 A 
ATOM     18  C   UNL     1      -7.840 -12.272  19.708  0.00  0.00    +0.028 A 
ATOM     19  C   UNL     1      -9.178 -11.984  17.718  0.00  0.00    +0.028 A 
ATOM     22  C   UNL     1      -8.582 -13.406  20.043  0.00  0.00    +0.002 A 
ATOM     23  C   UNL     1      -9.919 -13.117  18.052  0.00  0.00    +0.002 A 
ATOM     25  C   UNL     1      -9.621 -13.828  19.214  0.00  0.00    +0.000 A 
ENDBRANCH   1  16
ENDBRANCH   8   1
BRANCH  10  14
ATOM      6  O   UNL     1      -3.455 -11.355  16.807  0.00  0.00    -0.249 OA
ATOM     14  C   UNL     1      -4.404 -11.965  17.282  0.00  0.00    +0.327 C 
BRANCH  14   5
ATOM      5  O   UNL     1      -4.389 -12.737  18.406  0.00  0.00    -0.467 OA
ATOM     24  C   UNL     1      -3.709 -12.172  19.531  0.00  0.00    +0.280 C 
ENDBRANCH  14   5
ENDBRANCH  10  14
TORSDOF 5
ENDMDL
MODEL 8
REMARK VINA RESULT:      -5.9     20.245     22.629
REMARK  Name = 7161596
REMARK  6 active torsions:
REMARK  status: ('A' for Active; 'I' for Inactive)
REMARK    1  A    between atoms: S_1  and  N_8
REMARK    2  A    between atoms: S_1  and  C_16
REMARK    3  A    between atoms: O_5  and  C_14
REMARK    4  A    between atoms: O_5  and  C_24
REMARK    5  A    between atoms: C_10  and  C_14
REMARK    6  A    between atoms: C_15  and  C_17
REMARK                            x       y       z     vdW  Elec       q    Type
REMARK                         _______ _______ _______ _____ _____    ______ ____
ROOT
ATOM      7  O   UNL     1      -4.951 -10.747  18.098  0.00  0.00    -0.270 OA
ATOM      8  N   UNL     1      -3.804 -11.590  13.234  0.00  0.00    -0.160 NA
ATOM      9  N   UNL     1      -4.971 -10.815  15.760  0.00  0.00    -0.294 N 
ATOM     10  C   UNL     1      -3.076 -11.852  14.506  0.00  0.00    +0.205 C 
ATOM     11  C   UNL     1      -3.517 -10.944  15.651  0.00  0.00    +0.140 C 
ATOM     12  C   UNL     1      -4.817 -10.504  13.301  0.00  0.00    +0.129 C 
ATOM     13  C   UNL     1      -5.723 -10.741  14.502  0.00  0.00    +0.125 C 
ATOM     15  C   UNL     1      -5.552 -10.690  17.027  0.00  0.00    +0.247 C 
ENDROOT
BRANCH  15  17
ATOM      2  F   UNL     1      -9.373  -7.710  17.132  0.00  0.00    -0.205 F 
ATOM     17  C   UNL     1      -7.005 -10.467  17.099  0.00  0.00    +0.040 A 
ATOM     20  C   UNL     1      -7.508  -9.169  17.081  0.00  0.00    +0.051 A 
ATOM     21  C   UNL     1      -7.870 -11.556  17.182  0.00  0.00    +0.013 A 
ATOM     26  C   UNL     1      -8.885  -8.957  17.148  0.00  0.00    +0.124 A 
ATOM     27  C   UNL     1      -9.246 -11.344  17.250  0.00  0.00    +0.004 A 
ATOM     28  C   UNL     1      -9.755 -10.045  17.233  0.00  0.00    +0.038 A 
ENDBRANCH  15  17
BRANCH   8   1
ATOM      1  S   UNL     1      -2.893 -11.682  11.791  0.00  0.00    +0.062 S 
ATOM      3  O   UNL     1      -2.894 -13.056  11.332  0.00  0.00    -0.153 OA
ATOM      4  O   UNL     1      -1.667 -10.930  11.954  0.00  0.00    -0.153 OA
BRANCH   1  16
ATOM     16  C   UNL     1      -3.788 -10.778  10.531  0.00  0.00    +0.106 A 
ATOM     18  C   UNL     1      -3.378  -9.504  10.226  0.00  0.00    +0.028 A 
ATOM     19  C   UNL     1      -4.852 -11.393   9.917  0.00  0.00    +0.028 A 
ATOM     22  C   UNL     1      -4.077  -8.799   9.245  0.00  0.00    +0.002 A 
ATOM     23  C   UNL     1      -5.549 -10.689   8.936  0.00  0.00    +0.002 A 
ATOM     25  C   UNL     1      -5.162  -9.393   8.600  0.00  0.00    +0.000 A 
ENDBRANCH   1  16
ENDBRANCH   8   1
BRANCH  10  14
ATOM      6  O   UNL     1      -4.384 -13.685  15.349  0.00  0.00    -0.249 OA
ATOM     14  C   UNL     1      -3.361 -13.289  14.808  0.00  0.00    +0.327 C 
BRANCH  14   5
ATOM      5  O   UNL     1      -2.315 -14.058  14.390  0.00  0.00    -0.467 OA
ATOM     24  C   UNL     1      -2.555 -15.469  14.383  0.00  0.00    +0.280 C 
ENDBRANCH  14   5
ENDBRANCH  10  14
TORSDOF 5
ENDMDL
MODEL 9
REMARK VINA RESULT:      -5.9     20.544     22.068
REMARK  Name = 7161596
REMARK  6 active torsions:
REMARK  status: ('A' for Active; 'I' for Inactive)
REMARK    1  A    between atoms: S_1  and  N_8
REMARK    2  A    between atoms: S_1  and  C_16
REMARK    3  A    between atoms: O_5  and  C_14
REMARK    4  A    between atoms: O_5  and  C_24
REMARK    5  A    between atoms: C_10  and  C_14
REMARK    6  A    between atoms: C_15  and  C_17
REMARK                            x       y       z     vdW  Elec       q    Type
REMARK                         _______ _______ _______ _____ _____    ______ ____
ROOT
ATOM      7  O   UNL     1      -1.730 -10.594  11.827  0.00  0.00    -0.270 OA
ATOM      8  N   UNL     1      -4.988 -12.859  14.979  0.00  0.00    -0.160 NA
ATOM      9  N   UNL     1      -3.576 -11.703  12.741  0.00  0.00    -0.294 N 
ATOM     10  C   UNL     1      -3.610 -12.325  15.160  0.00  0.00    +0.205 C 
ATOM     11  C   UNL     1      -2.814 -12.261  13.859  0.00  0.00    +0.140 C 
ATOM     12  C   UNL     1      -5.340 -13.233  13.585  0.00  0.00    +0.129 C 
ATOM     13  C   UNL     1      -4.992 -12.077  12.656  0.00  0.00    +0.125 C 
ATOM     15  C   UNL     1      -2.914 -10.925  11.785  0.00  0.00    +0.247 C 
ENDROOT
BRANCH  15  17
ATOM      2  F   UNL     1      -5.492  -7.500   9.523  0.00  0.00    -0.205 F 
ATOM     17  C   UNL     1      -3.687 -10.457  10.623  0.00  0.00    +0.040 A 
ATOM     20  C   UNL     1      -4.232  -9.176  10.626  0.00  0.00    +0.051 A 
ATOM     21  C   UNL     1      -3.868 -11.297   9.527  0.00  0.00    +0.013 A 
ATOM     26  C   UNL     1      -4.964  -8.731   9.524  0.00  0.00    +0.124 A 
ATOM     27  C   UNL     1      -4.600 -10.853   8.426  0.00  0.00    +0.004 A 
ATOM     28  C   UNL     1      -5.148  -9.570   8.425  0.00  0.00    +0.038 A 
ENDBRANCH  15  17
BRANCH   8   1
ATOM      1  S   UNL     1      -5.583 -13.888  16.208  0.00  0.00    +0.062 S 
ATOM      3  O   UNL     1      -4.516 -14.778  16.621  0.00  0.00    -0.153 OA
ATOM      4  O   UNL     1      -6.887 -14.383  15.823  0.00  0.00    -0.153 OA
BRANCH   1  16
ATOM     16  C   UNL     1      -5.913 -12.874  17.645  0.00  0.00    +0.106 A 
ATOM     18  C   UNL     1      -4.877 -12.598  18.502  0.00  0.00    +0.028 A 
ATOM     19  C   UNL     1      -7.192 -12.410  17.838  0.00  0.00    +0.028 A 
ATOM     22  C   UNL     1      -5.134 -11.808  19.624  0.00  0.00    +0.002 A 
ATOM     23  C   UNL     1      -7.449 -11.620  18.959  0.00  0.00    +0.002 A 
ATOM     25  C   UNL     1      -6.420 -11.319  19.851  0.00  0.00    +0.000 A 
ENDBRANCH   1  16
ENDBRANCH   8   1
BRANCH  10  14
ATOM      6  O   UNL     1      -2.991 -10.386  16.442  0.00  0.00    -0.249 OA
ATOM     14  C   UNL     1      -3.814 -10.963  15.743  0.00  0.00    +0.327 C 
BRANCH  14   5
ATOM      5  O   UNL     1      -5.038 -10.488  15.374  0.00  0.00    -0.467 OA
ATOM     24  C   UNL     1      -5.628  -9.545  16.275  0.00  0.00    +0.280 C 
ENDBRANCH  14   5
ENDBRANCH  10  14
TORSDOF 5
ENDMDL
MODEL 10
REMARK VINA RESULT:      -5.8      8.325     11.471
REMARK  Name = 7161596
REMARK  6 active torsions:
REMARK  status: ('A' for Active; 'I' for Inactive)
REMARK    1  A    between atoms: S_1  and  N_8
REMARK    2  A    between atoms: S_1  and  C_16
REMARK    3  A    between atoms: O_5  and  C_14
REMARK    4  A    between atoms: O_5  and  C_24
REMARK    5  A    between atoms: C_10  and  C_14
REMARK    6  A    between atoms: C_15  and  C_17
REMARK                            x       y       z     vdW  Elec       q    Type
REMARK                         _______ _______ _______ _____ _____    ______ ____
ROOT
ATOM      7  O   UNL     1     -11.166   8.615  12.807  0.00  0.00    -0.270 OA
ATOM      8  N   UNL     1     -11.788   9.575  17.744  0.00  0.00    -0.160 NA
ATOM      9  N   UNL     1     -11.958   8.667  15.008  0.00  0.00    -0.294 N 
ATOM     10  C   UNL     1     -10.724   9.937  16.769  0.00  0.00    +0.205 C 
ATOM     11  C   UNL     1     -10.648   8.985  15.578  0.00  0.00    +0.140 C 
ATOM     12  C   UNL     1     -12.579   8.366  17.393  0.00  0.00    +0.129 C 
ATOM     13  C   UNL     1     -13.064   8.489  15.955  0.00  0.00    +0.125 C 
ATOM     15  C   UNL     1     -12.073   8.473  13.626  0.00  0.00    +0.247 C 
ENDROOT
BRANCH  15  17
ATOM      2  F   UNL     1     -15.307   5.028  12.553  0.00  0.00    -0.205 F 
ATOM     17  C   UNL     1     -13.382   8.063  13.095  0.00  0.00    +0.040 A 
ATOM     20  C   UNL     1     -13.728   6.714  13.077  0.00  0.00    +0.051 A 
ATOM     21  C   UNL     1     -14.268   9.024  12.615  0.00  0.00    +0.013 A 
ATOM     26  C   UNL     1     -14.970   6.323  12.574  0.00  0.00    +0.124 A 
ATOM     27  C   UNL     1     -15.509   8.633  12.112  0.00  0.00    +0.004 A 
ATOM     28  C   UNL     1     -15.860   7.284  12.092  0.00  0.00    +0.038 A 
ENDBRANCH  15  17
BRANCH   8   1
ATOM      1  S   UNL     1     -11.418   9.778  19.401  0.00  0.00    +0.062 S 
ATOM      3  O   UNL     1     -12.062  10.987  19.872  0.00  0.00    -0.153 OA
ATOM      4  O   UNL     1     -10.007   9.531  19.606  0.00  0.00    -0.153 OA
BRANCH   1  16
ATOM     16  C   UNL     1     -12.222   8.454  20.297  0.00  0.00    +0.106 A 
ATOM     18  C   UNL     1     -13.502   8.655  20.751  0.00  0.00    +0.028 A 
ATOM     19  C   UNL     1     -11.528   7.285  20.499  0.00  0.00    +0.028 A 
ATOM     22  C   UNL     1     -14.128   7.623  21.451  0.00  0.00    +0.002 A 
ATOM     23  C   UNL     1     -12.155   6.254  21.198  0.00  0.00    +0.002 A 
ATOM     25  C   UNL     1     -13.454   6.423  21.674  0.00  0.00    +0.000 A 
ENDBRANCH   1  16
ENDBRANCH   8   1
BRANCH  10  14
ATOM      6  O   UNL     1     -12.178  11.831  16.482  0.00  0.00    -0.249 OA
ATOM     14  C   UNL     1     -11.073  11.326  16.337  0.00  0.00    +0.327 C 
BRANCH  14   5
ATOM      5  O   UNL     1      -9.982  11.914  15.768  0.00  0.00    -0.467 OA
ATOM     24  C   UNL     1      -9.037  12.474  16.687  0.00  0.00    +0.280 C 
ENDBRANCH  14   5
ENDBRANCH  10  14
TORSDOF 5
ENDMDL
