MODEL 1
REMARK VINA RESULT:      -5.9      0.000      0.000
REMARK  Name = 45360468
REMARK  6 active torsions:
REMARK  status: ('A' for Active; 'I' for Inactive)
REMARK    1  A    between atoms: N_3  and  C_13
REMARK    2  A    between atoms: N_3  and  C_15
REMARK    3  A    between atoms: C_7  and  C_13
REMARK    4  A    between atoms: C_8  and  C_14
REMARK    5  A    between atoms: C_22  and  C_24
REMARK    6  A    between atoms: C_23  and  C_25
REMARK                            x       y       z     vdW  Elec       q    Type
REMARK                         _______ _______ _______ _____ _____    ______ ____
ROOT
ATOM      2  N   UNL     1      -7.581 -11.678  17.683  0.00  0.00    -0.298 NA
ATOM      6  C   UNL     1      -5.220 -10.830  18.382  0.00  0.00    +0.002 C 
ATOM      7  C   UNL     1      -6.764 -12.812  18.191  0.00  0.00    +0.071 C 
ATOM      8  C   UNL     1      -5.578 -10.328  16.955  0.00  0.00    +0.055 C 
ATOM      9  C   UNL     1      -5.301 -12.370  18.414  0.00  0.00    +0.024 C 
ATOM     10  C   UNL     1      -6.315 -10.297  19.330  0.00  0.00    +0.019 C 
ATOM     11  C   UNL     1      -6.899 -11.034  16.533  0.00  0.00    +0.094 C 
ATOM     12  C   UNL     1      -7.697 -10.678  18.771  0.00  0.00    +0.085 C 
ENDROOT
BRANCH   8  14
ATOM      4  N   UNL     1      -3.238 -10.576  16.291  0.00  0.00    -0.237 NA
ATOM      5  N   UNL     1      -2.549 -10.557  13.983  0.00  0.00    -0.229 NA
ATOM     14  C   UNL     1      -4.510 -10.407  15.875  0.00  0.00    +0.050 A 
ATOM     18  C   UNL     1      -4.875 -10.306  14.548  0.00  0.00    +0.055 A 
ATOM     22  C   UNL     1      -3.842 -10.389  13.636  0.00  0.00    +0.110 A 
ATOM     23  C   UNL     1      -2.321 -10.642  15.307  0.00  0.00    +0.127 A 
ATOM     25  C   UNL     1      -0.903 -10.830  15.728  0.00  0.00    +0.088 C 
BRANCH  22  24
ATOM      1  O   UNL     1      -5.383 -10.376  11.843  0.00  0.00    -0.461 OA
ATOM     24  C   UNL     1      -4.081 -10.297  12.220  0.00  0.00    +0.153 A 
ATOM     26  C   UNL     1      -3.267 -10.141  11.121  0.00  0.00    +0.051 A 
ATOM     27  C   UNL     1      -4.125 -10.124   9.997  0.00  0.00    +0.042 A 
ATOM     28  C   UNL     1      -5.402 -10.270  10.488  0.00  0.00    +0.196 A 
ENDBRANCH  22  24
ENDBRANCH   8  14
BRANCH   7  13
ATOM     13  C   UNL     1      -6.856 -14.046  17.292  0.00  0.00    +0.100 C 
BRANCH  13   3
ATOM      3  N   UNL     1      -5.542 -14.631  17.083  0.00  0.00    -0.312 NA
ATOM     29  H   UNL     1      -5.498 -15.524  17.573  0.00  0.00    +0.122 HD
BRANCH   3  15
ATOM     15  C   UNL     1      -5.278 -14.835  15.660  0.00  0.00    +0.054 C 
ATOM     16  C   UNL     1      -4.083 -13.979  15.224  0.00  0.00    +0.019 C 
ATOM     17  C   UNL     1      -6.530 -14.492  14.845  0.00  0.00    +0.019 C 
ATOM     19  C   UNL     1      -3.825 -14.108  13.724  0.00  0.00    +0.002 C 
ATOM     20  C   UNL     1      -6.268 -14.619  13.345  0.00  0.00    +0.002 C 
ATOM     21  C   UNL     1      -5.072 -13.779  12.908  0.00  0.00    +0.000 C 
ENDBRANCH   3  15
ENDBRANCH  13   3
ENDBRANCH   7  13
TORSDOF 5
ENDMDL
MODEL 2
REMARK VINA RESULT:      -5.8      2.628      6.399
REMARK  Name = 45360468
REMARK  6 active torsions:
REMARK  status: ('A' for Active; 'I' for Inactive)
REMARK    1  A    between atoms: N_3  and  C_13
REMARK    2  A    between atoms: N_3  and  C_15
REMARK    3  A    between atoms: C_7  and  C_13
REMARK    4  A    between atoms: C_8  and  C_14
REMARK    5  A    between atoms: C_22  and  C_24
REMARK    6  A    between atoms: C_23  and  C_25
REMARK                            x       y       z     vdW  Elec       q    Type
REMARK                         _______ _______ _______ _____ _____    ______ ____
ROOT
ATOM      2  N   UNL     1      -6.893 -11.302  11.485  0.00  0.00    -0.298 NA
ATOM      6  C   UNL     1      -4.751  -9.858  11.820  0.00  0.00    +0.002 C 
ATOM      7  C   UNL     1      -7.270  -9.901  11.811  0.00  0.00    +0.071 C 
ATOM      8  C   UNL     1      -4.665 -11.163  12.660  0.00  0.00    +0.055 C 
ATOM      9  C   UNL     1      -6.025  -9.082  12.216  0.00  0.00    +0.024 C 
ATOM     10  C   UNL     1      -4.920 -10.287  10.347  0.00  0.00    +0.019 C 
ATOM     11  C   UNL     1      -6.049 -11.867  12.568  0.00  0.00    +0.094 C 
ATOM     12  C   UNL     1      -6.091 -11.278  10.239  0.00  0.00    +0.085 C 
ENDROOT
BRANCH   8  14
ATOM      4  N   UNL     1      -2.867 -10.719  14.258  0.00  0.00    -0.237 NA
ATOM      5  N   UNL     1      -3.199 -10.871  16.639  0.00  0.00    -0.229 NA
ATOM     14  C   UNL     1      -4.161 -11.065  14.092  0.00  0.00    +0.050 A 
ATOM     18  C   UNL     1      -5.024 -11.326  15.137  0.00  0.00    +0.055 A 
ATOM     22  C   UNL     1      -4.483 -11.212  16.402  0.00  0.00    +0.110 A 
ATOM     23  C   UNL     1      -2.458 -10.643  15.539  0.00  0.00    +0.127 A 
ATOM     25  C   UNL     1      -1.034 -10.262  15.762  0.00  0.00    +0.088 C 
BRANCH  22  24
ATOM      1  O   UNL     1      -5.145 -10.534  18.568  0.00  0.00    -0.461 OA
ATOM     24  C   UNL     1      -5.270 -11.458  17.580  0.00  0.00    +0.153 A 
ATOM     26  C   UNL     1      -6.153 -12.447  17.952  0.00  0.00    +0.051 A 
ATOM     27  C   UNL     1      -6.597 -12.108  19.252  0.00  0.00    +0.042 A 
ATOM     28  C   UNL     1      -5.955 -10.936  19.582  0.00  0.00    +0.196 A 
ENDBRANCH  22  24
ENDBRANCH   8  14
BRANCH   7  13
ATOM     13  C   UNL     1      -8.371  -9.825  12.871  0.00  0.00    +0.100 C 
BRANCH  13   3
ATOM      3  N   UNL     1      -7.854  -9.274  14.113  0.00  0.00    -0.312 NA
ATOM     29  H   UNL     1      -7.774  -8.262  14.016  0.00  0.00    +0.122 HD
BRANCH   3  15
ATOM     15  C   UNL     1      -8.734  -9.594  15.236  0.00  0.00    +0.054 C 
ATOM     16  C   UNL     1     -10.031  -8.786  15.127  0.00  0.00    +0.019 C 
ATOM     17  C   UNL     1      -8.014  -9.308  16.558  0.00  0.00    +0.019 C 
ATOM     19  C   UNL     1     -10.945  -9.038  16.325  0.00  0.00    +0.002 C 
ATOM     20  C   UNL     1      -8.930  -9.558  17.755  0.00  0.00    +0.002 C 
ATOM     21  C   UNL     1     -10.229  -8.765  17.646  0.00  0.00    +0.000 C 
ENDBRANCH   3  15
ENDBRANCH  13   3
ENDBRANCH   7  13
TORSDOF 5
ENDMDL
MODEL 3
REMARK VINA RESULT:      -5.8      3.199      5.714
REMARK  Name = 45360468
REMARK  6 active torsions:
REMARK  status: ('A' for Active; 'I' for Inactive)
REMARK    1  A    between atoms: N_3  and  C_13
REMARK    2  A    between atoms: N_3  and  C_15
REMARK    3  A    between atoms: C_7  and  C_13
REMARK    4  A    between atoms: C_8  and  C_14
REMARK    5  A    between atoms: C_22  and  C_24
REMARK    6  A    between atoms: C_23  and  C_25
REMARK                            x       y       z     vdW  Elec       q    Type
REMARK                         _______ _______ _______ _____ _____    ______ ____
ROOT
ATOM      2  N   UNL     1      -4.926 -12.673  17.114  0.00  0.00    -0.298 NA
ATOM      6  C   UNL     1      -5.750 -10.273  17.704  0.00  0.00    +0.002 C 
ATOM      7  C   UNL     1      -3.984 -11.663  16.563  0.00  0.00    +0.071 C 
ATOM      8  C   UNL     1      -6.904 -11.107  17.081  0.00  0.00    +0.055 C 
ATOM      9  C   UNL     1      -4.560 -10.239  16.721  0.00  0.00    +0.024 C 
ATOM     10  C   UNL     1      -5.279 -11.034  18.961  0.00  0.00    +0.019 C 
ATOM     11  C   UNL     1      -6.290 -12.444  16.575  0.00  0.00    +0.094 C 
ATOM     12  C   UNL     1      -4.975 -12.495  18.585  0.00  0.00    +0.085 C 
ENDROOT
BRANCH   8  14
ATOM      4  N   UNL     1      -7.598 -10.823  14.753  0.00  0.00    -0.237 NA
ATOM      5  N   UNL     1      -9.342  -9.290  14.111  0.00  0.00    -0.229 NA
ATOM     14  C   UNL     1      -7.787 -10.444  16.034  0.00  0.00    +0.050 A 
ATOM     18  C   UNL     1      -8.721  -9.507  16.426  0.00  0.00    +0.055 A 
ATOM     22  C   UNL     1      -9.478  -8.957  15.411  0.00  0.00    +0.110 A 
ATOM     23  C   UNL     1      -8.398 -10.215  13.856  0.00  0.00    +0.127 A 
ATOM     25  C   UNL     1      -8.219 -10.609  12.429  0.00  0.00    +0.088 C 
BRANCH  22  24
ATOM      1  O   UNL     1     -10.060  -6.678  15.652  0.00  0.00    -0.461 OA
ATOM     24  C   UNL     1     -10.487  -7.967  15.679  0.00  0.00    +0.153 A 
ATOM     26  C   UNL     1     -11.832  -8.025  15.965  0.00  0.00    +0.051 A 
ATOM     27  C   UNL     1     -12.258  -6.685  16.124  0.00  0.00    +0.042 A 
ATOM     28  C   UNL     1     -11.143  -5.903  15.925  0.00  0.00    +0.196 A 
ENDBRANCH  22  24
ENDBRANCH   8  14
BRANCH   7  13
ATOM     13  C   UNL     1      -3.591 -11.960  15.116  0.00  0.00    +0.100 C 
BRANCH  13   3
ATOM      3  N   UNL     1      -2.482 -11.117  14.698  0.00  0.00    -0.312 NA
ATOM     29  H   UNL     1      -1.677 -11.709  14.496  0.00  0.00    +0.122 HD
BRANCH   3  15
ATOM     15  C   UNL     1      -2.833 -10.339  13.512  0.00  0.00    +0.054 C 
ATOM     16  C   UNL     1      -4.276 -10.644  13.096  0.00  0.00    +0.019 C 
ATOM     17  C   UNL     1      -1.852 -10.652  12.376  0.00  0.00    +0.019 C 
ATOM     19  C   UNL     1      -4.653  -9.906  11.813  0.00  0.00    +0.002 C 
ATOM     20  C   UNL     1      -2.233  -9.914  11.093  0.00  0.00    +0.002 C 
ATOM     21  C   UNL     1      -3.673 -10.206  10.682  0.00  0.00    +0.000 C 
ENDBRANCH   3  15
ENDBRANCH  13   3
ENDBRANCH   7  13
TORSDOF 5
ENDMDL
MODEL 4
REMARK VINA RESULT:      -5.8      2.551      4.514
REMARK  Name = 45360468
REMARK  6 active torsions:
REMARK  status: ('A' for Active; 'I' for Inactive)
REMARK    1  A    between atoms: N_3  and  C_13
REMARK    2  A    between atoms: N_3  and  C_15
REMARK    3  A    between atoms: C_7  and  C_13
REMARK    4  A    between atoms: C_8  and  C_14
REMARK    5  A    between atoms: C_22  and  C_24
REMARK    6  A    between atoms: C_23  and  C_25
REMARK                            x       y       z     vdW  Elec       q    Type
REMARK                         _______ _______ _______ _____ _____    ______ ____
ROOT
ATOM      2  N   UNL     1      -5.855 -10.197  17.636  0.00  0.00    -0.298 NA
ATOM      6  C   UNL     1      -4.854 -12.549  17.138  0.00  0.00    +0.002 C 
ATOM      7  C   UNL     1      -6.905 -11.087  17.073  0.00  0.00    +0.071 C 
ATOM      8  C   UNL     1      -3.958 -11.436  16.526  0.00  0.00    +0.055 C 
ATOM      9  C   UNL     1      -6.286 -12.414  16.581  0.00  0.00    +0.024 C 
ATOM     10  C   UNL     1      -4.929 -12.276  18.655  0.00  0.00    +0.019 C 
ATOM     11  C   UNL     1      -4.718 -10.088  16.687  0.00  0.00    +0.094 C 
ATOM     12  C   UNL     1      -5.356 -10.817  18.887  0.00  0.00    +0.085 C 
ENDROOT
BRANCH   8  14
ATOM      4  N   UNL     1      -2.618 -12.695  14.914  0.00  0.00    -0.237 NA
ATOM      5  N   UNL     1      -2.446 -12.044  12.600  0.00  0.00    -0.229 NA
ATOM     14  C   UNL     1      -3.428 -11.635  15.114  0.00  0.00    +0.050 A 
ATOM     18  C   UNL     1      -3.788 -10.747  14.121  0.00  0.00    +0.055 A 
ATOM     22  C   UNL     1      -3.262 -11.004  12.870  0.00  0.00    +0.110 A 
ATOM     23  C   UNL     1      -2.169 -12.838  13.652  0.00  0.00    +0.127 A 
ATOM     25  C   UNL     1      -1.271 -14.000  13.391  0.00  0.00    +0.088 C 
BRANCH  22  24
ATOM      1  O   UNL     1      -4.792  -9.599  11.740  0.00  0.00    -0.461 OA
ATOM     24  C   UNL     1      -3.553 -10.157  11.744  0.00  0.00    +0.153 A 
ATOM     26  C   UNL     1      -2.844  -9.767  10.632  0.00  0.00    +0.051 A 
ATOM     27  C   UNL     1      -3.702  -8.915   9.897  0.00  0.00    +0.042 A 
ATOM     28  C   UNL     1      -4.875  -8.845  10.613  0.00  0.00    +0.196 A 
ENDBRANCH  22  24
ENDBRANCH   8  14
BRANCH   7  13
ATOM     13  C   UNL     1      -7.727 -10.402  15.981  0.00  0.00    +0.100 C 
BRANCH  13   3
ATOM      3  N   UNL     1      -8.021  -9.025  16.344  0.00  0.00    -0.312 NA
ATOM     29  H   UNL     1      -7.349  -8.412  15.883  0.00  0.00    +0.122 HD
BRANCH   3  15
ATOM     15  C   UNL     1      -9.379  -8.656  15.946  0.00  0.00    +0.054 C 
ATOM     16  C   UNL     1      -9.985  -7.706  16.985  0.00  0.00    +0.019 C 
ATOM     17  C   UNL     1     -10.234  -9.918  15.785  0.00  0.00    +0.019 C 
ATOM     19  C   UNL     1     -11.433  -7.359  16.642  0.00  0.00    +0.002 C 
ATOM     20  C   UNL     1     -11.682  -9.568  15.445  0.00  0.00    +0.002 C 
ATOM     21  C   UNL     1     -12.287  -8.613  16.470  0.00  0.00    +0.000 C 
ENDBRANCH   3  15
ENDBRANCH  13   3
ENDBRANCH   7  13
TORSDOF 5
ENDMDL
MODEL 5
REMARK VINA RESULT:      -5.8      2.240      4.182
REMARK  Name = 45360468
REMARK  6 active torsions:
REMARK  status: ('A' for Active; 'I' for Inactive)
REMARK    1  A    between atoms: N_3  and  C_13
REMARK    2  A    between atoms: N_3  and  C_15
REMARK    3  A    between atoms: C_7  and  C_13
REMARK    4  A    between atoms: C_8  and  C_14
REMARK    5  A    between atoms: C_22  and  C_24
REMARK    6  A    between atoms: C_23  and  C_25
REMARK                            x       y       z     vdW  Elec       q    Type
REMARK                         _______ _______ _______ _____ _____    ______ ____
ROOT
ATOM      2  N   UNL     1      -4.411 -12.472  16.854  0.00  0.00    -0.298 NA
ATOM      6  C   UNL     1      -6.245 -10.797  17.638  0.00  0.00    +0.002 C 
ATOM      7  C   UNL     1      -3.821 -11.119  17.031  0.00  0.00    +0.071 C 
ATOM      8  C   UNL     1      -6.732 -11.594  16.396  0.00  0.00    +0.055 C 
ATOM      9  C   UNL     1      -4.926 -10.073  17.293  0.00  0.00    +0.024 C 
ATOM     10  C   UNL     1      -5.920 -11.834  18.734  0.00  0.00    +0.019 C 
ATOM     11  C   UNL     1      -5.521 -12.418  15.870  0.00  0.00    +0.094 C 
ATOM     12  C   UNL     1      -4.971 -12.899  18.159  0.00  0.00    +0.085 C 
ENDROOT
BRANCH   8  14
ATOM      4  N   UNL     1      -8.749 -10.568  15.469  0.00  0.00    -0.237 NA
ATOM      5  N   UNL     1      -8.762  -9.470  13.325  0.00  0.00    -0.229 NA
ATOM     14  C   UNL     1      -7.439 -10.833  15.284  0.00  0.00    +0.050 A 
ATOM     18  C   UNL     1      -6.731 -10.454  14.162  0.00  0.00    +0.055 A 
ATOM     22  C   UNL     1      -7.452  -9.768  13.205  0.00  0.00    +0.110 A 
ATOM     23  C   UNL     1      -9.340  -9.894  14.464  0.00  0.00    +0.127 A 
ATOM     25  C   UNL     1     -10.789  -9.581  14.633  0.00  0.00    +0.088 C 
BRANCH  22  24
ATOM      1  O   UNL     1      -7.683  -9.158  10.932  0.00  0.00    -0.461 OA
ATOM     24  C   UNL     1      -6.839  -9.315  11.985  0.00  0.00    +0.153 A 
ATOM     26  C   UNL     1      -5.550  -8.992  11.624  0.00  0.00    +0.051 A 
ATOM     27  C   UNL     1      -5.607  -8.613  10.263  0.00  0.00    +0.042 A 
ATOM     28  C   UNL     1      -6.926  -8.730   9.887  0.00  0.00    +0.196 A 
ENDBRANCH  22  24
ENDBRANCH   8  14
BRANCH   7  13
ATOM     13  C   UNL     1      -2.922 -10.717  15.861  0.00  0.00    +0.100 C 
BRANCH  13   3
ATOM      3  N   UNL     1      -2.022 -11.802  15.506  0.00  0.00    -0.312 NA
ATOM     29  H   UNL     1      -2.379 -12.671  15.902  0.00  0.00    +0.122 HD
BRANCH   3  15
ATOM     15  C   UNL     1      -1.906 -11.934  14.054  0.00  0.00    +0.054 C 
ATOM     16  C   UNL     1      -2.265 -10.605  13.381  0.00  0.00    +0.019 C 
ATOM     17  C   UNL     1      -2.813 -13.067  13.561  0.00  0.00    +0.019 C 
ATOM     19  C   UNL     1      -2.230 -10.727  11.858  0.00  0.00    +0.002 C 
ATOM     20  C   UNL     1      -2.776 -13.185  12.038  0.00  0.00    +0.002 C 
ATOM     21  C   UNL     1      -3.122 -11.861  11.363  0.00  0.00    +0.000 C 
ENDBRANCH   3  15
ENDBRANCH  13   3
ENDBRANCH   7  13
TORSDOF 5
ENDMDL
MODEL 6
REMARK VINA RESULT:      -5.8     25.401     28.039
REMARK  Name = 45360468
REMARK  6 active torsions:
REMARK  status: ('A' for Active; 'I' for Inactive)
REMARK    1  A    between atoms: N_3  and  C_13
REMARK    2  A    between atoms: N_3  and  C_15
REMARK    3  A    between atoms: C_7  and  C_13
REMARK    4  A    between atoms: C_8  and  C_14
REMARK    5  A    between atoms: C_22  and  C_24
REMARK    6  A    between atoms: C_23  and  C_25
REMARK                            x       y       z     vdW  Elec       q    Type
REMARK                         _______ _______ _______ _____ _____    ______ ____
ROOT
ATOM      2  N   UNL     1      10.255   6.091   5.376  0.00  0.00    -0.298 NA
ATOM      6  C   UNL     1       9.886   6.913   2.932  0.00  0.00    +0.002 C 
ATOM      7  C   UNL     1      11.149   7.243   5.087  0.00  0.00    +0.071 C 
ATOM      8  C   UNL     1      10.104   5.375   2.961  0.00  0.00    +0.055 C 
ATOM      9  C   UNL     1      11.096   7.611   3.588  0.00  0.00    +0.024 C 
ATOM     10  C   UNL     1       8.657   7.206   3.819  0.00  0.00    +0.019 C 
ATOM     11  C   UNL     1      10.514   4.992   4.412  0.00  0.00    +0.094 C 
ATOM     12  C   UNL     1       8.856   6.545   5.194  0.00  0.00    +0.085 C 
ENDROOT
BRANCH   8  14
ATOM      4  N   UNL     1      12.295   4.512   2.302  0.00  0.00    -0.237 NA
ATOM      5  N   UNL     1      12.725   3.653   0.092  0.00  0.00    -0.229 NA
ATOM     14  C   UNL     1      11.025   4.759   1.919  0.00  0.00    +0.050 A 
ATOM     18  C   UNL     1      10.538   4.485   0.657  0.00  0.00    +0.055 A 
ATOM     22  C   UNL     1      11.442   3.926  -0.224  0.00  0.00    +0.110 A 
ATOM     23  C   UNL     1      13.080   3.967   1.352  0.00  0.00    +0.127 A 
ATOM     25  C   UNL     1      14.491   3.678   1.739  0.00  0.00    +0.088 C 
BRANCH  22  24
ATOM      1  O   UNL     1       9.983   4.251  -2.057  0.00  0.00    -0.461 OA
ATOM     24  C   UNL     1      11.068   3.592  -1.573  0.00  0.00    +0.153 A 
ATOM     26  C   UNL     1      11.572   2.729  -2.519  0.00  0.00    +0.051 A 
ATOM     27  C   UNL     1      10.743   2.867  -3.657  0.00  0.00    +0.042 A 
ATOM     28  C   UNL     1       9.791   3.805  -3.326  0.00  0.00    +0.196 A 
ENDBRANCH  22  24
ENDBRANCH   8  14
BRANCH   7  13
ATOM     13  C   UNL     1      12.582   7.004   5.564  0.00  0.00    +0.100 C 
BRANCH  13   3
ATOM      3  N   UNL     1      13.493   6.907   4.435  0.00  0.00    -0.312 NA
ATOM     29  H   UNL     1      12.970   7.075   3.575  0.00  0.00    +0.122 HD
BRANCH   3  15
ATOM     15  C   UNL     1      14.578   7.880   4.550  0.00  0.00    +0.054 C 
ATOM     16  C   UNL     1      15.911   7.220   4.181  0.00  0.00    +0.019 C 
ATOM     17  C   UNL     1      14.617   8.448   5.974  0.00  0.00    +0.019 C 
ATOM     19  C   UNL     1      17.079   8.187   4.364  0.00  0.00    +0.002 C 
ATOM     20  C   UNL     1      15.788   9.413   6.155  0.00  0.00    +0.002 C 
ATOM     21  C   UNL     1      17.117   8.764   5.777  0.00  0.00    +0.000 C 
ENDBRANCH   3  15
ENDBRANCH  13   3
ENDBRANCH   7  13
TORSDOF 5
ENDMDL
MODEL 7
REMARK VINA RESULT:      -5.7      3.081      6.582
REMARK  Name = 45360468
REMARK  6 active torsions:
REMARK  status: ('A' for Active; 'I' for Inactive)
REMARK    1  A    between atoms: N_3  and  C_13
REMARK    2  A    between atoms: N_3  and  C_15
REMARK    3  A    between atoms: C_7  and  C_13
REMARK    4  A    between atoms: C_8  and  C_14
REMARK    5  A    between atoms: C_22  and  C_24
REMARK    6  A    between atoms: C_23  and  C_25
REMARK                            x       y       z     vdW  Elec       q    Type
REMARK                         _______ _______ _______ _____ _____    ______ ____
ROOT
ATOM      2  N   UNL     1      -5.510 -11.860  15.639  0.00  0.00    -0.298 NA
ATOM      6  C   UNL     1      -5.634 -10.435  17.815  0.00  0.00    +0.002 C 
ATOM      7  C   UNL     1      -5.251 -10.431  15.325  0.00  0.00    +0.071 C 
ATOM      8  C   UNL     1      -6.888 -11.344  17.688  0.00  0.00    +0.055 C 
ATOM      9  C   UNL     1      -5.523  -9.544  16.559  0.00  0.00    +0.024 C 
ATOM     10  C   UNL     1      -4.405 -11.368  17.820  0.00  0.00    +0.019 C 
ATOM     11  C   UNL     1      -6.840 -12.007  16.281  0.00  0.00    +0.094 C 
ATOM     12  C   UNL     1      -4.478 -12.309  16.604  0.00  0.00    +0.085 C 
ENDROOT
BRANCH   8  14
ATOM      4  N   UNL     1      -8.936 -11.281  19.023  0.00  0.00    -0.237 NA
ATOM      5  N   UNL     1     -10.699  -9.695  18.596  0.00  0.00    -0.229 NA
ATOM     14  C   UNL     1      -8.250 -10.739  17.996  0.00  0.00    +0.050 A 
ATOM     18  C   UNL     1      -8.715  -9.688  17.233  0.00  0.00    +0.055 A 
ATOM     22  C   UNL     1      -9.959  -9.201  17.582  0.00  0.00    +0.110 A 
ATOM     23  C   UNL     1     -10.136 -10.720  19.265  0.00  0.00    +0.127 A 
ATOM     25  C   UNL     1     -10.925 -11.292  20.394  0.00  0.00    +0.088 C 
BRANCH  22  24
ATOM      1  O   UNL     1      -9.704  -7.308  16.188  0.00  0.00    -0.461 OA
ATOM     24  C   UNL     1     -10.565  -8.108  16.869  0.00  0.00    +0.153 A 
ATOM     26  C   UNL     1     -11.860  -7.670  16.712  0.00  0.00    +0.051 A 
ATOM     27  C   UNL     1     -11.790  -6.528  15.880  0.00  0.00    +0.042 A 
ATOM     28  C   UNL     1     -10.457  -6.348  15.588  0.00  0.00    +0.196 A 
ENDBRANCH  22  24
ENDBRANCH   8  14
BRANCH   7  13
ATOM     13  C   UNL     1      -6.028  -9.952  14.098  0.00  0.00    +0.100 C 
BRANCH  13   3
ATOM      3  N   UNL     1      -5.537 -10.598  12.892  0.00  0.00    -0.312 NA
ATOM     29  H   UNL     1      -6.314 -11.072  12.431  0.00  0.00    +0.122 HD
BRANCH   3  15
ATOM     15  C   UNL     1      -4.943  -9.623  11.978  0.00  0.00    +0.054 C 
ATOM     16  C   UNL     1      -5.962  -9.229  10.903  0.00  0.00    +0.019 C 
ATOM     17  C   UNL     1      -3.673 -10.206  11.349  0.00  0.00    +0.019 C 
ATOM     19  C   UNL     1      -5.351  -8.267   9.885  0.00  0.00    +0.002 C 
ATOM     20  C   UNL     1      -3.066  -9.243  10.329  0.00  0.00    +0.002 C 
ATOM     21  C   UNL     1      -4.080  -8.839   9.263  0.00  0.00    +0.000 C 
ENDBRANCH   3  15
ENDBRANCH  13   3
ENDBRANCH   7  13
TORSDOF 5
ENDMDL
MODEL 8
REMARK VINA RESULT:      -5.6     23.784     27.540
REMARK  Name = 45360468
REMARK  6 active torsions:
REMARK  status: ('A' for Active; 'I' for Inactive)
REMARK    1  A    between atoms: N_3  and  C_13
REMARK    2  A    between atoms: N_3  and  C_15
REMARK    3  A    between atoms: C_7  and  C_13
REMARK    4  A    between atoms: C_8  and  C_14
REMARK    5  A    between atoms: C_22  and  C_24
REMARK    6  A    between atoms: C_23  and  C_25
REMARK                            x       y       z     vdW  Elec       q    Type
REMARK                         _______ _______ _______ _____ _____    ______ ____
ROOT
ATOM      2  N   UNL     1      12.003   6.787   0.583  0.00  0.00    -0.298 NA
ATOM      6  C   UNL     1      10.624   5.036   1.931  0.00  0.00    +0.002 C 
ATOM      7  C   UNL     1      12.880   6.096   1.564  0.00  0.00    +0.071 C 
ATOM      8  C   UNL     1       9.902   6.413   1.929  0.00  0.00    +0.055 C 
ATOM      9  C   UNL     1      12.044   5.208   2.510  0.00  0.00    +0.024 C 
ATOM     10  C   UNL     1      10.783   4.615   0.455  0.00  0.00    +0.019 C 
ATOM     11  C   UNL     1      10.872   7.445   1.285  0.00  0.00    +0.094 C 
ATOM     12  C   UNL     1      11.445   5.760  -0.330  0.00  0.00    +0.085 C 
ENDROOT
BRANCH   8  14
ATOM      4  N   UNL     1       8.517   8.006   3.163  0.00  0.00    -0.237 NA
ATOM      5  N   UNL     1       8.214   7.865   5.550  0.00  0.00    -0.229 NA
ATOM     14  C   UNL     1       9.308   6.916   3.236  0.00  0.00    +0.050 A 
ATOM     18  C   UNL     1       9.596   6.255   4.413  0.00  0.00    +0.055 A 
ATOM     22  C   UNL     1       9.015   6.780   5.551  0.00  0.00    +0.110 A 
ATOM     23  C   UNL     1       8.010   8.421   4.340  0.00  0.00    +0.127 A 
ATOM     25  C   UNL     1       7.128   9.623   4.300  0.00  0.00    +0.088 C 
BRANCH  22  24
ATOM      1  O   UNL     1       9.702   4.915   6.833  0.00  0.00    -0.461 OA
ATOM     24  C   UNL     1       9.232   6.190   6.845  0.00  0.00    +0.153 A 
ATOM     26  C   UNL     1       9.068   6.634   8.137  0.00  0.00    +0.051 A 
ATOM     27  C   UNL     1       9.463   5.563   8.973  0.00  0.00    +0.042 A 
ATOM     28  C   UNL     1       9.840   4.540   8.132  0.00  0.00    +0.196 A 
ENDBRANCH  22  24
ENDBRANCH   8  14
BRANCH   7  13
ATOM     13  C   UNL     1      13.771   7.070   2.336  0.00  0.00    +0.100 C 
BRANCH  13   3
ATOM      3  N   UNL     1      13.956   6.623   3.707  0.00  0.00    -0.312 NA
ATOM     29  H   UNL     1      14.931   6.352   3.837  0.00  0.00    +0.122 HD
BRANCH   3  15
ATOM     15  C   UNL     1      13.609   7.681   4.655  0.00  0.00    +0.054 C 
ATOM     16  C   UNL     1      12.885   7.079   5.865  0.00  0.00    +0.019 C 
ATOM     17  C   UNL     1      12.740   8.736   3.961  0.00  0.00    +0.019 C 
ATOM     19  C   UNL     1      12.438   8.165   6.842  0.00  0.00    +0.002 C 
ATOM     20  C   UNL     1      12.293   9.820   4.941  0.00  0.00    +0.002 C 
ATOM     21  C   UNL     1      11.582   9.224   6.153  0.00  0.00    +0.000 C 
ENDBRANCH   3  15
ENDBRANCH  13   3
ENDBRANCH   7  13
TORSDOF 5
ENDMDL
MODEL 9
REMARK VINA RESULT:      -5.6      2.803      6.292
REMARK  Name = 45360468
REMARK  6 active torsions:
REMARK  status: ('A' for Active; 'I' for Inactive)
REMARK    1  A    between atoms: N_3  and  C_13
REMARK    2  A    between atoms: N_3  and  C_15
REMARK    3  A    between atoms: C_7  and  C_13
REMARK    4  A    between atoms: C_8  and  C_14
REMARK    5  A    between atoms: C_22  and  C_24
REMARK    6  A    between atoms: C_23  and  C_25
REMARK                            x       y       z     vdW  Elec       q    Type
REMARK                         _______ _______ _______ _____ _____    ______ ____
ROOT
ATOM      2  N   UNL     1      -5.816 -10.677   9.857  0.00  0.00    -0.298 NA
ATOM      6  C   UNL     1      -3.723  -9.314  10.595  0.00  0.00    +0.002 C 
ATOM      7  C   UNL     1      -6.217  -9.606  10.807  0.00  0.00    +0.071 C 
ATOM      8  C   UNL     1      -3.464 -10.838  10.754  0.00  0.00    +0.055 C 
ATOM      9  C   UNL     1      -4.972  -8.923  11.413  0.00  0.00    +0.024 C 
ATOM     10  C   UNL     1      -4.060  -9.073   9.108  0.00  0.00    +0.019 C 
ATOM     11  C   UNL     1      -4.812 -11.569  10.490  0.00  0.00    +0.094 C 
ATOM     12  C   UNL     1      -5.185 -10.031   8.682  0.00  0.00    +0.085 C 
ENDROOT
BRANCH   8  14
ATOM      4  N   UNL     1      -2.377 -10.375  12.895  0.00  0.00    -0.237 NA
ATOM      5  N   UNL     1      -1.557 -12.132  14.326  0.00  0.00    -0.229 NA
ATOM     14  C   UNL     1      -2.783 -11.323  12.026  0.00  0.00    +0.050 A 
ATOM     18  C   UNL     1      -2.614 -12.677  12.233  0.00  0.00    +0.055 A 
ATOM     22  C   UNL     1      -1.988 -13.027  13.413  0.00  0.00    +0.110 A 
ATOM     23  C   UNL     1      -1.779 -10.843  14.008  0.00  0.00    +0.127 A 
ATOM     25  C   UNL     1      -1.317  -9.824  14.994  0.00  0.00    +0.088 C 
BRANCH  22  24
ATOM      1  O   UNL     1      -2.636 -14.953  14.622  0.00  0.00    -0.461 OA
ATOM     24  C   UNL     1      -1.746 -14.403  13.755  0.00  0.00    +0.153 A 
ATOM     26  C   UNL     1      -0.790 -15.324  13.395  0.00  0.00    +0.051 A 
ATOM     27  C   UNL     1      -1.113 -16.516  14.086  0.00  0.00    +0.042 A 
ATOM     28  C   UNL     1      -2.244 -16.239  14.819  0.00  0.00    +0.196 A 
ENDBRANCH  22  24
ENDBRANCH   8  14
BRANCH   7  13
ATOM     13  C   UNL     1      -7.172 -10.112  11.888  0.00  0.00    +0.100 C 
BRANCH  13   3
ATOM      3  N   UNL     1      -7.020  -9.343  13.112  0.00  0.00    -0.312 NA
ATOM     29  H   UNL     1      -7.846  -8.760  13.240  0.00  0.00    +0.122 HD
BRANCH   3  15
ATOM     15  C   UNL     1      -6.853 -10.223  14.268  0.00  0.00    +0.054 C 
ATOM     16  C   UNL     1      -7.834  -9.820  15.374  0.00  0.00    +0.019 C 
ATOM     17  C   UNL     1      -5.404 -10.161  14.764  0.00  0.00    +0.019 C 
ATOM     19  C   UNL     1      -7.636 -10.671  16.628  0.00  0.00    +0.002 C 
ATOM     20  C   UNL     1      -5.210 -11.011  16.019  0.00  0.00    +0.002 C 
ATOM     21  C   UNL     1      -6.193 -10.622  17.120  0.00  0.00    +0.000 C 
ENDBRANCH   3  15
ENDBRANCH  13   3
ENDBRANCH   7  13
TORSDOF 5
ENDMDL
MODEL 10
REMARK VINA RESULT:      -5.6     25.121     28.622
REMARK  Name = 45360468
REMARK  6 active torsions:
REMARK  status: ('A' for Active; 'I' for Inactive)
REMARK    1  A    between atoms: N_3  and  C_13
REMARK    2  A    between atoms: N_3  and  C_15
REMARK    3  A    between atoms: C_7  and  C_13
REMARK    4  A    between atoms: C_8  and  C_14
REMARK    5  A    between atoms: C_22  and  C_24
REMARK    6  A    between atoms: C_23  and  C_25
REMARK                            x       y       z     vdW  Elec       q    Type
REMARK                         _______ _______ _______ _____ _____    ______ ____
ROOT
ATOM      2  N   UNL     1      14.042   9.651   5.780  0.00  0.00    -0.298 NA
ATOM      6  C   UNL     1      15.946   7.983   5.166  0.00  0.00    +0.002 C 
ATOM      7  C   UNL     1      13.907   8.408   6.584  0.00  0.00    +0.071 C 
ATOM      8  C   UNL     1      15.245   8.505   3.881  0.00  0.00    +0.055 C 
ATOM      9  C   UNL     1      14.896   7.330   6.090  0.00  0.00    +0.024 C 
ATOM     10  C   UNL     1      16.496   9.221   5.907  0.00  0.00    +0.019 C 
ATOM     11  C   UNL     1      14.003   9.328   4.331  0.00  0.00    +0.094 C 
ATOM     12  C   UNL     1      15.365  10.248   6.085  0.00  0.00    +0.085 C 
ENDROOT
BRANCH   8  14
ATOM      4  N   UNL     1      15.848   7.291   1.846  0.00  0.00    -0.237 NA
ATOM      5  N   UNL     1      14.358   5.711   0.802  0.00  0.00    -0.229 NA
ATOM     14  C   UNL     1      14.907   7.501   2.788  0.00  0.00    +0.050 A 
ATOM     18  C   UNL     1      13.683   6.863   2.805  0.00  0.00    +0.055 A 
ATOM     22  C   UNL     1      13.461   5.969   1.777  0.00  0.00    +0.110 A 
ATOM     23  C   UNL     1      15.513   6.397   0.896  0.00  0.00    +0.127 A 
ATOM     25  C   UNL     1      16.530   6.137  -0.164  0.00  0.00    +0.088 C 
BRANCH  22  24
ATOM      1  O   UNL     1      11.475   5.516   0.576  0.00  0.00    -0.461 OA
ATOM     24  C   UNL     1      12.228   5.236   1.672  0.00  0.00    +0.153 A 
ATOM     26  C   UNL     1      11.612   4.283   2.451  0.00  0.00    +0.051 A 
ATOM     27  C   UNL     1      10.404   3.958   1.791  0.00  0.00    +0.042 A 
ATOM     28  C   UNL     1      10.367   4.734   0.655  0.00  0.00    +0.196 A 
ENDBRANCH  22  24
ENDBRANCH   8  14
BRANCH   7  13
ATOM     13  C   UNL     1      12.469   7.889   6.617  0.00  0.00    +0.100 C 
BRANCH  13   3
ATOM      3  N   UNL     1      12.414   6.494   6.212  0.00  0.00    -0.312 NA
ATOM     29  H   UNL     1      12.472   5.907   7.044  0.00  0.00    +0.122 HD
BRANCH   3  15
ATOM     15  C   UNL     1      11.177   6.205   5.489  0.00  0.00    +0.054 C 
ATOM     16  C   UNL     1      10.760   7.426   4.662  0.00  0.00    +0.019 C 
ATOM     17  C   UNL     1      10.077   5.806   6.480  0.00  0.00    +0.019 C 
ATOM     19  C   UNL     1       9.429   7.187   3.951  0.00  0.00    +0.002 C 
ATOM     20  C   UNL     1       8.746   5.571   5.767  0.00  0.00    +0.002 C 
ATOM     21  C   UNL     1       8.333   6.780   4.932  0.00  0.00    +0.000 C 
ENDBRANCH   3  15
ENDBRANCH  13   3
ENDBRANCH   7  13
TORSDOF 5
ENDMDL
