MODEL 1
REMARK VINA RESULT:      -6.7      0.000      0.000
REMARK  Name = 51137965
REMARK  6 active torsions:
REMARK  status: ('A' for Active; 'I' for Inactive)
REMARK    1  A    between atoms: N_4  and  C_26
REMARK    2  A    between atoms: C_6  and  C_10
REMARK    3  A    between atoms: C_7  and  C_13
REMARK    4  A    between atoms: C_10  and  C_14
REMARK    5  A    between atoms: C_14  and  C_23
REMARK    6  A    between atoms: C_14  and  C_24
REMARK                            x       y       z     vdW  Elec       q    Type
REMARK                         _______ _______ _______ _____ _____    ______ ____
ROOT
ATOM      2  N   UNL     1      13.351   9.246  20.530  0.00  0.00    -0.299 NA
ATOM      5  N   UNL     1      11.092   8.780  16.038  0.00  0.00    -0.360 N 
ATOM      6  C   UNL     1      14.185  10.000  19.585  0.00  0.00    +0.085 C 
ATOM      7  C   UNL     1      11.957   9.665  20.578  0.00  0.00    +0.145 C 
ATOM      8  C   UNL     1      11.075   8.778  19.702  0.00  0.00    +0.065 C 
ATOM      9  C   UNL     1      13.811   9.863  18.105  0.00  0.00    -0.021 A 
ATOM     11  C   UNL     1      12.569   9.367  17.616  0.00  0.00    +0.008 A 
ATOM     12  C   UNL     1      11.366   8.889  18.243  0.00  0.00    -0.020 A 
ATOM     17  C   UNL     1      12.347   9.305  16.235  0.00  0.00    +0.047 A 
ATOM     20  C   UNL     1      10.491   8.532  17.237  0.00  0.00    +0.087 A 
ATOM     21  C   UNL     1      14.726  10.331  17.129  0.00  0.00    +0.006 A 
ATOM     22  C   UNL     1      13.280   9.727  15.287  0.00  0.00    +0.026 A 
ATOM     25  C   UNL     1      14.474  10.256  15.760  0.00  0.00    +0.002 A 
ATOM     27  H   UNL     1      13.429   8.244  20.365  0.00  0.00    +0.123 HD
ATOM     28  H   UNL     1      10.669   8.617  15.134  0.00  0.00    +0.165 HD
ENDROOT
BRANCH   7  13
ATOM      1  O   UNL     1      11.477   8.368  22.493  0.00  0.00    -0.274 OA
ATOM      3  N   UNL     1      11.273  10.670  22.717  0.00  0.00    -0.298 N 
ATOM      4  N   UNL     1      11.450  12.977  24.408  0.00  0.00    -0.302 NA
ATOM     13  C   UNL     1      11.547   9.501  22.010  0.00  0.00    +0.233 C 
ATOM     15  C   UNL     1      11.218  12.017  22.140  0.00  0.00    +0.123 C 
ATOM     16  C   UNL     1      10.871  10.596  24.122  0.00  0.00    +0.123 C 
ATOM     18  C   UNL     1      11.951  13.026  23.026  0.00  0.00    +0.103 C 
ATOM     19  C   UNL     1      11.616  11.628  24.967  0.00  0.00    +0.103 C 
ATOM     26  C   UNL     1      12.137  13.966  25.239  0.00  0.00    +0.105 C 
ENDBRANCH   7  13
BRANCH   6  10
ATOM     10  C   UNL     1      15.623   9.533  19.876  0.00  0.00    +0.026 C 
BRANCH  10  14
ATOM     14  C   UNL     1      15.689   8.095  20.400  0.00  0.00    -0.015 C 
ATOM     23  C   UNL     1      15.795   7.063  19.278  0.00  0.00    +0.007 C 
ATOM     24  C   UNL     1      16.885   7.958  21.344  0.00  0.00    +0.007 C 
ENDBRANCH  10  14
ENDBRANCH   6  10
TORSDOF 3
ENDMDL
MODEL 2
REMARK VINA RESULT:      -6.7      2.717      6.266
REMARK  Name = 51137965
REMARK  6 active torsions:
REMARK  status: ('A' for Active; 'I' for Inactive)
REMARK    1  A    between atoms: N_4  and  C_26
REMARK    2  A    between atoms: C_6  and  C_10
REMARK    3  A    between atoms: C_7  and  C_13
REMARK    4  A    between atoms: C_10  and  C_14
REMARK    5  A    between atoms: C_14  and  C_23
REMARK    6  A    between atoms: C_14  and  C_24
REMARK                            x       y       z     vdW  Elec       q    Type
REMARK                         _______ _______ _______ _____ _____    ______ ____
ROOT
ATOM      2  N   UNL     1      14.990   9.156  20.112  0.00  0.00    -0.299 NA
ATOM      5  N   UNL     1      10.596  10.106  22.413  0.00  0.00    -0.360 N 
ATOM      6  C   UNL     1      14.198   7.927  19.979  0.00  0.00    +0.085 C 
ATOM      7  C   UNL     1      14.349  10.352  19.584  0.00  0.00    +0.145 C 
ATOM      8  C   UNL     1      13.655  11.149  20.686  0.00  0.00    +0.065 C 
ATOM      9  C   UNL     1      12.879   7.893  20.760  0.00  0.00    -0.021 A 
ATOM     11  C   UNL     1      12.217   9.032  21.301  0.00  0.00    +0.008 A 
ATOM     12  C   UNL     1      12.496  10.443  21.305  0.00  0.00    -0.020 A 
ATOM     17  C   UNL     1      11.006   8.866  21.984  0.00  0.00    +0.047 A 
ATOM     20  C   UNL     1      11.480  11.061  22.006  0.00  0.00    +0.087 A 
ATOM     21  C   UNL     1      12.207   6.652  20.901  0.00  0.00    +0.006 A 
ATOM     22  C   UNL     1      10.383   7.629  22.154  0.00  0.00    +0.026 A 
ATOM     25  C   UNL     1      11.000   6.521  21.586  0.00  0.00    +0.002 A 
ATOM     27  H   UNL     1      15.290   9.294  21.076  0.00  0.00    +0.123 HD
ATOM     28  H   UNL     1       9.751  10.284  22.939  0.00  0.00    +0.165 HD
ENDROOT
BRANCH   7  13
ATOM      1  O   UNL     1      16.481  11.364  19.684  0.00  0.00    -0.274 OA
ATOM      3  N   UNL     1      15.270  11.677  17.727  0.00  0.00    -0.298 N 
ATOM      4  N   UNL     1      15.290  12.073  14.889  0.00  0.00    -0.302 NA
ATOM     13  C   UNL     1      15.463  11.175  19.013  0.00  0.00    +0.233 C 
ATOM     15  C   UNL     1      14.026  11.583  16.958  0.00  0.00    +0.123 C 
ATOM     16  C   UNL     1      16.313  12.486  17.095  0.00  0.00    +0.123 C 
ATOM     18  C   UNL     1      14.303  11.176  15.509  0.00  0.00    +0.103 C 
ATOM     19  C   UNL     1      16.549  12.056  15.648  0.00  0.00    +0.103 C 
ATOM     26  C   UNL     1      15.526  11.694  13.496  0.00  0.00    +0.105 C 
ENDBRANCH   7  13
BRANCH   6  10
ATOM     10  C   UNL     1      15.158   6.797  20.394  0.00  0.00    +0.026 C 
BRANCH  10  14
ATOM     14  C   UNL     1      16.593   7.026  19.910  0.00  0.00    -0.015 C 
ATOM     23  C   UNL     1      17.607   7.034  21.054  0.00  0.00    +0.007 C 
ATOM     24  C   UNL     1      16.963   5.939  18.899  0.00  0.00    +0.007 C 
ENDBRANCH  10  14
ENDBRANCH   6  10
TORSDOF 3
ENDMDL
MODEL 3
REMARK VINA RESULT:      -6.4      2.563      6.332
REMARK  Name = 51137965
REMARK  6 active torsions:
REMARK  status: ('A' for Active; 'I' for Inactive)
REMARK    1  A    between atoms: N_4  and  C_26
REMARK    2  A    between atoms: C_6  and  C_10
REMARK    3  A    between atoms: C_7  and  C_13
REMARK    4  A    between atoms: C_10  and  C_14
REMARK    5  A    between atoms: C_14  and  C_23
REMARK    6  A    between atoms: C_14  and  C_24
REMARK                            x       y       z     vdW  Elec       q    Type
REMARK                         _______ _______ _______ _____ _____    ______ ____
ROOT
ATOM      2  N   UNL     1      13.775   9.661  18.842  0.00  0.00    -0.299 NA
ATOM      5  N   UNL     1      10.535  10.117  22.689  0.00  0.00    -0.360 N 
ATOM      6  C   UNL     1      13.861  11.063  19.270  0.00  0.00    +0.085 C 
ATOM      7  C   UNL     1      14.039   8.687  19.892  0.00  0.00    +0.145 C 
ATOM      8  C   UNL     1      12.745   8.166  20.512  0.00  0.00    +0.065 C 
ATOM      9  C   UNL     1      12.832  11.508  20.315  0.00  0.00    -0.021 A 
ATOM     11  C   UNL     1      12.057  10.631  21.127  0.00  0.00    +0.008 A 
ATOM     12  C   UNL     1      11.973   9.202  21.258  0.00  0.00    -0.020 A 
ATOM     17  C   UNL     1      11.158  11.167  22.057  0.00  0.00    +0.047 A 
ATOM     20  C   UNL     1      11.021   8.931  22.220  0.00  0.00    +0.087 A 
ATOM     21  C   UNL     1      12.677  12.895  20.566  0.00  0.00    +0.006 A 
ATOM     22  C   UNL     1      10.985  12.538  22.258  0.00  0.00    +0.026 A 
ATOM     25  C   UNL     1      11.773  13.396  21.502  0.00  0.00    +0.002 A 
ATOM     27  H   UNL     1      12.885   9.474  18.382  0.00  0.00    +0.123 HD
ATOM     28  H   UNL     1       9.831  10.211  23.408  0.00  0.00    +0.165 HD
ENDROOT
BRANCH   7  13
ATOM      1  O   UNL     1      14.355   7.181  18.101  0.00  0.00    -0.274 OA
ATOM      3  N   UNL     1      15.827   6.996  19.888  0.00  0.00    -0.298 N 
ATOM      4  N   UNL     1      18.453   6.332  20.821  0.00  0.00    -0.302 NA
ATOM     13  C   UNL     1      14.746   7.556  19.209  0.00  0.00    +0.233 C 
ATOM     15  C   UNL     1      16.232   7.328  21.257  0.00  0.00    +0.123 C 
ATOM     16  C   UNL     1      16.572   5.891  19.287  0.00  0.00    +0.123 C 
ATOM     18  C   UNL     1      17.748   7.507  21.354  0.00  0.00    +0.103 C 
ATOM     19  C   UNL     1      18.080   6.102  19.418  0.00  0.00    +0.103 C 
ATOM     26  C   UNL     1      19.901   6.500  20.945  0.00  0.00    +0.105 C 
ENDBRANCH   7  13
BRANCH   6  10
ATOM     10  C   UNL     1      13.765  11.875  17.965  0.00  0.00    +0.026 C 
BRANCH  10  14
ATOM     14  C   UNL     1      15.045  12.657  17.653  0.00  0.00    -0.015 C 
ATOM     23  C   UNL     1      14.835  14.171  17.693  0.00  0.00    +0.007 C 
ATOM     24  C   UNL     1      16.134  12.259  18.653  0.00  0.00    +0.007 C 
ENDBRANCH  10  14
ENDBRANCH   6  10
TORSDOF 3
ENDMDL
MODEL 4
REMARK VINA RESULT:      -6.3     25.970     28.659
REMARK  Name = 51137965
REMARK  6 active torsions:
REMARK  status: ('A' for Active; 'I' for Inactive)
REMARK    1  A    between atoms: N_4  and  C_26
REMARK    2  A    between atoms: C_6  and  C_10
REMARK    3  A    between atoms: C_7  and  C_13
REMARK    4  A    between atoms: C_10  and  C_14
REMARK    5  A    between atoms: C_14  and  C_23
REMARK    6  A    between atoms: C_14  and  C_24
REMARK                            x       y       z     vdW  Elec       q    Type
REMARK                         _______ _______ _______ _____ _____    ______ ____
ROOT
ATOM      2  N   UNL     1      -6.257 -11.862  15.477  0.00  0.00    -0.299 NA
ATOM      5  N   UNL     1      -2.706 -10.197  12.295  0.00  0.00    -0.360 N 
ATOM      6  C   UNL     1      -5.145 -11.409  16.324  0.00  0.00    +0.085 C 
ATOM      7  C   UNL     1      -6.776 -10.853  14.565  0.00  0.00    +0.145 C 
ATOM      8  C   UNL     1      -6.174 -10.995  13.169  0.00  0.00    +0.065 C 
ATOM      9  C   UNL     1      -3.857 -11.023  15.587  0.00  0.00    -0.021 A 
ATOM     11  C   UNL     1      -3.762 -10.747  14.193  0.00  0.00    +0.008 A 
ATOM     12  C   UNL     1      -4.709 -10.718  13.111  0.00  0.00    -0.020 A 
ATOM     17  C   UNL     1      -2.524 -10.390  13.644  0.00  0.00    +0.047 A 
ATOM     20  C   UNL     1      -4.016 -10.386  11.965  0.00  0.00    +0.087 A 
ATOM     21  C   UNL     1      -2.671 -10.846  16.343  0.00  0.00    +0.006 A 
ATOM     22  C   UNL     1      -1.356 -10.267  14.397  0.00  0.00    +0.026 A 
ATOM     25  C   UNL     1      -1.454 -10.489  15.765  0.00  0.00    +0.002 A 
ATOM     27  H   UNL     1      -6.011 -12.716  14.980  0.00  0.00    +0.123 HD
ATOM     28  H   UNL     1      -1.977  -9.936  11.645  0.00  0.00    +0.165 HD
ENDROOT
BRANCH   7  13
ATOM      1  O   UNL     1      -8.685 -11.891  13.641  0.00  0.00    -0.274 OA
ATOM      3  N   UNL     1      -9.047 -10.441  15.418  0.00  0.00    -0.298 N 
ATOM      4  N   UNL     1     -10.621  -9.742  17.709  0.00  0.00    -0.302 NA
ATOM     13  C   UNL     1      -8.250 -11.111  14.492  0.00  0.00    +0.233 C 
ATOM     15  C   UNL     1      -8.580  -9.411  16.351  0.00  0.00    +0.123 C 
ATOM     16  C   UNL     1     -10.496 -10.643  15.416  0.00  0.00    +0.123 C 
ATOM     18  C   UNL     1      -9.155  -9.635  17.751  0.00  0.00    +0.103 C 
ATOM     19  C   UNL     1     -11.030 -10.849  16.832  0.00  0.00    +0.103 C 
ATOM     26  C   UNL     1     -11.162  -9.926  19.055  0.00  0.00    +0.105 C 
ENDBRANCH   7  13
BRANCH   6  10
ATOM     10  C   UNL     1      -4.928 -12.555  17.329  0.00  0.00    +0.026 C 
BRANCH  10  14
ATOM     14  C   UNL     1      -5.033 -12.098  18.787  0.00  0.00    -0.015 C 
ATOM     23  C   UNL     1      -3.698 -12.179  19.527  0.00  0.00    +0.007 C 
ATOM     24  C   UNL     1      -5.561 -10.662  18.828  0.00  0.00    +0.007 C 
ENDBRANCH  10  14
ENDBRANCH   6  10
TORSDOF 3
ENDMDL
MODEL 5
REMARK VINA RESULT:      -6.1     26.338     28.767
REMARK  Name = 51137965
REMARK  6 active torsions:
REMARK  status: ('A' for Active; 'I' for Inactive)
REMARK    1  A    between atoms: N_4  and  C_26
REMARK    2  A    between atoms: C_6  and  C_10
REMARK    3  A    between atoms: C_7  and  C_13
REMARK    4  A    between atoms: C_10  and  C_14
REMARK    5  A    between atoms: C_14  and  C_23
REMARK    6  A    between atoms: C_14  and  C_24
REMARK                            x       y       z     vdW  Elec       q    Type
REMARK                         _______ _______ _______ _____ _____    ______ ____
ROOT
ATOM      2  N   UNL     1      -6.174  -9.591  14.979  0.00  0.00    -0.299 NA
ATOM      5  N   UNL     1      -1.426 -11.276  15.327  0.00  0.00    -0.360 N 
ATOM      6  C   UNL     1      -5.870 -10.196  13.675  0.00  0.00    +0.085 C 
ATOM      7  C   UNL     1      -5.997 -10.480  16.118  0.00  0.00    +0.145 C 
ATOM      8  C   UNL     1      -4.638 -10.277  16.783  0.00  0.00    +0.065 C 
ATOM      9  C   UNL     1      -4.414 -10.623  13.459  0.00  0.00    -0.021 A 
ATOM     11  C   UNL     1      -3.449 -10.796  14.492  0.00  0.00    +0.008 A 
ATOM     12  C   UNL     1      -3.481 -10.663  15.924  0.00  0.00    -0.020 A 
ATOM     17  C   UNL     1      -2.151 -11.205  14.161  0.00  0.00    +0.047 A 
ATOM     20  C   UNL     1      -2.217 -10.959  16.393  0.00  0.00    +0.087 A 
ATOM     21  C   UNL     1      -3.992 -10.953  12.146  0.00  0.00    +0.006 A 
ATOM     22  C   UNL     1      -1.741 -11.480  12.856  0.00  0.00    +0.026 A 
ATOM     25  C   UNL     1      -2.692 -11.359  11.851  0.00  0.00    +0.002 A 
ATOM     27  H   UNL     1      -5.658  -8.722  15.106  0.00  0.00    +0.123 HD
ATOM     28  H   UNL     1      -0.453 -11.542  15.387  0.00  0.00    +0.165 HD
ENDROOT
BRANCH   7  13
ATOM      1  O   UNL     1      -7.546  -8.960  17.048  0.00  0.00    -0.274 OA
ATOM      3  N   UNL     1      -7.492 -11.089  17.976  0.00  0.00    -0.298 N 
ATOM      4  N   UNL     1      -8.906 -13.218  19.270  0.00  0.00    -0.302 NA
ATOM     13  C   UNL     1      -7.077 -10.101  17.084  0.00  0.00    +0.233 C 
ATOM     15  C   UNL     1      -6.866 -12.405  18.132  0.00  0.00    +0.123 C 
ATOM     16  C   UNL     1      -8.545 -10.799  18.948  0.00  0.00    +0.123 C 
ATOM     18  C   UNL     1      -7.921 -13.510  18.218  0.00  0.00    +0.103 C 
ATOM     19  C   UNL     1      -9.569 -11.932  19.012  0.00  0.00    +0.103 C 
ATOM     26  C   UNL     1      -9.893 -14.294  19.363  0.00  0.00    +0.105 C 
ENDBRANCH   7  13
BRANCH   6  10
ATOM     10  C   UNL     1      -6.338  -9.153  12.643  0.00  0.00    +0.026 C 
BRANCH  10  14
ATOM     14  C   UNL     1      -7.600  -9.584  11.890  0.00  0.00    -0.015 C 
ATOM     23  C   UNL     1      -7.576  -9.175  10.417  0.00  0.00    +0.007 C 
ATOM     24  C   UNL     1      -7.761 -11.101  12.003  0.00  0.00    +0.007 C 
ENDBRANCH  10  14
ENDBRANCH   6  10
TORSDOF 3
ENDMDL
MODEL 6
REMARK VINA RESULT:      -6.0     26.336     29.021
REMARK  Name = 51137965
REMARK  6 active torsions:
REMARK  status: ('A' for Active; 'I' for Inactive)
REMARK    1  A    between atoms: N_4  and  C_26
REMARK    2  A    between atoms: C_6  and  C_10
REMARK    3  A    between atoms: C_7  and  C_13
REMARK    4  A    between atoms: C_10  and  C_14
REMARK    5  A    between atoms: C_14  and  C_23
REMARK    6  A    between atoms: C_14  and  C_24
REMARK                            x       y       z     vdW  Elec       q    Type
REMARK                         _______ _______ _______ _____ _____    ______ ____
ROOT
ATOM      2  N   UNL     1      -4.871 -10.128  14.871  0.00  0.00    -0.299 NA
ATOM      5  N   UNL     1      -7.926 -10.177  18.892  0.00  0.00    -0.360 N 
ATOM      6  C   UNL     1      -4.224 -11.011  15.851  0.00  0.00    +0.085 C 
ATOM      7  C   UNL     1      -6.230 -10.509  14.514  0.00  0.00    +0.145 C 
ATOM      8  C   UNL     1      -7.263  -9.721  15.317  0.00  0.00    +0.065 C 
ATOM      9  C   UNL     1      -4.867 -11.050  17.242  0.00  0.00    -0.021 A 
ATOM     11  C   UNL     1      -6.180 -10.594  17.552  0.00  0.00    +0.008 A 
ATOM     12  C   UNL     1      -7.247 -10.018  16.779  0.00  0.00    -0.020 A 
ATOM     17  C   UNL     1      -6.654 -10.699  18.865  0.00  0.00    +0.047 A 
ATOM     20  C   UNL     1      -8.294  -9.770  17.643  0.00  0.00    +0.087 A 
ATOM     21  C   UNL     1      -4.147 -11.654  18.304  0.00  0.00    +0.006 A 
ATOM     22  C   UNL     1      -5.912 -11.255  19.908  0.00  0.00    +0.026 A 
ATOM     25  C   UNL     1      -4.649 -11.745  19.601  0.00  0.00    +0.002 A 
ATOM     27  H   UNL     1      -4.828  -9.156  15.172  0.00  0.00    +0.123 HD
ATOM     28  H   UNL     1      -8.509 -10.120  19.715  0.00  0.00    +0.165 HD
ENDROOT
BRANCH   7  13
ATOM      1  O   UNL     1      -6.559  -8.986  12.740  0.00  0.00    -0.274 OA
ATOM      3  N   UNL     1      -6.261 -11.214  12.157  0.00  0.00    -0.298 N 
ATOM      4  N   UNL     1      -5.302 -13.124  10.249  0.00  0.00    -0.302 NA
ATOM     13  C   UNL     1      -6.368 -10.161  13.063  0.00  0.00    +0.233 C 
ATOM     15  C   UNL     1      -6.168 -12.633  12.513  0.00  0.00    +0.123 C 
ATOM     16  C   UNL     1      -6.379 -10.956  10.722  0.00  0.00    +0.123 C 
ATOM     18  C   UNL     1      -5.089 -13.338  11.688  0.00  0.00    +0.103 C 
ATOM     19  C   UNL     1      -5.293 -11.689   9.935  0.00  0.00    +0.103 C 
ATOM     26  C   UNL     1      -4.283 -13.827   9.469  0.00  0.00    +0.105 C 
ENDBRANCH   7  13
BRANCH   6  10
ATOM     10  C   UNL     1      -2.759 -10.540  15.891  0.00  0.00    +0.026 C 
BRANCH  10  14
ATOM     14  C   UNL     1      -1.879 -11.238  14.850  0.00  0.00    -0.015 C 
ATOM     23  C   UNL     1      -2.416 -12.612  14.449  0.00  0.00    +0.007 C 
ATOM     24  C   UNL     1      -1.762 -10.347  13.611  0.00  0.00    +0.007 C 
ENDBRANCH  10  14
ENDBRANCH   6  10
TORSDOF 3
ENDMDL
MODEL 7
REMARK VINA RESULT:      -6.0      3.690      7.358
REMARK  Name = 51137965
REMARK  6 active torsions:
REMARK  status: ('A' for Active; 'I' for Inactive)
REMARK    1  A    between atoms: N_4  and  C_26
REMARK    2  A    between atoms: C_6  and  C_10
REMARK    3  A    between atoms: C_7  and  C_13
REMARK    4  A    between atoms: C_10  and  C_14
REMARK    5  A    between atoms: C_14  and  C_23
REMARK    6  A    between atoms: C_14  and  C_24
REMARK                            x       y       z     vdW  Elec       q    Type
REMARK                         _______ _______ _______ _____ _____    ______ ____
ROOT
ATOM      2  N   UNL     1      17.377   8.589  21.964  0.00  0.00    -0.299 NA
ATOM      5  N   UNL     1      20.949   5.491  20.190  0.00  0.00    -0.360 N 
ATOM      6  C   UNL     1      18.485   9.458  21.545  0.00  0.00    +0.085 C 
ATOM      7  C   UNL     1      16.865   7.712  20.921  0.00  0.00    +0.145 C 
ATOM      8  C   UNL     1      17.474   6.315  21.013  0.00  0.00    +0.065 C 
ATOM      9  C   UNL     1      19.777   8.743  21.135  0.00  0.00    -0.021 A 
ATOM     11  C   UNL     1      19.881   7.361  20.807  0.00  0.00    +0.008 A 
ATOM     12  C   UNL     1      18.940   6.276  20.737  0.00  0.00    -0.020 A 
ATOM     17  C   UNL     1      21.123   6.833  20.433  0.00  0.00    +0.047 A 
ATOM     20  C   UNL     1      19.640   5.147  20.364  0.00  0.00    +0.087 A 
ATOM     21  C   UNL     1      20.960   9.512  20.988  0.00  0.00    +0.006 A 
ATOM     22  C   UNL     1      22.287   7.597  20.339  0.00  0.00    +0.026 A 
ATOM     25  C   UNL     1      22.180   8.955  20.612  0.00  0.00    +0.002 A 
ATOM     27  H   UNL     1      17.624   8.062  22.800  0.00  0.00    +0.123 HD
ATOM     28  H   UNL     1      21.682   4.855  19.906  0.00  0.00    +0.165 HD
ENDROOT
BRANCH   7  13
ATOM      1  O   UNL     1      14.973   7.656  22.334  0.00  0.00    -0.274 OA
ATOM      3  N   UNL     1      14.572   7.507  20.051  0.00  0.00    -0.298 N 
ATOM      4  N   UNL     1      12.823   8.047  17.847  0.00  0.00    -0.302 NA
ATOM     13  C   UNL     1      15.390   7.621  21.174  0.00  0.00    +0.233 C 
ATOM     15  C   UNL     1      15.041   7.330  18.674  0.00  0.00    +0.123 C 
ATOM     16  C   UNL     1      13.121   7.417  20.213  0.00  0.00    +0.123 C 
ATOM     18  C   UNL     1      14.275   8.238  17.710  0.00  0.00    +0.103 C 
ATOM     19  C   UNL     1      12.395   8.328  19.224  0.00  0.00    +0.103 C 
ATOM     26  C   UNL     1      12.101   8.898  16.901  0.00  0.00    +0.105 C 
ENDBRANCH   7  13
BRANCH   6  10
ATOM     10  C   UNL     1      18.694  10.421  22.728  0.00  0.00    +0.026 C 
BRANCH  10  14
ATOM     14  C   UNL     1      18.466  11.888  22.350  0.00  0.00    -0.015 C 
ATOM     23  C   UNL     1      19.716  12.746  22.540  0.00  0.00    +0.007 C 
ATOM     24  C   UNL     1      18.000  11.967  20.895  0.00  0.00    +0.007 C 
ENDBRANCH  10  14
ENDBRANCH   6  10
TORSDOF 3
ENDMDL
MODEL 8
REMARK VINA RESULT:      -6.0     26.147     28.849
REMARK  Name = 51137965
REMARK  6 active torsions:
REMARK  status: ('A' for Active; 'I' for Inactive)
REMARK    1  A    between atoms: N_4  and  C_26
REMARK    2  A    between atoms: C_6  and  C_10
REMARK    3  A    between atoms: C_7  and  C_13
REMARK    4  A    between atoms: C_10  and  C_14
REMARK    5  A    between atoms: C_14  and  C_23
REMARK    6  A    between atoms: C_14  and  C_24
REMARK                            x       y       z     vdW  Elec       q    Type
REMARK                         _______ _______ _______ _____ _____    ______ ____
ROOT
ATOM      2  N   UNL     1      -4.983 -11.483  12.846  0.00  0.00    -0.299 NA
ATOM      5  N   UNL     1      -1.836 -11.047  16.772  0.00  0.00    -0.360 N 
ATOM      6  C   UNL     1      -5.825 -11.116  13.992  0.00  0.00    +0.085 C 
ATOM      7  C   UNL     1      -3.895 -10.555  12.569  0.00  0.00    +0.145 C 
ATOM      8  C   UNL     1      -2.581 -11.030  13.184  0.00  0.00    +0.065 C 
ATOM      9  C   UNL     1      -5.128 -11.101  15.357  0.00  0.00    -0.021 A 
ATOM     11  C   UNL     1      -3.718 -11.076  15.558  0.00  0.00    +0.008 A 
ATOM     12  C   UNL     1      -2.583 -11.046  14.676  0.00  0.00    -0.020 A 
ATOM     17  C   UNL     1      -3.208 -11.051  16.861  0.00  0.00    +0.047 A 
ATOM     20  C   UNL     1      -1.450 -11.038  15.463  0.00  0.00    +0.087 A 
ATOM     21  C   UNL     1      -5.928 -11.030  16.525  0.00  0.00    +0.006 A 
ATOM     22  C   UNL     1      -4.012 -11.028  18.001  0.00  0.00    +0.026 A 
ATOM     25  C   UNL     1      -5.388 -11.004  17.810  0.00  0.00    +0.002 A 
ATOM     27  H   UNL     1      -4.638 -12.437  12.938  0.00  0.00    +0.123 HD
ATOM     28  H   UNL     1      -1.206 -11.035  17.562  0.00  0.00    +0.165 HD
ENDROOT
BRANCH   7  13
ATOM      1  O   UNL     1      -2.957 -11.305  10.535  0.00  0.00    -0.274 OA
ATOM      3  N   UNL     1      -4.580  -9.650  10.385  0.00  0.00    -0.298 N 
ATOM      4  N   UNL     1      -6.708  -8.457   8.884  0.00  0.00    -0.302 NA
ATOM     13  C   UNL     1      -3.761 -10.542  11.076  0.00  0.00    +0.233 C 
ATOM     15  C   UNL     1      -5.445  -8.641  11.002  0.00  0.00    +0.123 C 
ATOM     16  C   UNL     1      -4.512  -9.580   8.926  0.00  0.00    +0.123 C 
ATOM     18  C   UNL     1      -6.825  -8.620  10.340  0.00  0.00    +0.103 C 
ATOM     19  C   UNL     1      -5.909  -9.547   8.306  0.00  0.00    +0.103 C 
ATOM     26  C   UNL     1      -8.033  -8.408   8.264  0.00  0.00    +0.105 C 
ENDBRANCH   7  13
BRANCH   6  10
ATOM     10  C   UNL     1      -7.004 -12.105  13.941  0.00  0.00    +0.026 C 
BRANCH  10  14
ATOM     14  C   UNL     1      -8.359 -11.410  13.778  0.00  0.00    -0.015 C 
ATOM     23  C   UNL     1      -9.295 -11.657  14.962  0.00  0.00    +0.007 C 
ATOM     24  C   UNL     1      -8.136  -9.906  13.601  0.00  0.00    +0.007 C 
ENDBRANCH  10  14
ENDBRANCH   6  10
TORSDOF 3
ENDMDL
MODEL 9
REMARK VINA RESULT:      -6.0     14.125     19.017
REMARK  Name = 51137965
REMARK  6 active torsions:
REMARK  status: ('A' for Active; 'I' for Inactive)
REMARK    1  A    between atoms: N_4  and  C_26
REMARK    2  A    between atoms: C_6  and  C_10
REMARK    3  A    between atoms: C_7  and  C_13
REMARK    4  A    between atoms: C_10  and  C_14
REMARK    5  A    between atoms: C_14  and  C_23
REMARK    6  A    between atoms: C_14  and  C_24
REMARK                            x       y       z     vdW  Elec       q    Type
REMARK                         _______ _______ _______ _____ _____    ______ ____
ROOT
ATOM      2  N   UNL     1      10.241   6.388   2.490  0.00  0.00    -0.299 NA
ATOM      5  N   UNL     1      10.001   4.641   7.222  0.00  0.00    -0.360 N 
ATOM      6  C   UNL     1      10.702   7.490   3.345  0.00  0.00    +0.085 C 
ATOM      7  C   UNL     1      10.983   5.146   2.647  0.00  0.00    +0.145 C 
ATOM      8  C   UNL     1      10.272   4.184   3.596  0.00  0.00    +0.065 C 
ATOM      9  C   UNL     1      10.550   7.275   4.854  0.00  0.00    -0.021 A 
ATOM     11  C   UNL     1      10.332   6.016   5.485  0.00  0.00    +0.008 A 
ATOM     12  C   UNL     1      10.203   4.666   5.006  0.00  0.00    -0.020 A 
ATOM     17  C   UNL     1      10.224   5.953   6.879  0.00  0.00    +0.047 A 
ATOM     20  C   UNL     1       9.993   3.858   6.105  0.00  0.00    +0.087 A 
ATOM     21  C   UNL     1      10.712   8.387   5.718  0.00  0.00    +0.006 A 
ATOM     22  C   UNL     1      10.340   7.069   7.711  0.00  0.00    +0.026 A 
ATOM     25  C   UNL     1      10.600   8.291   7.104  0.00  0.00    +0.002 A 
ATOM     27  H   UNL     1       9.240   6.236   2.601  0.00  0.00    +0.123 HD
ATOM     28  H   UNL     1       9.879   4.303   8.167  0.00  0.00    +0.165 HD
ENDROOT
BRANCH   7  13
ATOM      1  O   UNL     1       9.989   4.465   0.616  0.00  0.00    -0.274 OA
ATOM      3  N   UNL     1      12.272   4.095   0.833  0.00  0.00    -0.298 N 
ATOM      4  N   UNL     1      14.835   3.886  -0.430  0.00  0.00    -0.302 NA
ATOM     13  C   UNL     1      11.028   4.539   1.278  0.00  0.00    +0.233 C 
ATOM     15  C   UNL     1      13.494   4.048   1.641  0.00  0.00    +0.123 C 
ATOM     16  C   UNL     1      12.401   3.496  -0.495  0.00  0.00    +0.123 C 
ATOM     18  C   UNL     1      14.694   4.582   0.858  0.00  0.00    +0.103 C 
ATOM     19  C   UNL     1      13.618   4.046  -1.237  0.00  0.00    +0.103 C 
ATOM     26  C   UNL     1      16.003   4.384  -1.158  0.00  0.00    +0.105 C 
ENDBRANCH   7  13
BRANCH   6  10
ATOM     10  C   UNL     1       9.927   8.722   2.844  0.00  0.00    +0.026 C 
BRANCH  10  14
ATOM     14  C   UNL     1       8.442   8.435   2.599  0.00  0.00    -0.015 C 
ATOM     23  C   UNL     1       7.558   8.856   3.772  0.00  0.00    +0.007 C 
ATOM     24  C   UNL     1       7.993   9.158   1.327  0.00  0.00    +0.007 C 
ENDBRANCH  10  14
ENDBRANCH   6  10
TORSDOF 3
ENDMDL
MODEL 10
REMARK VINA RESULT:      -6.0     27.121     28.351
REMARK  Name = 51137965
REMARK  6 active torsions:
REMARK  status: ('A' for Active; 'I' for Inactive)
REMARK    1  A    between atoms: N_4  and  C_26
REMARK    2  A    between atoms: C_6  and  C_10
REMARK    3  A    between atoms: C_7  and  C_13
REMARK    4  A    between atoms: C_10  and  C_14
REMARK    5  A    between atoms: C_14  and  C_23
REMARK    6  A    between atoms: C_14  and  C_24
REMARK                            x       y       z     vdW  Elec       q    Type
REMARK                         _______ _______ _______ _____ _____    ______ ____
ROOT
ATOM      2  N   UNL     1      -6.305 -11.199  13.550  0.00  0.00    -0.299 NA
ATOM      5  N   UNL     1      -6.362  -8.425   9.330  0.00  0.00    -0.360 N 
ATOM      6  C   UNL     1      -4.902 -10.861  13.277  0.00  0.00    +0.085 C 
ATOM      7  C   UNL     1      -7.195 -10.053  13.667  0.00  0.00    +0.145 C 
ATOM      8  C   UNL     1      -7.927  -9.775  12.356  0.00  0.00    +0.065 C 
ATOM      9  C   UNL     1      -4.628 -10.170  11.937  0.00  0.00    -0.021 A 
ATOM     11  C   UNL     1      -5.614  -9.542  11.122  0.00  0.00    +0.008 A 
ATOM     12  C   UNL     1      -7.033  -9.341  11.244  0.00  0.00    -0.020 A 
ATOM     17  C   UNL     1      -5.229  -8.932   9.922  0.00  0.00    +0.047 A 
ATOM     20  C   UNL     1      -7.450  -8.660  10.118  0.00  0.00    +0.087 A 
ATOM     21  C   UNL     1      -3.287 -10.066  11.490  0.00  0.00    +0.006 A 
ATOM     22  C   UNL     1      -3.908  -8.881   9.475  0.00  0.00    +0.026 A 
ATOM     25  C   UNL     1      -2.937  -9.450  10.289  0.00  0.00    +0.002 A 
ATOM     27  H   UNL     1      -6.656 -11.871  12.869  0.00  0.00    +0.123 HD
ATOM     28  H   UNL     1      -6.381  -7.934   8.447  0.00  0.00    +0.165 HD
ENDROOT
BRANCH   7  13
ATOM      1  O   UNL     1      -9.285 -10.900  14.368  0.00  0.00    -0.274 OA
ATOM      3  N   UNL     1      -7.812 -10.247  16.041  0.00  0.00    -0.298 N 
ATOM      4  N   UNL     1      -6.842 -10.616  18.712  0.00  0.00    -0.302 NA
ATOM     13  C   UNL     1      -8.195 -10.437  14.714  0.00  0.00    +0.233 C 
ATOM     15  C   UNL     1      -6.583  -9.579  16.481  0.00  0.00    +0.123 C 
ATOM     16  C   UNL     1      -8.729 -10.602  17.123  0.00  0.00    +0.123 C 
ATOM     18  C   UNL     1      -5.905 -10.361  17.608  0.00  0.00    +0.103 C 
ATOM     19  C   UNL     1      -8.010 -11.368  18.232  0.00  0.00    +0.103 C 
ATOM     26  C   UNL     1      -6.176 -11.338  19.796  0.00  0.00    +0.105 C 
ENDBRANCH   7  13
BRANCH   6  10
ATOM     10  C   UNL     1      -4.145 -12.194  13.419  0.00  0.00    +0.026 C 
BRANCH  10  14
ATOM     14  C   UNL     1      -3.138 -12.190  14.573  0.00  0.00    -0.015 C 
ATOM     23  C   UNL     1      -1.739 -12.623  14.137  0.00  0.00    +0.007 C 
ATOM     24  C   UNL     1      -3.079 -10.788  15.184  0.00  0.00    +0.007 C 
ENDBRANCH  10  14
ENDBRANCH   6  10
TORSDOF 3
ENDMDL
