MODEL 1
REMARK VINA RESULT:      -7.5      0.000      0.000
REMARK  Name = 7050394
REMARK  3 active torsions:
REMARK  status: ('A' for Active; 'I' for Inactive)
REMARK    1  A    between atoms: N_6  and  C_10
REMARK    2  A    between atoms: C_18  and  C_23
REMARK    3  A    between atoms: C_21  and  C_24
REMARK                            x       y       z     vdW  Elec       q    Type
REMARK                         _______ _______ _______ _____ _____    ______ ____
ROOT
ATOM      2  O   UNL     1      -6.631 -11.645  40.095  0.00  0.00    -0.273 OA
ATOM      3  O   UNL     1     -11.149  -9.633  38.439  0.00  0.00    -0.270 OA
ATOM      5  N   UNL     1      -8.845  -9.680  38.723  0.00  0.00    -0.286 N 
ATOM      7  N   UNL     1      -8.274 -12.581  38.810  0.00  0.00    -0.283 N 
ATOM      9  C   UNL     1      -7.569 -10.275  38.345  0.00  0.00    +0.164 C 
ATOM     10  C   UNL     1      -6.388  -8.438  39.696  0.00  0.00    +0.077 C 
ATOM     11  C   UNL     1      -6.365  -9.332  38.456  0.00  0.00    +0.054 C 
ATOM     12  C   UNL     1      -7.726  -7.712  39.771  0.00  0.00    +0.041 C 
ATOM     13  C   UNL     1      -8.869  -8.711  39.822  0.00  0.00    +0.111 C 
ATOM     14  C   UNL     1      -7.451 -11.535  39.183  0.00  0.00    +0.238 C 
ATOM     15  C   UNL     1     -10.057 -10.165  38.231  0.00  0.00    +0.249 C 
ATOM     16  C   UNL     1     -10.057 -11.442  37.468  0.00  0.00    +0.059 A 
ATOM     17  C   UNL     1      -9.301 -12.569  37.839  0.00  0.00    +0.046 A 
ATOM     19  C   UNL     1     -11.024 -11.557  36.455  0.00  0.00    +0.023 A 
ATOM     20  C   UNL     1      -9.580 -13.804  37.229  0.00  0.00    +0.024 A 
ATOM     21  C   UNL     1     -11.251 -12.780  35.826  0.00  0.00    -0.017 A 
ATOM     22  C   UNL     1     -10.540 -13.906  36.223  0.00  0.00    +0.010 A 
ATOM     35  H   UNL     1      -8.046 -13.488  39.211  0.00  0.00    +0.155 HD
ENDROOT
BRANCH  21  24
ATOM      1 CL   UNL     1     -15.349 -13.198  31.521  0.00  0.00    -0.084 Cl
ATOM     24  C   UNL     1     -12.247 -12.883  34.780  0.00  0.00    -0.018 A 
ATOM     27  C   UNL     1     -13.271 -11.938  34.698  0.00  0.00    +0.010 A 
ATOM     28  C   UNL     1     -12.183 -13.924  33.856  0.00  0.00    +0.010 A 
ATOM     30  C   UNL     1     -14.230 -12.036  33.690  0.00  0.00    +0.020 A 
ATOM     31  C   UNL     1     -13.142 -14.022  32.848  0.00  0.00    +0.020 A 
ATOM     33  C   UNL     1     -14.166 -13.078  32.764  0.00  0.00    +0.041 A 
ENDBRANCH  21  24
BRANCH  10   6
ATOM      4  O   UNL     1      -5.117  -7.320  41.952  0.00  0.00    -0.270 OA
ATOM      6  N   UNL     1      -5.293  -7.497  39.668  0.00  0.00    -0.308 N 
ATOM     18  C   UNL     1      -4.719  -6.990  40.833  0.00  0.00    +0.246 C 
ATOM     34  H   UNL     1      -4.955  -7.208  38.756  0.00  0.00    +0.149 HD
BRANCH  18  23
ATOM      8  N   UNL     1      -2.146  -4.382  41.559  0.00  0.00    -0.263 NA
ATOM     23  C   UNL     1      -3.591  -6.066  40.641  0.00  0.00    +0.055 A 
ATOM     25  C   UNL     1      -2.936  -6.005  39.426  0.00  0.00    +0.016 A 
ATOM     26  C   UNL     1      -3.174  -5.252  41.669  0.00  0.00    +0.123 A 
ATOM     29  C   UNL     1      -1.873  -5.122  39.274  0.00  0.00    +0.020 A 
ATOM     32  C   UNL     1      -1.520  -4.339  40.361  0.00  0.00    +0.111 A 
ENDBRANCH  18  23
ENDBRANCH  10   6
TORSDOF 3
ENDMDL
MODEL 2
REMARK VINA RESULT:      -7.3     32.033     36.710
REMARK  Name = 7050394
REMARK  3 active torsions:
REMARK  status: ('A' for Active; 'I' for Inactive)
REMARK    1  A    between atoms: N_6  and  C_10
REMARK    2  A    between atoms: C_18  and  C_23
REMARK    3  A    between atoms: C_21  and  C_24
REMARK                            x       y       z     vdW  Elec       q    Type
REMARK                         _______ _______ _______ _____ _____    ______ ____
ROOT
ATOM      2  O   UNL     1      17.938   5.858  19.090  0.00  0.00    -0.273 OA
ATOM      3  O   UNL     1      21.522   7.883  22.293  0.00  0.00    -0.270 OA
ATOM      5  N   UNL     1      19.371   7.295  21.645  0.00  0.00    -0.286 N 
ATOM      7  N   UNL     1      19.846   4.927  19.937  0.00  0.00    -0.283 N 
ATOM      9  C   UNL     1      18.397   6.233  21.429  0.00  0.00    +0.164 C 
ATOM     10  C   UNL     1      16.605   8.039  21.083  0.00  0.00    +0.077 C 
ATOM     11  C   UNL     1      16.936   6.653  21.634  0.00  0.00    +0.054 C 
ATOM     12  C   UNL     1      17.601   9.054  21.630  0.00  0.00    +0.041 C 
ATOM     13  C   UNL     1      19.019   8.662  21.250  0.00  0.00    +0.111 C 
ATOM     14  C   UNL     1      18.698   5.689  20.044  0.00  0.00    +0.238 C 
ATOM     15  C   UNL     1      20.693   7.021  21.999  0.00  0.00    +0.249 C 
ATOM     16  C   UNL     1      21.163   5.610  21.956  0.00  0.00    +0.059 A 
ATOM     17  C   UNL     1      20.836   4.713  20.924  0.00  0.00    +0.046 A 
ATOM     19  C   UNL     1      22.143   5.256  22.900  0.00  0.00    +0.023 A 
ATOM     20  C   UNL     1      21.549   3.506  20.822  0.00  0.00    +0.024 A 
ATOM     21  C   UNL     1      22.804   4.032  22.812  0.00  0.00    -0.017 A 
ATOM     22  C   UNL     1      22.518   3.164  21.765  0.00  0.00    +0.010 A 
ATOM     35  H   UNL     1      19.936   4.379  19.084  0.00  0.00    +0.155 HD
ENDROOT
BRANCH  21  24
ATOM      1 CL   UNL     1      26.936   2.574  26.849  0.00  0.00    -0.084 Cl
ATOM     24  C   UNL     1      23.807   3.679  23.793  0.00  0.00    -0.018 A 
ATOM     27  C   UNL     1      24.156   2.341  23.982  0.00  0.00    +0.010 A 
ATOM     28  C   UNL     1      24.425   4.674  24.549  0.00  0.00    +0.010 A 
ATOM     30  C   UNL     1      25.123   2.000  24.928  0.00  0.00    +0.020 A 
ATOM     31  C   UNL     1      25.392   4.332  25.495  0.00  0.00    +0.020 A 
ATOM     33  C   UNL     1      25.742   2.996  25.684  0.00  0.00    +0.041 A 
ENDBRANCH  21  24
BRANCH  10   6
ATOM      4  O   UNL     1      14.259   6.831  20.084  0.00  0.00    -0.270 OA
ATOM      6  N   UNL     1      15.252   8.414  21.421  0.00  0.00    -0.308 N 
ATOM     18  C   UNL     1      14.143   7.763  20.882  0.00  0.00    +0.246 C 
ATOM     34  H   UNL     1      15.135   9.183  22.072  0.00  0.00    +0.149 HD
BRANCH  18  23
ATOM      8  N   UNL     1      10.592   7.714  22.038  0.00  0.00    -0.263 NA
ATOM     23  C   UNL     1      12.832   8.238  21.349  0.00  0.00    +0.055 A 
ATOM     25  C   UNL     1      12.603   9.588  21.536  0.00  0.00    +0.016 A 
ATOM     26  C   UNL     1      11.818   7.344  21.607  0.00  0.00    +0.123 A 
ATOM     29  C   UNL     1      11.354  10.008  21.979  0.00  0.00    +0.020 A 
ATOM     32  C   UNL     1      10.391   9.040  22.213  0.00  0.00    +0.111 A 
ENDBRANCH  18  23
ENDBRANCH  10   6
TORSDOF 3
ENDMDL
MODEL 3
REMARK VINA RESULT:      -7.2     40.104     42.597
REMARK  Name = 7050394
REMARK  3 active torsions:
REMARK  status: ('A' for Active; 'I' for Inactive)
REMARK    1  A    between atoms: N_6  and  C_10
REMARK    2  A    between atoms: C_18  and  C_23
REMARK    3  A    between atoms: C_21  and  C_24
REMARK                            x       y       z     vdW  Elec       q    Type
REMARK                         _______ _______ _______ _____ _____    ______ ____
ROOT
ATOM      2  O   UNL     1      13.263   8.125   6.428  0.00  0.00    -0.273 OA
ATOM      3  O   UNL     1      10.167   4.419   4.458  0.00  0.00    -0.270 OA
ATOM      5  N   UNL     1      10.636   6.498   5.379  0.00  0.00    -0.286 N 
ATOM      7  N   UNL     1      13.397   7.000   4.442  0.00  0.00    -0.283 N 
ATOM      9  C   UNL     1      11.209   7.825   5.196  0.00  0.00    +0.164 C 
ATOM     10  C   UNL     1      10.215   8.495   7.467  0.00  0.00    +0.077 C 
ATOM     11  C   UNL     1      10.558   8.926   6.042  0.00  0.00    +0.054 C 
ATOM     12  C   UNL     1       9.397   7.210   7.424  0.00  0.00    +0.041 C 
ATOM     13  C   UNL     1      10.171   6.112   6.715  0.00  0.00    +0.111 C 
ATOM     14  C   UNL     1      12.698   7.655   5.440  0.00  0.00    +0.238 C 
ATOM     15  C   UNL     1      10.724   5.516   4.391  0.00  0.00    +0.249 C 
ATOM     16  C   UNL     1      11.595   5.767   3.213  0.00  0.00    +0.059 A 
ATOM     17  C   UNL     1      12.871   6.354   3.300  0.00  0.00    +0.046 A 
ATOM     19  C   UNL     1      11.177   5.191   2.001  0.00  0.00    +0.023 A 
ATOM     20  C   UNL     1      13.725   6.290   2.186  0.00  0.00    +0.024 A 
ATOM     21  C   UNL     1      12.021   5.182   0.891  0.00  0.00    -0.017 A 
ATOM     22  C   UNL     1      13.299   5.719   0.988  0.00  0.00    +0.010 A 
ATOM     35  H   UNL     1      14.410   7.080   4.486  0.00  0.00    +0.155 HD
ENDROOT
BRANCH  21  24
ATOM      1 CL   UNL     1      10.186   2.742  -4.225  0.00  0.00    -0.084 Cl
ATOM     24  C   UNL     1      11.575   4.591  -0.352  0.00  0.00    -0.018 A 
ATOM     27  C   UNL     1      12.229   3.469  -0.864  0.00  0.00    +0.010 A 
ATOM     28  C   UNL     1      10.494   5.141  -1.039  0.00  0.00    +0.010 A 
ATOM     30  C   UNL     1      11.799   2.897  -2.062  0.00  0.00    +0.020 A 
ATOM     31  C   UNL     1      10.064   4.569  -2.237  0.00  0.00    +0.020 A 
ATOM     33  C   UNL     1      10.716   3.447  -2.749  0.00  0.00    +0.041 A 
ENDBRANCH  21  24
BRANCH  10   6
ATOM      4  O   UNL     1      11.378  10.643   8.877  0.00  0.00    -0.270 OA
ATOM      6  N   UNL     1       9.496   9.539   8.158  0.00  0.00    -0.308 N 
ATOM     18  C   UNL     1      10.149  10.570   8.834  0.00  0.00    +0.246 C 
ATOM     34  H   UNL     1       8.483   9.492   8.140  0.00  0.00    +0.149 HD
BRANCH  18  23
ATOM      8  N   UNL     1       7.900  13.527   9.217  0.00  0.00    -0.263 NA
ATOM     23  C   UNL     1       9.279  11.575   9.461  0.00  0.00    +0.055 A 
ATOM     25  C   UNL     1       9.023  11.531  10.818  0.00  0.00    +0.016 A 
ATOM     26  C   UNL     1       8.707  12.573   8.704  0.00  0.00    +0.123 A 
ATOM     29  C   UNL     1       8.196  12.495  11.383  0.00  0.00    +0.020 A 
ATOM     32  C   UNL     1       7.665  13.464  10.547  0.00  0.00    +0.111 A 
ENDBRANCH  18  23
ENDBRANCH  10   6
TORSDOF 3
ENDMDL
MODEL 4
REMARK VINA RESULT:      -7.2     39.496     41.548
REMARK  Name = 7050394
REMARK  3 active torsions:
REMARK  status: ('A' for Active; 'I' for Inactive)
REMARK    1  A    between atoms: N_6  and  C_10
REMARK    2  A    between atoms: C_18  and  C_23
REMARK    3  A    between atoms: C_21  and  C_24
REMARK                            x       y       z     vdW  Elec       q    Type
REMARK                         _______ _______ _______ _____ _____    ______ ____
ROOT
ATOM      2  O   UNL     1       8.639   7.327   8.468  0.00  0.00    -0.273 OA
ATOM      3  O   UNL     1       8.873   8.530   3.399  0.00  0.00    -0.270 OA
ATOM      5  N   UNL     1       9.437   8.746   5.641  0.00  0.00    -0.286 N 
ATOM      7  N   UNL     1       9.060   5.995   6.659  0.00  0.00    -0.283 N 
ATOM      9  C   UNL     1      10.141   8.196   6.792  0.00  0.00    +0.164 C 
ATOM     10  C   UNL     1       9.648  10.379   8.052  0.00  0.00    +0.077 C 
ATOM     11  C   UNL     1      10.637   9.242   7.799  0.00  0.00    +0.054 C 
ATOM     12  C   UNL     1       9.222  10.985   6.721  0.00  0.00    +0.041 C 
ATOM     13  C   UNL     1       8.589   9.926   5.834  0.00  0.00    +0.111 C 
ATOM     14  C   UNL     1       9.197   7.165   7.383  0.00  0.00    +0.238 C 
ATOM     15  C   UNL     1       9.365   8.062   4.427  0.00  0.00    +0.249 C 
ATOM     16  C   UNL     1       9.843   6.655   4.373  0.00  0.00    +0.059 A 
ATOM     17  C   UNL     1       9.581   5.706   5.378  0.00  0.00    +0.046 A 
ATOM     19  C   UNL     1      10.402   6.238   3.152  0.00  0.00    +0.023 A 
ATOM     20  C   UNL     1       9.825   4.348   5.109  0.00  0.00    +0.024 A 
ATOM     21  C   UNL     1      10.684   4.892   2.923  0.00  0.00    -0.017 A 
ATOM     22  C   UNL     1      10.383   3.946   3.896  0.00  0.00    +0.010 A 
ATOM     35  H   UNL     1       8.618   5.220   7.150  0.00  0.00    +0.155 HD
ENDROOT
BRANCH  21  24
ATOM      1 CL   UNL     1      13.073   3.192  -2.263  0.00  0.00    -0.084 Cl
ATOM     24  C   UNL     1      11.265   4.478   1.664  0.00  0.00    -0.018 A 
ATOM     27  C   UNL     1      10.579   4.710   0.471  0.00  0.00    +0.010 A 
ATOM     28  C   UNL     1      12.508   3.848   1.642  0.00  0.00    +0.010 A 
ATOM     30  C   UNL     1      11.138   4.311  -0.743  0.00  0.00    +0.020 A 
ATOM     31  C   UNL     1      13.068   3.450   0.428  0.00  0.00    +0.020 A 
ATOM     33  C   UNL     1      12.383   3.682  -0.765  0.00  0.00    +0.041 A 
ENDBRANCH  21  24
BRANCH  10   6
ATOM      4  O   UNL     1       8.632  11.209  10.549  0.00  0.00    -0.270 OA
ATOM      6  N   UNL     1      10.232  11.382   8.910  0.00  0.00    -0.308 N 
ATOM     18  C   UNL     1       9.665  11.736  10.134  0.00  0.00    +0.246 C 
ATOM     34  H   UNL     1      11.080  11.833   8.583  0.00  0.00    +0.149 HD
BRANCH  18  23
ATOM      8  N   UNL     1      11.066  15.043  11.159  0.00  0.00    -0.263 NA
ATOM     23  C   UNL     1      10.395  12.751  10.908  0.00  0.00    +0.055 A 
ATOM     25  C   UNL     1      11.068  12.399  12.063  0.00  0.00    +0.016 A 
ATOM     26  C   UNL     1      10.416  14.063  10.494  0.00  0.00    +0.123 A 
ATOM     29  C   UNL     1      11.750  13.380  12.774  0.00  0.00    +0.020 A 
ATOM     32  C   UNL     1      11.718  14.676  12.284  0.00  0.00    +0.111 A 
ENDBRANCH  18  23
ENDBRANCH  10   6
TORSDOF 3
ENDMDL
MODEL 5
REMARK VINA RESULT:      -7.2     35.062     37.910
REMARK  Name = 7050394
REMARK  3 active torsions:
REMARK  status: ('A' for Active; 'I' for Inactive)
REMARK    1  A    between atoms: N_6  and  C_10
REMARK    2  A    between atoms: C_18  and  C_23
REMARK    3  A    between atoms: C_21  and  C_24
REMARK                            x       y       z     vdW  Elec       q    Type
REMARK                         _______ _______ _______ _____ _____    ______ ____
ROOT
ATOM      2  O   UNL     1      22.419   6.842  19.815  0.00  0.00    -0.273 OA
ATOM      3  O   UNL     1      22.580   4.263  24.345  0.00  0.00    -0.270 OA
ATOM      5  N   UNL     1      21.566   5.070  22.418  0.00  0.00    -0.286 N 
ATOM      7  N   UNL     1      23.824   5.178  20.510  0.00  0.00    -0.283 N 
ATOM      9  C   UNL     1      21.420   4.975  20.971  0.00  0.00    +0.164 C 
ATOM     10  C   UNL     1      19.464   6.631  21.127  0.00  0.00    +0.077 C 
ATOM     11  C   UNL     1      20.046   5.398  20.438  0.00  0.00    +0.054 C 
ATOM     12  C   UNL     1      19.481   6.422  22.637  0.00  0.00    +0.041 C 
ATOM     13  C   UNL     1      20.899   6.170  23.121  0.00  0.00    +0.111 C 
ATOM     14  C   UNL     1      22.580   5.770  20.399  0.00  0.00    +0.238 C 
ATOM     15  C   UNL     1      22.492   4.294  23.117  0.00  0.00    +0.249 C 
ATOM     16  C   UNL     1      23.487   3.504  22.343  0.00  0.00    +0.059 A 
ATOM     17  C   UNL     1      24.159   3.996  21.210  0.00  0.00    +0.046 A 
ATOM     19  C   UNL     1      23.898   2.291  22.922  0.00  0.00    +0.023 A 
ATOM     20  C   UNL     1      25.273   3.292  20.723  0.00  0.00    +0.024 A 
ATOM     21  C   UNL     1      24.975   1.580  22.393  0.00  0.00    -0.017 A 
ATOM     22  C   UNL     1      25.671   2.088  21.303  0.00  0.00    +0.010 A 
ATOM     35  H   UNL     1      24.561   5.586  19.939  0.00  0.00    +0.155 HD
ENDROOT
BRANCH  21  24
ATOM      1 CL   UNL     1      26.654  -3.568  24.877  0.00  0.00    -0.084 Cl
ATOM     24  C   UNL     1      25.383   0.330  22.996  0.00  0.00    -0.018 A 
ATOM     27  C   UNL     1      24.990   0.023  24.299  0.00  0.00    +0.010 A 
ATOM     28  C   UNL     1      26.170  -0.568  22.276  0.00  0.00    +0.010 A 
ATOM     30  C   UNL     1      25.383  -1.182  24.881  0.00  0.00    +0.020 A 
ATOM     31  C   UNL     1      26.563  -1.773  22.857  0.00  0.00    +0.020 A 
ATOM     33  C   UNL     1      26.170  -2.081  24.160  0.00  0.00    +0.041 A 
ENDBRANCH  21  24
BRANCH  10   6
ATOM      4  O   UNL     1      18.132   9.114  21.244  0.00  0.00    -0.270 OA
ATOM      6  N   UNL     1      18.123   6.892  20.660  0.00  0.00    -0.308 N 
ATOM     18  C   UNL     1      17.535   8.154  20.755  0.00  0.00    +0.246 C 
ATOM     34  H   UNL     1      17.612   6.112  20.260  0.00  0.00    +0.149 HD
BRANCH  18  23
ATOM      8  N   UNL     1      14.239   9.632  19.807  0.00  0.00    -0.263 NA
ATOM     23  C   UNL     1      16.176   8.270  20.206  0.00  0.00    +0.055 A 
ATOM     25  C   UNL     1      15.573   7.185  19.597  0.00  0.00    +0.016 A 
ATOM     26  C   UNL     1      15.489   9.459  20.290  0.00  0.00    +0.123 A 
ATOM     29  C   UNL     1      14.287   7.325  19.087  0.00  0.00    +0.020 A 
ATOM     32  C   UNL     1      13.669   8.558  19.216  0.00  0.00    +0.111 A 
ENDBRANCH  18  23
ENDBRANCH  10   6
TORSDOF 3
ENDMDL
MODEL 6
REMARK VINA RESULT:      -7.2     18.568     21.871
REMARK  Name = 7050394
REMARK  3 active torsions:
REMARK  status: ('A' for Active; 'I' for Inactive)
REMARK    1  A    between atoms: N_6  and  C_10
REMARK    2  A    between atoms: C_18  and  C_23
REMARK    3  A    between atoms: C_21  and  C_24
REMARK                            x       y       z     vdW  Elec       q    Type
REMARK                         _______ _______ _______ _____ _____    ______ ____
ROOT
ATOM      2  O   UNL     1      -5.886 -13.982  16.377  0.00  0.00    -0.273 OA
ATOM      3  O   UNL     1      -7.573 -10.688  20.052  0.00  0.00    -0.270 OA
ATOM      5  N   UNL     1      -7.067 -11.338  17.881  0.00  0.00    -0.286 N 
ATOM      7  N   UNL     1      -7.492 -14.263  17.979  0.00  0.00    -0.283 N 
ATOM      9  C   UNL     1      -7.420 -12.152  16.725  0.00  0.00    +0.164 C 
ATOM     10  C   UNL     1      -5.620 -10.909  15.382  0.00  0.00    +0.077 C 
ATOM     11  C   UNL     1      -7.001 -11.562  15.373  0.00  0.00    +0.054 C 
ATOM     12  C   UNL     1      -5.542  -9.903  16.524  0.00  0.00    +0.041 C 
ATOM     13  C   UNL     1      -5.807 -10.589  17.854  0.00  0.00    +0.111 C 
ATOM     14  C   UNL     1      -6.838 -13.525  17.010  0.00  0.00    +0.238 C 
ATOM     15  C   UNL     1      -7.766 -11.426  19.085  0.00  0.00    +0.249 C 
ATOM     16  C   UNL     1      -8.762 -12.519  19.252  0.00  0.00    +0.059 A 
ATOM     17  C   UNL     1      -8.543 -13.841  18.824  0.00  0.00    +0.046 A 
ATOM     19  C   UNL     1      -9.872 -12.225  20.062  0.00  0.00    +0.023 A 
ATOM     20  C   UNL     1      -9.410 -14.851  19.275  0.00  0.00    +0.024 A 
ATOM     21  C   UNL     1     -10.749 -13.234  20.457  0.00  0.00    -0.017 A 
ATOM     22  C   UNL     1     -10.510 -14.549  20.076  0.00  0.00    +0.010 A 
ATOM     35  H   UNL     1      -7.256 -15.253  18.016  0.00  0.00    +0.155 HD
ENDROOT
BRANCH  21  24
ATOM      1 CL   UNL     1     -15.450 -11.926  23.876  0.00  0.00    -0.084 Cl
ATOM     24  C   UNL     1     -11.892 -12.916  21.287  0.00  0.00    -0.018 A 
ATOM     27  C   UNL     1     -12.134 -13.648  22.450  0.00  0.00    +0.010 A 
ATOM     28  C   UNL     1     -12.751 -11.880  20.924  0.00  0.00    +0.010 A 
ATOM     30  C   UNL     1     -13.234 -13.342  23.250  0.00  0.00    +0.020 A 
ATOM     31  C   UNL     1     -13.851 -11.573  21.724  0.00  0.00    +0.020 A 
ATOM     33  C   UNL     1     -14.094 -12.304  22.888  0.00  0.00    +0.041 A 
ENDBRANCH  21  24
BRANCH  10   6
ATOM      4  O   UNL     1      -4.251 -12.072  13.207  0.00  0.00    -0.270 OA
ATOM      6  N   UNL     1      -5.349 -10.270  14.116  0.00  0.00    -0.308 N 
ATOM     18  C   UNL     1      -4.663 -10.917  13.088  0.00  0.00    +0.246 C 
ATOM     34  H   UNL     1      -5.674  -9.316  14.000  0.00  0.00    +0.149 HD
BRANCH  18  23
ATOM      8  N   UNL     1      -5.492  -8.841  10.096  0.00  0.00    -0.263 NA
ATOM     23  C   UNL     1      -4.494 -10.146  11.847  0.00  0.00    +0.055 A 
ATOM     25  C   UNL     1      -3.242  -9.999  11.281  0.00  0.00    +0.016 A 
ATOM     26  C   UNL     1      -5.579  -9.561  11.236  0.00  0.00    +0.123 A 
ATOM     29  C   UNL     1      -3.112  -9.265  10.107  0.00  0.00    +0.020 A 
ATOM     32  C   UNL     1      -4.258  -8.711   9.559  0.00  0.00    +0.111 A 
ENDBRANCH  18  23
ENDBRANCH  10   6
TORSDOF 3
ENDMDL
MODEL 7
REMARK VINA RESULT:      -7.1     19.220     22.330
REMARK  Name = 7050394
REMARK  3 active torsions:
REMARK  status: ('A' for Active; 'I' for Inactive)
REMARK    1  A    between atoms: N_6  and  C_10
REMARK    2  A    between atoms: C_18  and  C_23
REMARK    3  A    between atoms: C_21  and  C_24
REMARK                            x       y       z     vdW  Elec       q    Type
REMARK                         _______ _______ _______ _____ _____    ______ ____
ROOT
ATOM      2  O   UNL     1      -9.668 -11.283  20.469  0.00  0.00    -0.273 OA
ATOM      3  O   UNL     1      -8.763 -12.511  15.482  0.00  0.00    -0.270 OA
ATOM      5  N   UNL     1      -9.777 -11.336  17.209  0.00  0.00    -0.286 N 
ATOM      7  N   UNL     1      -7.698 -11.378  19.312  0.00  0.00    -0.283 N 
ATOM      9  C   UNL     1      -9.650 -10.328  18.253  0.00  0.00    +0.164 C 
ATOM     10  C   UNL     1     -12.189 -10.467  18.605  0.00  0.00    +0.077 C 
ATOM     11  C   UNL     1     -10.947  -9.578  18.581  0.00  0.00    +0.054 C 
ATOM     12  C   UNL     1     -12.269 -11.260  17.306  0.00  0.00    +0.041 C 
ATOM     13  C   UNL     1     -11.021 -12.107  17.125  0.00  0.00    +0.111 C 
ATOM     14  C   UNL     1      -9.036 -11.054  19.437  0.00  0.00    +0.238 C 
ATOM     15  C   UNL     1      -8.685 -11.742  16.441  0.00  0.00    +0.249 C 
ATOM     16  C   UNL     1      -7.326 -11.283  16.837  0.00  0.00    +0.059 A 
ATOM     17  C   UNL     1      -6.878 -11.239  18.169  0.00  0.00    +0.046 A 
ATOM     19  C   UNL     1      -6.410 -11.089  15.789  0.00  0.00    +0.023 A 
ATOM     20  C   UNL     1      -5.506 -11.066  18.418  0.00  0.00    +0.024 A 
ATOM     21  C   UNL     1      -5.060 -10.869  16.058  0.00  0.00    -0.017 A 
ATOM     22  C   UNL     1      -4.606 -10.872  17.371  0.00  0.00    +0.010 A 
ATOM     35  H   UNL     1      -7.228 -11.654  20.172  0.00  0.00    +0.155 HD
ENDROOT
BRANCH  21  24
ATOM      1 CL   UNL     1      -1.228 -10.028  11.574  0.00  0.00    -0.084 Cl
ATOM     24  C   UNL     1      -4.129 -10.666  14.969  0.00  0.00    -0.018 A 
ATOM     27  C   UNL     1      -4.589 -10.646  13.652  0.00  0.00    +0.010 A 
ATOM     28  C   UNL     1      -2.772 -10.489  15.236  0.00  0.00    +0.010 A 
ATOM     30  C   UNL     1      -3.692 -10.450  12.603  0.00  0.00    +0.020 A 
ATOM     31  C   UNL     1      -1.874 -10.292  14.186  0.00  0.00    +0.020 A 
ATOM     33  C   UNL     1      -2.334 -10.272  12.869  0.00  0.00    +0.041 A 
ENDBRANCH  21  24
BRANCH  10   6
ATOM      4  O   UNL     1     -13.820 -10.469  20.906  0.00  0.00    -0.270 OA
ATOM      6  N   UNL     1     -13.381  -9.674  18.796  0.00  0.00    -0.308 N 
ATOM     18  C   UNL     1     -14.134  -9.734  19.969  0.00  0.00    +0.246 C 
ATOM     34  H   UNL     1     -13.660  -9.067  18.033  0.00  0.00    +0.149 HD
BRANCH  18  23
ATOM      8  N   UNL     1     -17.066  -7.703  18.861  0.00  0.00    -0.263 NA
ATOM     23  C   UNL     1     -15.302  -8.843  20.026  0.00  0.00    +0.055 A 
ATOM     25  C   UNL     1     -15.726  -8.323  21.234  0.00  0.00    +0.016 A 
ATOM     26  C   UNL     1     -15.987  -8.515  18.878  0.00  0.00    +0.123 A 
ATOM     29  C   UNL     1     -16.834  -7.483  21.257  0.00  0.00    +0.020 A 
ATOM     32  C   UNL     1     -17.463  -7.206  20.054  0.00  0.00    +0.111 A 
ENDBRANCH  18  23
ENDBRANCH  10   6
TORSDOF 3
ENDMDL
MODEL 8
REMARK VINA RESULT:      -7.1     41.737     44.185
REMARK  Name = 7050394
REMARK  3 active torsions:
REMARK  status: ('A' for Active; 'I' for Inactive)
REMARK    1  A    between atoms: N_6  and  C_10
REMARK    2  A    between atoms: C_18  and  C_23
REMARK    3  A    between atoms: C_21  and  C_24
REMARK                            x       y       z     vdW  Elec       q    Type
REMARK                         _______ _______ _______ _____ _____    ______ ____
ROOT
ATOM      2  O   UNL     1       6.379  10.398  -0.912  0.00  0.00    -0.273 OA
ATOM      3  O   UNL     1       6.140  11.001   4.263  0.00  0.00    -0.270 OA
ATOM      5  N   UNL     1       5.285  10.512   2.160  0.00  0.00    -0.286 N 
ATOM      7  N   UNL     1       7.658   9.466   0.738  0.00  0.00    -0.283 N 
ATOM      9  C   UNL     1       5.224   9.580   1.042  0.00  0.00    +0.164 C 
ATOM     10  C   UNL     1       3.342  11.010   0.039  0.00  0.00    +0.077 C 
ATOM     11  C   UNL     1       3.906   9.607   0.257  0.00  0.00    +0.054 C 
ATOM     12  C   UNL     1       3.256  11.735   1.377  0.00  0.00    +0.041 C 
ATOM     13  C   UNL     1       4.629  11.816   2.025  0.00  0.00    +0.111 C 
ATOM     14  C   UNL     1       6.453   9.880   0.203  0.00  0.00    +0.238 C 
ATOM     15  C   UNL     1       6.129  10.299   3.251  0.00  0.00    +0.249 C 
ATOM     16  C   UNL     1       7.131   9.202   3.173  0.00  0.00    +0.059 A 
ATOM     17  C   UNL     1       7.894   8.928   2.023  0.00  0.00    +0.046 A 
ATOM     19  C   UNL     1       7.448   8.567   4.385  0.00  0.00    +0.023 A 
ATOM     20  C   UNL     1       9.002   8.070   2.133  0.00  0.00    +0.024 A 
ATOM     21  C   UNL     1       8.521   7.679   4.463  0.00  0.00    -0.017 A 
ATOM     22  C   UNL     1       9.306   7.442   3.341  0.00  0.00    +0.010 A 
ATOM     35  H   UNL     1       8.448   9.456   0.095  0.00  0.00    +0.155 HD
ENDROOT
BRANCH  21  24
ATOM      1 CL   UNL     1       9.801   4.998   9.627  0.00  0.00    -0.084 Cl
ATOM     24  C   UNL     1       8.833   7.028   5.716  0.00  0.00    -0.018 A 
ATOM     27  C   UNL     1       8.581   7.682   6.923  0.00  0.00    +0.010 A 
ATOM     28  C   UNL     1       9.385   5.748   5.720  0.00  0.00    +0.010 A 
ATOM     30  C   UNL     1       8.881   7.054   8.132  0.00  0.00    +0.020 A 
ATOM     31  C   UNL     1       9.684   5.120   6.929  0.00  0.00    +0.020 A 
ATOM     33  C   UNL     1       9.432   5.772   8.135  0.00  0.00    +0.041 A 
ENDBRANCH  21  24
BRANCH  10   6
ATOM      4  O   UNL     1       2.856  11.111  -2.738  0.00  0.00    -0.270 OA
ATOM      6  N   UNL     1       2.046  10.946  -0.594  0.00  0.00    -0.308 N 
ATOM     18  C   UNL     1       1.891  11.003  -1.979  0.00  0.00    +0.246 C 
ATOM     34  H   UNL     1       1.238  10.864   0.014  0.00  0.00    +0.149 HD
BRANCH  18  23
ATOM      8  N   UNL     1      -1.061  11.255  -4.254  0.00  0.00    -0.263 NA
ATOM     23  C   UNL     1       0.511  10.893  -2.474  0.00  0.00    +0.055 A 
ATOM     25  C   UNL     1      -0.477  10.351  -1.675  0.00  0.00    +0.016 A 
ATOM     26  C   UNL     1       0.187  11.328  -3.739  0.00  0.00    +0.123 A 
ATOM     29  C   UNL     1      -1.774  10.260  -2.170  0.00  0.00    +0.020 A 
ATOM     32  C   UNL     1      -2.011  10.722  -3.454  0.00  0.00    +0.111 A 
ENDBRANCH  18  23
ENDBRANCH  10   6
TORSDOF 3
ENDMDL
MODEL 9
REMARK VINA RESULT:      -7.0     22.053     26.143
REMARK  Name = 7050394
REMARK  3 active torsions:
REMARK  status: ('A' for Active; 'I' for Inactive)
REMARK    1  A    between atoms: N_6  and  C_10
REMARK    2  A    between atoms: C_18  and  C_23
REMARK    3  A    between atoms: C_21  and  C_24
REMARK                            x       y       z     vdW  Elec       q    Type
REMARK                         _______ _______ _______ _____ _____    ______ ____
ROOT
ATOM      2  O   UNL     1     -14.559  -6.493  14.946  0.00  0.00    -0.273 OA
ATOM      3  O   UNL     1     -10.811  -9.585  13.051  0.00  0.00    -0.270 OA
ATOM      5  N   UNL     1     -12.038  -7.620  13.208  0.00  0.00    -0.286 N 
ATOM      7  N   UNL     1     -12.908  -7.638  16.035  0.00  0.00    -0.283 N 
ATOM      9  C   UNL     1     -12.351  -6.421  13.975  0.00  0.00    +0.164 C 
ATOM     10  C   UNL     1     -13.696  -5.564  11.963  0.00  0.00    +0.077 C 
ATOM     11  C   UNL     1     -12.776  -5.213  13.132  0.00  0.00    +0.054 C 
ATOM     12  C   UNL     1     -13.063  -6.678  11.137  0.00  0.00    +0.041 C 
ATOM     13  C   UNL     1     -12.819  -7.905  12.000  0.00  0.00    +0.111 C 
ATOM     14  C   UNL     1     -13.385  -6.859  14.997  0.00  0.00    +0.238 C 
ATOM     15  C   UNL     1     -11.186  -8.608  13.702  0.00  0.00    +0.249 C 
ATOM     16  C   UNL     1     -10.752  -8.530  15.122  0.00  0.00    +0.059 A 
ATOM     17  C   UNL     1     -11.612  -8.185  16.180  0.00  0.00    +0.046 A 
ATOM     19  C   UNL     1      -9.468  -9.029  15.405  0.00  0.00    +0.023 A 
ATOM     20  C   UNL     1     -11.189  -8.412  17.501  0.00  0.00    +0.024 A 
ATOM     21  C   UNL     1      -9.048  -9.199  16.723  0.00  0.00    -0.017 A 
ATOM     22  C   UNL     1      -9.913  -8.905  17.770  0.00  0.00    +0.010 A 
ATOM     35  H   UNL     1     -13.532  -7.745  16.832  0.00  0.00    +0.155 HD
ENDROOT
BRANCH  21  24
ATOM      1 CL   UNL     1      -3.587 -11.294  17.860  0.00  0.00    -0.084 Cl
ATOM     24  C   UNL     1      -7.722  -9.709  16.999  0.00  0.00    -0.018 A 
ATOM     27  C   UNL     1      -6.708  -9.566  16.051  0.00  0.00    +0.010 A 
ATOM     28  C   UNL     1      -7.456 -10.343  18.213  0.00  0.00    +0.010 A 
ATOM     30  C   UNL     1      -5.430 -10.057  16.317  0.00  0.00    +0.020 A 
ATOM     31  C   UNL     1      -6.178 -10.833  18.479  0.00  0.00    +0.020 A 
ATOM     33  C   UNL     1      -5.164 -10.690  17.532  0.00  0.00    +0.041 A 
ENDBRANCH  21  24
BRANCH  10   6
ATOM      4  O   UNL     1     -16.236  -4.641  11.158  0.00  0.00    -0.270 OA
ATOM      6  N   UNL     1     -13.952  -4.402  11.146  0.00  0.00    -0.308 N 
ATOM     18  C   UNL     1     -15.242  -4.011  10.791  0.00  0.00    +0.246 C 
ATOM     34  H   UNL     1     -13.145  -3.873  10.829  0.00  0.00    +0.149 HD
BRANCH  18  23
ATOM      8  N   UNL     1     -14.765  -1.610   7.970  0.00  0.00    -0.263 NA
ATOM     23  C   UNL     1     -15.341  -2.787   9.983  0.00  0.00    +0.055 A 
ATOM     25  C   UNL     1     -16.067  -1.703  10.441  0.00  0.00    +0.016 A 
ATOM     26  C   UNL     1     -14.714  -2.704   8.761  0.00  0.00    +0.123 A 
ATOM     29  C   UNL     1     -16.143  -0.559   9.655  0.00  0.00    +0.020 A 
ATOM     32  C   UNL     1     -15.480  -0.563   8.439  0.00  0.00    +0.111 A 
ENDBRANCH  18  23
ENDBRANCH  10   6
TORSDOF 3
ENDMDL
MODEL 10
REMARK VINA RESULT:      -7.0     34.733     37.752
REMARK  Name = 7050394
REMARK  3 active torsions:
REMARK  status: ('A' for Active; 'I' for Inactive)
REMARK    1  A    between atoms: N_6  and  C_10
REMARK    2  A    between atoms: C_18  and  C_23
REMARK    3  A    between atoms: C_21  and  C_24
REMARK                            x       y       z     vdW  Elec       q    Type
REMARK                         _______ _______ _______ _____ _____    ______ ____
ROOT
ATOM      2  O   UNL     1      -1.337 -14.491   4.349  0.00  0.00    -0.273 OA
ATOM      3  O   UNL     1      -2.676 -14.822  -0.680  0.00  0.00    -0.270 OA
ATOM      5  N   UNL     1      -2.655 -13.859   1.432  0.00  0.00    -0.286 N 
ATOM      7  N   UNL     1      -0.025 -14.703   2.490  0.00  0.00    -0.283 N 
ATOM      9  C   UNL     1      -1.906 -13.124   2.444  0.00  0.00    +0.164 C 
ATOM     10  C   UNL     1      -4.085 -12.870   3.778  0.00  0.00    +0.077 C 
ATOM     11  C   UNL     1      -2.761 -12.235   3.354  0.00  0.00    +0.054 C 
ATOM     12  C   UNL     1      -4.833 -13.355   2.541  0.00  0.00    +0.041 C 
ATOM     13  C   UNL     1      -3.990 -14.359   1.772  0.00  0.00    +0.111 C 
ATOM     14  C   UNL     1      -1.097 -14.175   3.184  0.00  0.00    +0.238 C 
ATOM     15  C   UNL     1      -2.061 -14.291   0.246  0.00  0.00    +0.249 C 
ATOM     16  C   UNL     1      -0.585 -14.176   0.105  0.00  0.00    +0.059 A 
ATOM     17  C   UNL     1       0.321 -14.485   1.137  0.00  0.00    +0.046 A 
ATOM     19  C   UNL     1      -0.104 -13.942  -1.194  0.00  0.00    +0.023 A 
ATOM     20  C   UNL     1       1.684 -14.618   0.825  0.00  0.00    +0.024 A 
ATOM     21  C   UNL     1       1.259 -14.029  -1.474  0.00  0.00    -0.017 A 
ATOM     22  C   UNL     1       2.151 -14.381  -0.468  0.00  0.00    +0.010 A 
ATOM     35  H   UNL     1       0.646 -15.229   3.046  0.00  0.00    +0.155 HD
ENDROOT
BRANCH  21  24
ATOM      1 CL   UNL     1       3.243 -13.001  -6.996  0.00  0.00    -0.084 Cl
ATOM     24  C   UNL     1       1.741 -13.780  -2.815  0.00  0.00    -0.018 A 
ATOM     27  C   UNL     1       1.282 -12.670  -3.526  0.00  0.00    +0.010 A 
ATOM     28  C   UNL     1       2.663 -14.649  -3.398  0.00  0.00    +0.010 A 
ATOM     30  C   UNL     1       1.747 -12.430  -4.819  0.00  0.00    +0.020 A 
ATOM     31  C   UNL     1       3.127 -14.408  -4.691  0.00  0.00    +0.020 A 
ATOM     33  C   UNL     1       2.670 -13.299  -5.402  0.00  0.00    +0.041 A 
ENDBRANCH  21  24
BRANCH  10   6
ATOM      4  O   UNL     1      -3.856 -12.340   6.539  0.00  0.00    -0.270 OA
ATOM      6  N   UNL     1      -4.886 -11.931   4.527  0.00  0.00    -0.308 N 
ATOM     18  C   UNL     1      -4.709 -11.726   5.895  0.00  0.00    +0.246 C 
ATOM     34  H   UNL     1      -5.598 -11.420   4.015  0.00  0.00    +0.149 HD
BRANCH  18  23
ATOM      8  N   UNL     1      -6.102  -9.347   8.414  0.00  0.00    -0.263 NA
ATOM     23  C   UNL     1      -5.579 -10.713   6.509  0.00  0.00    +0.055 A 
ATOM     25  C   UNL     1      -6.646 -10.188   5.805  0.00  0.00    +0.016 A 
ATOM     26  C   UNL     1      -5.342 -10.275   7.792  0.00  0.00    +0.123 A 
ATOM     29  C   UNL     1      -7.451  -9.231   6.412  0.00  0.00    +0.020 A 
ATOM     32  C   UNL     1      -7.140  -8.848   7.706  0.00  0.00    +0.111 A 
ENDBRANCH  18  23
ENDBRANCH  10   6
TORSDOF 3
ENDMDL
