MODEL 1
REMARK VINA RESULT:      -7.0      0.000      0.000
REMARK  Name = 7155417
REMARK  3 active torsions:
REMARK  status: ('A' for Active; 'I' for Inactive)
REMARK    1  A    between atoms: C_13  and  C_18
REMARK    2  A    between atoms: C_15  and  C_19
REMARK    3  A    between atoms: C_29  and  C_30
REMARK                            x       y       z     vdW  Elec       q    Type
REMARK                         _______ _______ _______ _____ _____    ______ ____
ROOT
ATOM      1  O   UNL     1      13.393  10.369  16.015  0.00  0.00    -0.268 OA
ATOM      2  O   UNL     1      10.590   8.427  19.773  0.00  0.00    -0.270 OA
ATOM      3  N   UNL     1      12.823   8.033  20.347  0.00  0.00    -0.297 N 
ATOM      4  N   UNL     1      14.319   9.492  17.980  0.00  0.00    -0.311 N 
ATOM      6  C   UNL     1      14.164   6.993  18.537  0.00  0.00    +0.027 C 
ATOM      7  C   UNL     1      15.245   8.541  20.114  0.00  0.00    +0.054 C 
ATOM      8  C   UNL     1      15.437   7.241  19.334  0.00  0.00    +0.018 C 
ATOM      9  C   UNL     1      12.952   6.867  19.475  0.00  0.00    +0.113 C 
ATOM     10  C   UNL     1      13.994   8.131  17.529  0.00  0.00    +0.130 C 
ATOM     11  C   UNL     1      14.047   8.394  21.077  0.00  0.00    +0.117 C 
ATOM     12  C   UNL     1      15.021   9.732  19.179  0.00  0.00    +0.034 A 
ATOM     13  C   UNL     1      15.439  10.989  19.480  0.00  0.00    +0.002 A 
ATOM     14  C   UNL     1      13.992  10.522  17.080  0.00  0.00    +0.252 A 
ATOM     15  C   UNL     1      11.613   8.732  20.385  0.00  0.00    +0.247 C 
ATOM     16  C   UNL     1      15.115  12.077  18.577  0.00  0.00    +0.015 A 
ATOM     17  C   UNL     1      14.424  11.888  17.452  0.00  0.00    +0.071 A 
ENDROOT
BRANCH  13  18
ATOM     18  C   UNL     1      16.199  11.282  20.715  0.00  0.00    -0.016 A 
ATOM     20  C   UNL     1      15.528  11.723  21.851  0.00  0.00    +0.008 A 
ATOM     21  C   UNL     1      17.581  11.116  20.731  0.00  0.00    +0.008 A 
ATOM     24  C   UNL     1      16.245  11.998  23.016  0.00  0.00    +0.001 A 
ATOM     25  C   UNL     1      18.298  11.391  21.895  0.00  0.00    +0.001 A 
ATOM     26  C   UNL     1      17.630  11.833  23.037  0.00  0.00    +0.000 A 
ENDBRANCH  13  18
BRANCH  15  19
ATOM     19  C   UNL     1      11.539   9.946  21.206  0.00  0.00    +0.037 A 
ATOM     22  C   UNL     1      11.982  11.161  20.688  0.00  0.00    +0.014 A 
ATOM     23  C   UNL     1      11.022   9.880  22.497  0.00  0.00    +0.014 A 
ATOM     27  C   UNL     1      11.910  12.315  21.467  0.00  0.00    +0.019 A 
ATOM     28  C   UNL     1      10.949  11.033  23.276  0.00  0.00    +0.019 A 
ATOM     29  C   UNL     1      11.393  12.251  22.762  0.00  0.00    +0.052 A 
BRANCH  29  30
ATOM      5  N   UNL     1      11.264  14.396  24.210  0.00  0.00    -0.191 NA
ATOM     30  C   UNL     1      11.321  13.434  23.561  0.00  0.00    +0.099 C 
ENDBRANCH  29  30
ENDBRANCH  15  19
TORSDOF 3
ENDMDL
MODEL 2
REMARK VINA RESULT:      -6.4     14.034     17.422
REMARK  Name = 7155417
REMARK  3 active torsions:
REMARK  status: ('A' for Active; 'I' for Inactive)
REMARK    1  A    between atoms: C_13  and  C_18
REMARK    2  A    between atoms: C_15  and  C_19
REMARK    3  A    between atoms: C_29  and  C_30
REMARK                            x       y       z     vdW  Elec       q    Type
REMARK                         _______ _______ _______ _____ _____    ______ ____
ROOT
ATOM      1  O   UNL     1       7.346   8.888   4.227  0.00  0.00    -0.268 OA
ATOM      2  O   UNL     1      11.290   9.674   7.321  0.00  0.00    -0.270 OA
ATOM      3  N   UNL     1      11.252   7.378   6.874  0.00  0.00    -0.297 N 
ATOM      4  N   UNL     1       8.869   7.207   4.809  0.00  0.00    -0.311 N 
ATOM      6  C   UNL     1       9.034   6.319   7.210  0.00  0.00    +0.027 C 
ATOM      7  C   UNL     1      10.543   5.453   5.471  0.00  0.00    +0.054 C 
ATOM      8  C   UNL     1       9.540   5.045   6.549  0.00  0.00    +0.018 C 
ATOM      9  C   UNL     1      10.197   7.098   7.846  0.00  0.00    +0.113 C 
ATOM     10  C   UNL     1       8.293   7.149   6.160  0.00  0.00    +0.130 C 
ATOM     11  C   UNL     1      11.723   6.206   6.123  0.00  0.00    +0.117 C 
ATOM     12  C   UNL     1       9.893   6.329   4.398  0.00  0.00    +0.034 A 
ATOM     13  C   UNL     1      10.287   6.310   3.098  0.00  0.00    +0.002 A 
ATOM     14  C   UNL     1       8.251   8.109   3.926  0.00  0.00    +0.252 A 
ATOM     15  C   UNL     1      11.686   8.694   6.690  0.00  0.00    +0.247 C 
ATOM     16  C   UNL     1       9.675   7.230   2.160  0.00  0.00    +0.015 A 
ATOM     17  C   UNL     1       8.728   8.095   2.524  0.00  0.00    +0.071 A 
ENDROOT
BRANCH  13  18
ATOM     18  C   UNL     1      11.340   5.388   2.617  0.00  0.00    -0.016 A 
ATOM     20  C   UNL     1      12.614   5.877   2.344  0.00  0.00    +0.008 A 
ATOM     21  C   UNL     1      11.048   4.039   2.442  0.00  0.00    +0.008 A 
ATOM     24  C   UNL     1      13.606   5.007   1.892  0.00  0.00    +0.001 A 
ATOM     25  C   UNL     1      12.041   3.169   1.989  0.00  0.00    +0.001 A 
ATOM     26  C   UNL     1      13.319   3.653   1.714  0.00  0.00    +0.000 A 
ENDBRANCH  13  18
BRANCH  15  19
ATOM     19  C   UNL     1      12.687   8.956   5.650  0.00  0.00    +0.037 A 
ATOM     22  C   UNL     1      12.279   9.194   4.340  0.00  0.00    +0.014 A 
ATOM     23  C   UNL     1      14.041   8.969   5.978  0.00  0.00    +0.014 A 
ATOM     27  C   UNL     1      13.231   9.444   3.351  0.00  0.00    +0.019 A 
ATOM     28  C   UNL     1      14.992   9.220   4.990  0.00  0.00    +0.019 A 
ATOM     29  C   UNL     1      14.588   9.457   3.677  0.00  0.00    +0.052 A 
BRANCH  29  30
ATOM      5  N   UNL     1      16.355   9.919   1.839  0.00  0.00    -0.191 NA
ATOM     30  C   UNL     1      15.562   9.712   2.663  0.00  0.00    +0.099 C 
ENDBRANCH  29  30
ENDBRANCH  15  19
TORSDOF 3
ENDMDL
MODEL 3
REMARK VINA RESULT:      -6.2     28.211     30.318
REMARK  Name = 7155417
REMARK  3 active torsions:
REMARK  status: ('A' for Active; 'I' for Inactive)
REMARK    1  A    between atoms: C_13  and  C_18
REMARK    2  A    between atoms: C_15  and  C_19
REMARK    3  A    between atoms: C_29  and  C_30
REMARK                            x       y       z     vdW  Elec       q    Type
REMARK                         _______ _______ _______ _____ _____    ______ ____
ROOT
ATOM      1  O   UNL     1      -6.393 -15.008  16.492  0.00  0.00    -0.268 OA
ATOM      2  O   UNL     1      -8.042 -10.807  18.813  0.00  0.00    -0.270 OA
ATOM      3  N   UNL     1      -6.169 -10.176  17.562  0.00  0.00    -0.297 N 
ATOM      4  N   UNL     1      -5.483 -12.887  16.095  0.00  0.00    -0.311 N 
ATOM      6  C   UNL     1      -4.184 -11.623  17.911  0.00  0.00    +0.027 C 
ATOM      7  C   UNL     1      -4.557 -10.582  15.715  0.00  0.00    +0.054 C 
ATOM      8  C   UNL     1      -3.485 -10.951  16.739  0.00  0.00    +0.018 C 
ATOM      9  C   UNL     1      -5.211 -10.672  18.548  0.00  0.00    +0.113 C 
ATOM     10  C   UNL     1      -4.832 -12.917  17.413  0.00  0.00    +0.130 C 
ATOM     11  C   UNL     1      -5.564  -9.600  16.352  0.00  0.00    +0.117 C 
ATOM     12  C   UNL     1      -5.291 -11.820  15.194  0.00  0.00    +0.034 A 
ATOM     13  C   UNL     1      -5.781 -11.904  13.930  0.00  0.00    +0.002 A 
ATOM     14  C   UNL     1      -6.205 -14.043  15.750  0.00  0.00    +0.252 A 
ATOM     15  C   UNL     1      -7.538 -10.325  17.798  0.00  0.00    +0.247 C 
ATOM     16  C   UNL     1      -6.536 -13.080  13.541  0.00  0.00    +0.015 A 
ATOM     17  C   UNL     1      -6.763 -14.091  14.380  0.00  0.00    +0.071 A 
ENDROOT
BRANCH  13  18
ATOM     18  C   UNL     1      -5.582 -10.819  12.944  0.00  0.00    -0.016 A 
ATOM     20  C   UNL     1      -6.545  -9.824  12.808  0.00  0.00    +0.008 A 
ATOM     21  C   UNL     1      -4.433 -10.802  12.158  0.00  0.00    +0.008 A 
ATOM     24  C   UNL     1      -6.357  -8.800  11.879  0.00  0.00    +0.001 A 
ATOM     25  C   UNL     1      -4.245  -9.779  11.228  0.00  0.00    +0.001 A 
ATOM     26  C   UNL     1      -5.207  -8.779  11.089  0.00  0.00    +0.000 A 
ENDBRANCH  13  18
BRANCH  15  19
ATOM     19  C   UNL     1      -8.474  -9.893  16.755  0.00  0.00    +0.037 A 
ATOM     22  C   UNL     1      -8.824 -10.771  15.731  0.00  0.00    +0.014 A 
ATOM     23  C   UNL     1      -9.011  -8.609  16.793  0.00  0.00    +0.014 A 
ATOM     27  C   UNL     1      -9.715 -10.360  14.739  0.00  0.00    +0.019 A 
ATOM     28  C   UNL     1      -9.902  -8.199  15.802  0.00  0.00    +0.019 A 
ATOM     29  C   UNL     1     -10.254  -9.074  14.775  0.00  0.00    +0.052 A 
BRANCH  29  30
ATOM      5  N   UNL     1     -11.906  -8.311  12.931  0.00  0.00    -0.191 NA
ATOM     30  C   UNL     1     -11.165  -8.653  13.758  0.00  0.00    +0.099 C 
ENDBRANCH  29  30
ENDBRANCH  15  19
TORSDOF 3
ENDMDL
MODEL 4
REMARK VINA RESULT:      -6.1     12.955     15.356
REMARK  Name = 7155417
REMARK  3 active torsions:
REMARK  status: ('A' for Active; 'I' for Inactive)
REMARK    1  A    between atoms: C_13  and  C_18
REMARK    2  A    between atoms: C_15  and  C_19
REMARK    3  A    between atoms: C_29  and  C_30
REMARK                            x       y       z     vdW  Elec       q    Type
REMARK                         _______ _______ _______ _____ _____    ______ ____
ROOT
ATOM      1  O   UNL     1       9.295  13.349   7.730  0.00  0.00    -0.268 OA
ATOM      2  O   UNL     1       7.133   9.729   4.905  0.00  0.00    -0.270 OA
ATOM      3  N   UNL     1       9.330   9.943   4.132  0.00  0.00    -0.297 N 
ATOM      4  N   UNL     1      10.476  12.077   6.157  0.00  0.00    -0.311 N 
ATOM      6  C   UNL     1      10.008  12.279   3.643  0.00  0.00    +0.027 C 
ATOM      7  C   UNL     1      11.683  10.673   4.458  0.00  0.00    +0.054 C 
ATOM      8  C   UNL     1      11.453  11.830   3.485  0.00  0.00    +0.018 C 
ATOM      9  C   UNL     1       9.043  11.126   3.322  0.00  0.00    +0.113 C 
ATOM     10  C   UNL     1       9.816  12.809   5.066  0.00  0.00    +0.130 C 
ATOM     11  C   UNL     1      10.734   9.507   4.107  0.00  0.00    +0.117 C 
ATOM     12  C   UNL     1      11.467  11.105   5.909  0.00  0.00    +0.034 A 
ATOM     13  C   UNL     1      12.162  10.567   6.946  0.00  0.00    +0.002 A 
ATOM     14  C   UNL     1      10.141  12.497   7.456  0.00  0.00    +0.252 A 
ATOM     15  C   UNL     1       8.307   9.362   4.887  0.00  0.00    +0.247 C 
ATOM     16  C   UNL     1      11.839  10.973   8.300  0.00  0.00    +0.015 A 
ATOM     17  C   UNL     1      10.885  11.865   8.569  0.00  0.00    +0.071 A 
ENDROOT
BRANCH  13  18
ATOM     18  C   UNL     1      13.226   9.563   6.731  0.00  0.00    -0.016 A 
ATOM     20  C   UNL     1      14.508   9.977   6.382  0.00  0.00    +0.008 A 
ATOM     21  C   UNL     1      12.938   8.209   6.880  0.00  0.00    +0.008 A 
ATOM     24  C   UNL     1      15.511   9.029   6.180  0.00  0.00    +0.001 A 
ATOM     25  C   UNL     1      13.942   7.261   6.678  0.00  0.00    +0.001 A 
ATOM     26  C   UNL     1      15.228   7.672   6.328  0.00  0.00    +0.000 A 
ENDBRANCH  13  18
BRANCH  15  19
ATOM     19  C   UNL     1       8.643   8.227   5.754  0.00  0.00    +0.037 A 
ATOM     22  C   UNL     1       8.567   6.929   5.256  0.00  0.00    +0.014 A 
ATOM     23  C   UNL     1       9.040   8.452   7.070  0.00  0.00    +0.014 A 
ATOM     27  C   UNL     1       8.887   5.849   6.079  0.00  0.00    +0.019 A 
ATOM     28  C   UNL     1       9.361   7.374   7.893  0.00  0.00    +0.019 A 
ATOM     29  C   UNL     1       9.284   6.072   7.398  0.00  0.00    +0.052 A 
BRANCH  29  30
ATOM      5  N   UNL     1       9.877   4.065   8.926  0.00  0.00    -0.191 NA
ATOM     30  C   UNL     1       9.611   4.966   8.241  0.00  0.00    +0.099 C 
ENDBRANCH  29  30
ENDBRANCH  15  19
TORSDOF 3
ENDMDL
MODEL 5
REMARK VINA RESULT:      -6.0     26.813     29.977
REMARK  Name = 7155417
REMARK  3 active torsions:
REMARK  status: ('A' for Active; 'I' for Inactive)
REMARK    1  A    between atoms: C_13  and  C_18
REMARK    2  A    between atoms: C_15  and  C_19
REMARK    3  A    between atoms: C_29  and  C_30
REMARK                            x       y       z     vdW  Elec       q    Type
REMARK                         _______ _______ _______ _____ _____    ______ ____
ROOT
ATOM      1  O   UNL     1      -7.270 -14.837  17.154  0.00  0.00    -0.268 OA
ATOM      2  O   UNL     1      -9.490 -10.670  15.295  0.00  0.00    -0.270 OA
ATOM      3  N   UNL     1      -7.541  -9.953  16.370  0.00  0.00    -0.297 N 
ATOM      4  N   UNL     1      -6.283 -12.715  17.241  0.00  0.00    -0.311 N 
ATOM      6  C   UNL     1      -7.274 -10.832  18.675  0.00  0.00    +0.027 C 
ATOM      7  C   UNL     1      -5.281 -10.411  17.297  0.00  0.00    +0.054 C 
ATOM      8  C   UNL     1      -5.846 -10.307  18.713  0.00  0.00    +0.018 C 
ATOM      9  C   UNL     1      -8.132 -10.002  17.706  0.00  0.00    +0.113 C 
ATOM     10  C   UNL     1      -7.237 -12.311  18.285  0.00  0.00    +0.130 C 
ATOM     11  C   UNL     1      -6.128  -9.547  16.337  0.00  0.00    +0.117 C 
ATOM     12  C   UNL     1      -5.250 -11.860  16.807  0.00  0.00    +0.034 A 
ATOM     13  C   UNL     1      -4.297 -12.327  15.958  0.00  0.00    +0.002 A 
ATOM     14  C   UNL     1      -6.397 -14.044  16.799  0.00  0.00    +0.252 A 
ATOM     15  C   UNL     1      -8.307 -10.332  15.264  0.00  0.00    +0.247 C 
ATOM     16  C   UNL     1      -4.385 -13.692  15.477  0.00  0.00    +0.015 A 
ATOM     17  C   UNL     1      -5.369 -14.514  15.843  0.00  0.00    +0.071 A 
ENDROOT
BRANCH  13  18
ATOM     18  C   UNL     1      -3.181 -11.473  15.495  0.00  0.00    -0.016 A 
ATOM     20  C   UNL     1      -2.215 -11.047  16.401  0.00  0.00    +0.008 A 
ATOM     21  C   UNL     1      -3.106 -11.101  14.156  0.00  0.00    +0.008 A 
ATOM     24  C   UNL     1      -1.162 -10.242  15.964  0.00  0.00    +0.001 A 
ATOM     25  C   UNL     1      -2.053 -10.297  13.718  0.00  0.00    +0.001 A 
ATOM     26  C   UNL     1      -1.082  -9.867  14.623  0.00  0.00    +0.000 A 
ENDBRANCH  13  18
BRANCH  15  19
ATOM     19  C   UNL     1      -7.663 -10.352  13.947  0.00  0.00    +0.037 A 
ATOM     22  C   UNL     1      -6.957 -11.481  13.538  0.00  0.00    +0.014 A 
ATOM     23  C   UNL     1      -7.762  -9.244  13.109  0.00  0.00    +0.014 A 
ATOM     27  C   UNL     1      -6.345 -11.500  12.285  0.00  0.00    +0.019 A 
ATOM     28  C   UNL     1      -7.151  -9.263  11.856  0.00  0.00    +0.019 A 
ATOM     29  C   UNL     1      -6.443 -10.391  11.443  0.00  0.00    +0.052 A 
BRANCH  29  30
ATOM      5  N   UNL     1      -5.302 -10.426   9.117  0.00  0.00    -0.191 NA
ATOM     30  C   UNL     1      -5.814 -10.411  10.160  0.00  0.00    +0.099 C 
ENDBRANCH  29  30
ENDBRANCH  15  19
TORSDOF 3
ENDMDL
MODEL 6
REMARK VINA RESULT:      -5.9     27.614     31.039
REMARK  Name = 7155417
REMARK  3 active torsions:
REMARK  status: ('A' for Active; 'I' for Inactive)
REMARK    1  A    between atoms: C_13  and  C_18
REMARK    2  A    between atoms: C_15  and  C_19
REMARK    3  A    between atoms: C_29  and  C_30
REMARK                            x       y       z     vdW  Elec       q    Type
REMARK                         _______ _______ _______ _____ _____    ______ ____
ROOT
ATOM      1  O   UNL     1     -10.141  -8.457  17.912  0.00  0.00    -0.268 OA
ATOM      2  O   UNL     1      -6.450 -10.809  20.482  0.00  0.00    -0.270 OA
ATOM      3  N   UNL     1      -7.431 -12.429  19.110  0.00  0.00    -0.297 N 
ATOM      4  N   UNL     1      -9.519 -10.680  17.512  0.00  0.00    -0.311 N 
ATOM      6  C   UNL     1      -9.907 -12.517  19.261  0.00  0.00    +0.027 C 
ATOM      7  C   UNL     1      -8.799 -13.057  17.132  0.00  0.00    +0.054 C 
ATOM      8  C   UNL     1      -9.949 -13.449  18.059  0.00  0.00    +0.018 C 
ATOM      9  C   UNL     1      -8.567 -12.650  20.003  0.00  0.00    +0.113 C 
ATOM     10  C   UNL     1     -10.153 -11.087  18.775  0.00  0.00    +0.130 C 
ATOM     11  C   UNL     1      -7.456 -13.227  17.875  0.00  0.00    +0.117 C 
ATOM     12  C   UNL     1      -8.942 -11.618  16.632  0.00  0.00    +0.034 A 
ATOM     13  C   UNL     1      -8.509 -11.221  15.407  0.00  0.00    +0.002 A 
ATOM     14  C   UNL     1      -9.635  -9.317  17.189  0.00  0.00    +0.252 A 
ATOM     15  C   UNL     1      -6.468 -11.475  19.447  0.00  0.00    +0.247 C 
ATOM     16  C   UNL     1      -8.608  -9.821  15.042  0.00  0.00    +0.015 A 
ATOM     17  C   UNL     1      -9.118  -8.904  15.865  0.00  0.00    +0.071 A 
ENDROOT
BRANCH  13  18
ATOM     18  C   UNL     1      -7.919 -12.175  14.443  0.00  0.00    -0.016 A 
ATOM     20  C   UNL     1      -8.749 -12.903  13.595  0.00  0.00    +0.008 A 
ATOM     21  C   UNL     1      -6.538 -12.339  14.390  0.00  0.00    +0.008 A 
ATOM     24  C   UNL     1      -8.192 -13.802  12.685  0.00  0.00    +0.001 A 
ATOM     25  C   UNL     1      -5.981 -13.238  13.480  0.00  0.00    +0.001 A 
ATOM     26  C   UNL     1      -6.809 -13.970  12.629  0.00  0.00    +0.000 A 
ENDBRANCH  13  18
BRANCH  15  19
ATOM     19  C   UNL     1      -5.384 -11.215  18.492  0.00  0.00    +0.037 A 
ATOM     22  C   UNL     1      -5.592 -10.338  17.430  0.00  0.00    +0.014 A 
ATOM     23  C   UNL     1      -4.153 -11.845  18.653  0.00  0.00    +0.014 A 
ATOM     27  C   UNL     1      -4.562 -10.091  16.523  0.00  0.00    +0.019 A 
ATOM     28  C   UNL     1      -3.122 -11.597  17.747  0.00  0.00    +0.019 A 
ATOM     29  C   UNL     1      -3.326 -10.720  16.682  0.00  0.00    +0.052 A 
BRANCH  29  30
ATOM      5  N   UNL     1      -1.414 -10.261  14.994  0.00  0.00    -0.191 NA
ATOM     30  C   UNL     1      -2.272 -10.467  15.751  0.00  0.00    +0.099 C 
ENDBRANCH  29  30
ENDBRANCH  15  19
TORSDOF 3
ENDMDL
MODEL 7
REMARK VINA RESULT:      -5.9     12.644     15.620
REMARK  Name = 7155417
REMARK  3 active torsions:
REMARK  status: ('A' for Active; 'I' for Inactive)
REMARK    1  A    between atoms: C_13  and  C_18
REMARK    2  A    between atoms: C_15  and  C_19
REMARK    3  A    between atoms: C_29  and  C_30
REMARK                            x       y       z     vdW  Elec       q    Type
REMARK                         _______ _______ _______ _____ _____    ______ ____
ROOT
ATOM      1  O   UNL     1      13.648   6.953   6.558  0.00  0.00    -0.268 OA
ATOM      2  O   UNL     1       9.664   6.490   3.449  0.00  0.00    -0.270 OA
ATOM      3  N   UNL     1       8.800   7.075   5.542  0.00  0.00    -0.297 N 
ATOM      4  N   UNL     1      11.458   7.485   7.197  0.00  0.00    -0.311 N 
ATOM      6  C   UNL     1       9.647   5.680   7.412  0.00  0.00    +0.027 C 
ATOM      7  C   UNL     1       9.086   8.040   7.814  0.00  0.00    +0.054 C 
ATOM      8  C   UNL     1       9.018   6.637   8.414  0.00  0.00    +0.018 C 
ATOM      9  C   UNL     1       8.887   5.716   6.076  0.00  0.00    +0.113 C 
ATOM     10  C   UNL     1      11.122   6.054   7.243  0.00  0.00    +0.130 C 
ATOM     11  C   UNL     1       8.292   8.076   6.491  0.00  0.00    +0.117 C 
ATOM     12  C   UNL     1      10.531   8.480   7.569  0.00  0.00    +0.034 A 
ATOM     13  C   UNL     1      10.930   9.776   7.663  0.00  0.00    +0.002 A 
ATOM     14  C   UNL     1      12.794   7.782   6.876  0.00  0.00    +0.252 A 
ATOM     15  C   UNL     1       9.239   7.331   4.241  0.00  0.00    +0.247 C 
ATOM     16  C   UNL     1      12.300  10.120   7.335  0.00  0.00    +0.015 A 
ATOM     17  C   UNL     1      13.191   9.207   6.948  0.00  0.00    +0.071 A 
ENDROOT
BRANCH  13  18
ATOM     18  C   UNL     1       9.998  10.849   8.073  0.00  0.00    -0.016 A 
ATOM     20  C   UNL     1       9.423  11.671   7.109  0.00  0.00    +0.008 A 
ATOM     21  C   UNL     1       9.703  11.030   9.421  0.00  0.00    +0.008 A 
ATOM     24  C   UNL     1       8.543  12.682   7.496  0.00  0.00    +0.001 A 
ATOM     25  C   UNL     1       8.823  12.041   9.808  0.00  0.00    +0.001 A 
ATOM     26  C   UNL     1       8.245  12.868   8.845  0.00  0.00    +0.000 A 
ENDBRANCH  13  18
BRANCH  15  19
ATOM     19  C   UNL     1       9.217   8.718   3.761  0.00  0.00    +0.037 A 
ATOM     22  C   UNL     1      10.304   9.553   4.007  0.00  0.00    +0.014 A 
ATOM     23  C   UNL     1       8.112   9.191   3.060  0.00  0.00    +0.014 A 
ATOM     27  C   UNL     1      10.284  10.871   3.551  0.00  0.00    +0.019 A 
ATOM     28  C   UNL     1       8.091  10.508   2.603  0.00  0.00    +0.019 A 
ATOM     29  C   UNL     1       9.177  11.348   2.848  0.00  0.00    +0.052 A 
BRANCH  29  30
ATOM      5  N   UNL     1       9.139  13.798   2.004  0.00  0.00    -0.191 NA
ATOM     30  C   UNL     1       9.156  12.699   2.382  0.00  0.00    +0.099 C 
ENDBRANCH  29  30
ENDBRANCH  15  19
TORSDOF 3
ENDMDL
MODEL 8
REMARK VINA RESULT:      -5.9     14.234     17.186
REMARK  Name = 7155417
REMARK  3 active torsions:
REMARK  status: ('A' for Active; 'I' for Inactive)
REMARK    1  A    between atoms: C_13  and  C_18
REMARK    2  A    between atoms: C_15  and  C_19
REMARK    3  A    between atoms: C_29  and  C_30
REMARK                            x       y       z     vdW  Elec       q    Type
REMARK                         _______ _______ _______ _____ _____    ______ ____
ROOT
ATOM      1  O   UNL     1      22.649  -1.970  28.329  0.00  0.00    -0.268 OA
ATOM      2  O   UNL     1      20.474  -6.555  28.263  0.00  0.00    -0.270 OA
ATOM      3  N   UNL     1      18.750  -5.004  27.954  0.00  0.00    -0.297 N 
ATOM      4  N   UNL     1      20.382  -2.304  27.840  0.00  0.00    -0.311 N 
ATOM      6  C   UNL     1      18.738  -3.160  29.614  0.00  0.00    +0.027 C 
ATOM      7  C   UNL     1      17.962  -2.734  27.319  0.00  0.00    +0.054 C 
ATOM      8  C   UNL     1      17.692  -2.422  28.790  0.00  0.00    +0.018 C 
ATOM      9  C   UNL     1      18.646  -4.676  29.374  0.00  0.00    +0.113 C 
ATOM     10  C   UNL     1      20.118  -2.605  29.255  0.00  0.00    +0.130 C 
ATOM     11  C   UNL     1      17.834  -4.255  27.081  0.00  0.00    +0.117 C 
ATOM     12  C   UNL     1      19.347  -2.251  26.884  0.00  0.00    +0.034 A 
ATOM     13  C   UNL     1      19.610  -1.817  25.624  0.00  0.00    +0.002 A 
ATOM     14  C   UNL     1      21.709  -1.955  27.533  0.00  0.00    +0.252 A 
ATOM     15  C   UNL     1      19.709  -5.928  27.530  0.00  0.00    +0.247 C 
ATOM     16  C   UNL     1      20.969  -1.453  25.270  0.00  0.00    +0.015 A 
ATOM     17  C   UNL     1      21.975  -1.523  26.142  0.00  0.00    +0.071 A 
ENDROOT
BRANCH  13  18
ATOM     18  C   UNL     1      18.551  -1.723  24.596  0.00  0.00    -0.016 A 
ATOM     20  C   UNL     1      17.643  -0.669  24.633  0.00  0.00    +0.008 A 
ATOM     21  C   UNL     1      18.469  -2.690  23.598  0.00  0.00    +0.008 A 
ATOM     24  C   UNL     1      16.645  -0.580  23.663  0.00  0.00    +0.001 A 
ATOM     25  C   UNL     1      17.470  -2.601  22.628  0.00  0.00    +0.001 A 
ATOM     26  C   UNL     1      16.558  -1.547  22.661  0.00  0.00    +0.000 A 
ENDBRANCH  13  18
BRANCH  15  19
ATOM     19  C   UNL     1      19.845  -6.176  26.090  0.00  0.00    +0.037 A 
ATOM     22  C   UNL     1      20.717  -5.398  25.332  0.00  0.00    +0.014 A 
ATOM     23  C   UNL     1      19.105  -7.190  25.488  0.00  0.00    +0.014 A 
ATOM     27  C   UNL     1      20.848  -5.634  23.964  0.00  0.00    +0.019 A 
ATOM     28  C   UNL     1      19.236  -7.427  24.120  0.00  0.00    +0.019 A 
ATOM     29  C   UNL     1      20.107  -6.649  23.358  0.00  0.00    +0.052 A 
BRANCH  29  30
ATOM      5  N   UNL     1      20.347  -7.086  20.815  0.00  0.00    -0.191 NA
ATOM     30  C   UNL     1      20.240  -6.890  21.955  0.00  0.00    +0.099 C 
ENDBRANCH  29  30
ENDBRANCH  15  19
TORSDOF 3
ENDMDL
MODEL 9
REMARK VINA RESULT:      -5.8     24.473     27.149
REMARK  Name = 7155417
REMARK  3 active torsions:
REMARK  status: ('A' for Active; 'I' for Inactive)
REMARK    1  A    between atoms: C_13  and  C_18
REMARK    2  A    between atoms: C_15  and  C_19
REMARK    3  A    between atoms: C_29  and  C_30
REMARK                            x       y       z     vdW  Elec       q    Type
REMARK                         _______ _______ _______ _____ _____    ______ ____
ROOT
ATOM      1  O   UNL     1     -14.681  10.903  15.635  0.00  0.00    -0.268 OA
ATOM      2  O   UNL     1     -11.030   7.704  17.115  0.00  0.00    -0.270 OA
ATOM      3  N   UNL     1     -10.715   9.672  18.339  0.00  0.00    -0.297 N 
ATOM      4  N   UNL     1     -13.194  11.378  17.382  0.00  0.00    -0.311 N 
ATOM      6  C   UNL     1     -10.689  11.731  16.953  0.00  0.00    +0.027 C 
ATOM      7  C   UNL     1     -11.570  11.822  19.248  0.00  0.00    +0.054 C 
ATOM      8  C   UNL     1     -10.742  12.583  18.214  0.00  0.00    +0.018 C 
ATOM      9  C   UNL     1     -10.038  10.369  17.246  0.00  0.00    +0.113 C 
ATOM     10  C   UNL     1     -12.111  11.582  16.408  0.00  0.00    +0.130 C 
ATOM     11  C   UNL     1     -10.892  10.470  19.561  0.00  0.00    +0.117 C 
ATOM     12  C   UNL     1     -13.002  11.587  18.763  0.00  0.00    +0.034 A 
ATOM     13  C   UNL     1     -14.065  11.542  19.609  0.00  0.00    +0.002 A 
ATOM     14  C   UNL     1     -14.454  11.082  16.833  0.00  0.00    +0.252 A 
ATOM     15  C   UNL     1     -11.180   8.370  18.140  0.00  0.00    +0.247 C 
ATOM     16  C   UNL     1     -15.379  11.234  19.078  0.00  0.00    +0.015 A 
ATOM     17  C   UNL     1     -15.587  10.999  17.782  0.00  0.00    +0.071 A 
ENDROOT
BRANCH  13  18
ATOM     18  C   UNL     1     -13.915  11.779  21.061  0.00  0.00    -0.016 A 
ATOM     20  C   UNL     1     -13.998  13.074  21.562  0.00  0.00    +0.008 A 
ATOM     21  C   UNL     1     -13.690  10.704  21.916  0.00  0.00    +0.008 A 
ATOM     24  C   UNL     1     -13.856  13.297  22.932  0.00  0.00    +0.001 A 
ATOM     25  C   UNL     1     -13.549  10.926  23.286  0.00  0.00    +0.001 A 
ATOM     26  C   UNL     1     -13.631  12.223  23.794  0.00  0.00    +0.000 A 
ENDBRANCH  13  18
BRANCH  15  19
ATOM     19  C   UNL     1     -11.927   7.726  19.226  0.00  0.00    +0.037 A 
ATOM     22  C   UNL     1     -11.251   6.971  20.181  0.00  0.00    +0.014 A 
ATOM     23  C   UNL     1     -13.310   7.874  19.298  0.00  0.00    +0.014 A 
ATOM     27  C   UNL     1     -11.961   6.360  21.214  0.00  0.00    +0.019 A 
ATOM     28  C   UNL     1     -14.021   7.264  20.331  0.00  0.00    +0.019 A 
ATOM     29  C   UNL     1     -13.347   6.507  21.289  0.00  0.00    +0.052 A 
BRANCH  29  30
ATOM      5  N   UNL     1     -14.665   5.369  23.208  0.00  0.00    -0.191 NA
ATOM     30  C   UNL     1     -14.074   5.879  22.347  0.00  0.00    +0.099 C 
ENDBRANCH  29  30
ENDBRANCH  15  19
TORSDOF 3
ENDMDL
MODEL 10
REMARK VINA RESULT:      -5.8     16.961     19.862
REMARK  Name = 7155417
REMARK  3 active torsions:
REMARK  status: ('A' for Active; 'I' for Inactive)
REMARK    1  A    between atoms: C_13  and  C_18
REMARK    2  A    between atoms: C_15  and  C_19
REMARK    3  A    between atoms: C_29  and  C_30
REMARK                            x       y       z     vdW  Elec       q    Type
REMARK                         _______ _______ _______ _____ _____    ______ ____
ROOT
ATOM      1  O   UNL     1      15.625   6.607   1.608  0.00  0.00    -0.268 OA
ATOM      2  O   UNL     1      12.162   6.023  -2.055  0.00  0.00    -0.270 OA
ATOM      3  N   UNL     1      11.404   4.774  -0.228  0.00  0.00    -0.297 N 
ATOM      4  N   UNL     1      13.605   5.466   1.928  0.00  0.00    -0.311 N 
ATOM      6  C   UNL     1      13.111   3.250   0.733  0.00  0.00    +0.027 C 
ATOM      7  C   UNL     1      11.418   4.260   2.203  0.00  0.00    +0.054 C 
ATOM      8  C   UNL     1      12.202   2.979   1.923  0.00  0.00    +0.018 C 
ATOM      9  C   UNL     1      12.284   3.639  -0.504  0.00  0.00    +0.113 C 
ATOM     10  C   UNL     1      14.108   4.344   1.123  0.00  0.00    +0.130 C 
ATOM     11  C   UNL     1      10.564   4.624   0.969  0.00  0.00    +0.117 C 
ATOM     12  C   UNL     1      12.345   5.424   2.559  0.00  0.00    +0.034 A 
ATOM     13  C   UNL     1      11.985   6.412   3.420  0.00  0.00    +0.002 A 
ATOM     14  C   UNL     1      14.509   6.525   2.123  0.00  0.00    +0.252 A 
ATOM     15  C   UNL     1      11.458   5.901  -1.053  0.00  0.00    +0.247 C 
ATOM     16  C   UNL     1      12.891   7.522   3.641  0.00  0.00    +0.015 A 
ATOM     17  C   UNL     1      14.075   7.608   3.034  0.00  0.00    +0.071 A 
ENDROOT
BRANCH  13  18
ATOM     18  C   UNL     1      10.683   6.396   4.123  0.00  0.00    -0.016 A 
ATOM     20  C   UNL     1      10.514   5.589   5.244  0.00  0.00    +0.008 A 
ATOM     21  C   UNL     1       9.637   7.187   3.658  0.00  0.00    +0.008 A 
ATOM     24  C   UNL     1       9.286   5.575   5.908  0.00  0.00    +0.001 A 
ATOM     25  C   UNL     1       8.410   7.173   4.321  0.00  0.00    +0.001 A 
ATOM     26  C   UNL     1       8.235   6.366   5.445  0.00  0.00    +0.000 A 
ENDBRANCH  13  18
BRANCH  15  19
ATOM     19  C   UNL     1      10.623   7.056  -0.704  0.00  0.00    +0.037 A 
ATOM     22  C   UNL     1      11.075   7.978   0.238  0.00  0.00    +0.014 A 
ATOM     23  C   UNL     1       9.385   7.228  -1.317  0.00  0.00    +0.014 A 
ATOM     27  C   UNL     1      10.283   9.077   0.569  0.00  0.00    +0.019 A 
ATOM     28  C   UNL     1       8.593   8.327  -0.987  0.00  0.00    +0.019 A 
ATOM     29  C   UNL     1       9.041   9.252  -0.045  0.00  0.00    +0.052 A 
BRANCH  29  30
ATOM      5  N   UNL     1       7.568  11.292   0.573  0.00  0.00    -0.191 NA
ATOM     30  C   UNL     1       8.229  10.377   0.297  0.00  0.00    +0.099 C 
ENDBRANCH  29  30
ENDBRANCH  15  19
TORSDOF 3
ENDMDL
