MODEL 1
REMARK VINA RESULT:      -7.2      0.000      0.000
REMARK  Name = 11941403
REMARK  5 active torsions:
REMARK  status: ('A' for Active; 'I' for Inactive)
REMARK    1  A    between atoms: S_1  and  C_31
REMARK    2  A    between atoms: S_1  and  C_32
REMARK    3  A    between atoms: N_6  and  C_8
REMARK    4  A    between atoms: C_11  and  C_17
REMARK    5  A    between atoms: C_24  and  C_26
REMARK                            x       y       z     vdW  Elec       q    Type
REMARK                         _______ _______ _______ _____ _____    ______ ____
ROOT
ATOM      3  O   UNL     1      10.620   9.082  20.623  0.00  0.00    -0.273 OA
ATOM      4  O   UNL     1      15.369  11.233  19.853  0.00  0.00    -0.270 OA
ATOM      5  N   UNL     1      13.350  10.908  20.905  0.00  0.00    -0.284 N 
ATOM      7  N   UNL     1      12.660   8.091  20.410  0.00  0.00    -0.283 N 
ATOM      8  C   UNL     1      11.471  11.167  22.318  0.00  0.00    +0.104 C 
ATOM      9  C   UNL     1      12.465  10.139  21.761  0.00  0.00    +0.183 C 
ATOM     10  C   UNL     1      11.447  12.257  21.244  0.00  0.00    +0.043 C 
ATOM     12  C   UNL     1      12.877  12.273  20.727  0.00  0.00    +0.111 C 
ATOM     18  C   UNL     1      11.831   9.096  20.860  0.00  0.00    +0.240 C 
ATOM     19  C   UNL     1      14.579  10.493  20.439  0.00  0.00    +0.249 C 
ATOM     20  C   UNL     1      14.957   9.070  20.635  0.00  0.00    +0.059 A 
ATOM     21  C   UNL     1      14.064   7.990  20.527  0.00  0.00    +0.046 A 
ATOM     22  C   UNL     1      16.334   8.816  20.770  0.00  0.00    +0.023 A 
ATOM     23  C   UNL     1      14.581   6.684  20.490  0.00  0.00    +0.024 A 
ATOM     24  C   UNL     1      16.824   7.510  20.778  0.00  0.00    -0.017 A 
ATOM     25  C   UNL     1      15.948   6.443  20.626  0.00  0.00    +0.010 A 
ATOM     34  H   UNL     1      12.189   7.281  20.014  0.00  0.00    +0.155 HD
ENDROOT
BRANCH  24  26
ATOM     26  C   UNL     1      18.243   7.268  20.923  0.00  0.00    -0.018 A 
ATOM     27  C   UNL     1      19.054   8.222  21.537  0.00  0.00    +0.009 A 
ATOM     28  C   UNL     1      18.800   6.080  20.448  0.00  0.00    +0.009 A 
ATOM     29  C   UNL     1      20.422   7.988  21.678  0.00  0.00    +0.015 A 
ATOM     30  C   UNL     1      20.168   5.847  20.589  0.00  0.00    +0.015 A 
ATOM     31  C   UNL     1      20.979   6.801  21.203  0.00  0.00    +0.008 A 
BRANCH  31   1
ATOM      1  S   UNL     1      22.727   6.503  21.382  0.00  0.00    -0.129 S 
ATOM     32  C   UNL     1      22.928   4.935  20.490  0.00  0.00    +0.090 C 
ENDBRANCH  31   1
ENDBRANCH  24  26
BRANCH   8   6
ATOM      2  O   UNL     1       9.942  12.729  24.229  0.00  0.00    -0.276 OA
ATOM      6  N   UNL     1      11.924  11.692  23.585  0.00  0.00    -0.310 N 
ATOM     17  C   UNL     1      11.116  12.429  24.433  0.00  0.00    +0.216 C 
ATOM     33  H   UNL     1      12.863  11.449  23.890  0.00  0.00    +0.149 HD
BRANCH  17  11
ATOM     11  C   UNL     1      11.826  12.828  25.690  0.00  0.00    +0.075 C 
ATOM     13  C   UNL     1      11.303  14.179  26.191  0.00  0.00    +0.013 C 
ATOM     14  C   UNL     1      13.321  13.019  25.428  0.00  0.00    +0.013 C 
ATOM     15  C   UNL     1      12.525  15.085  26.301  0.00  0.00    +0.001 C 
ATOM     16  C   UNL     1      13.496  14.524  25.277  0.00  0.00    +0.001 C 
ENDBRANCH  17  11
ENDBRANCH   8   6
TORSDOF 4
ENDMDL
MODEL 2
REMARK VINA RESULT:      -7.2     16.266     18.473
REMARK  Name = 11941403
REMARK  5 active torsions:
REMARK  status: ('A' for Active; 'I' for Inactive)
REMARK    1  A    between atoms: S_1  and  C_31
REMARK    2  A    between atoms: S_1  and  C_32
REMARK    3  A    between atoms: N_6  and  C_8
REMARK    4  A    between atoms: C_11  and  C_17
REMARK    5  A    between atoms: C_24  and  C_26
REMARK                            x       y       z     vdW  Elec       q    Type
REMARK                         _______ _______ _______ _____ _____    ______ ____
ROOT
ATOM      3  O   UNL     1       9.670   9.255   5.362  0.00  0.00    -0.273 OA
ATOM      4  O   UNL     1      13.516   6.363   7.510  0.00  0.00    -0.270 OA
ATOM      5  N   UNL     1      11.702   6.786   6.161  0.00  0.00    -0.284 N 
ATOM      7  N   UNL     1      11.915   9.631   5.441  0.00  0.00    -0.283 N 
ATOM      8  C   UNL     1       9.842   6.515   4.725  0.00  0.00    +0.104 C 
ATOM      9  C   UNL     1      11.103   7.356   4.968  0.00  0.00    +0.183 C 
ATOM     10  C   UNL     1       9.477   6.010   6.122  0.00  0.00    +0.043 C 
ATOM     12  C   UNL     1      10.829   5.804   6.787  0.00  0.00    +0.111 C 
ATOM     18  C   UNL     1      10.818   8.807   5.308  0.00  0.00    +0.240 C 
ATOM     19  C   UNL     1      12.997   6.991   6.587  0.00  0.00    +0.249 C 
ATOM     20  C   UNL     1      13.798   8.043   5.910  0.00  0.00    +0.059 A 
ATOM     21  C   UNL     1      13.282   9.278   5.478  0.00  0.00    +0.046 A 
ATOM     22  C   UNL     1      15.187   7.823   5.868  0.00  0.00    +0.023 A 
ATOM     23  C   UNL     1      14.178  10.283   5.077  0.00  0.00    +0.024 A 
ATOM     24  C   UNL     1      16.056   8.818   5.423  0.00  0.00    -0.017 A 
ATOM     25  C   UNL     1      15.552  10.054   5.038  0.00  0.00    +0.010 A 
ATOM     34  H   UNL     1      11.715  10.628   5.430  0.00  0.00    +0.155 HD
ENDROOT
BRANCH  24  26
ATOM     26  C   UNL     1      17.481   8.572   5.381  0.00  0.00    -0.018 A 
ATOM     27  C   UNL     1      18.270   8.855   6.496  0.00  0.00    +0.009 A 
ATOM     28  C   UNL     1      18.066   8.050   4.227  0.00  0.00    +0.009 A 
ATOM     29  C   UNL     1      19.645   8.617   6.457  0.00  0.00    +0.015 A 
ATOM     30  C   UNL     1      19.441   7.812   4.188  0.00  0.00    +0.015 A 
ATOM     31  C   UNL     1      20.230   8.096   5.303  0.00  0.00    +0.008 A 
BRANCH  31   1
ATOM      1  S   UNL     1      21.985   7.793   5.253  0.00  0.00    -0.129 S 
ATOM     32  C   UNL     1      22.101   6.501   3.982  0.00  0.00    +0.090 C 
ENDBRANCH  31   1
ENDBRANCH  24  26
BRANCH   8   6
ATOM      2  O   UNL     1       9.921   6.585   1.824  0.00  0.00    -0.276 OA
ATOM      6  N   UNL     1      10.118   5.417   3.828  0.00  0.00    -0.310 N 
ATOM     17  C   UNL     1      10.134   5.550   2.450  0.00  0.00    +0.216 C 
ATOM     33  H   UNL     1      10.375   4.523   4.237  0.00  0.00    +0.149 HD
BRANCH  17  11
ATOM     11  C   UNL     1      10.472   4.265   1.759  0.00  0.00    +0.075 C 
ATOM     13  C   UNL     1      11.572   3.522   2.526  0.00  0.00    +0.013 C 
ATOM     14  C   UNL     1      11.031   4.533   0.361  0.00  0.00    +0.013 C 
ATOM     15  C   UNL     1      12.697   3.293   1.522  0.00  0.00    +0.001 C 
ATOM     16  C   UNL     1      12.541   4.426   0.524  0.00  0.00    +0.001 C 
ENDBRANCH  17  11
ENDBRANCH   8   6
TORSDOF 4
ENDMDL
MODEL 3
REMARK VINA RESULT:      -7.1      3.775      6.315
REMARK  Name = 11941403
REMARK  5 active torsions:
REMARK  status: ('A' for Active; 'I' for Inactive)
REMARK    1  A    between atoms: S_1  and  C_31
REMARK    2  A    between atoms: S_1  and  C_32
REMARK    3  A    between atoms: N_6  and  C_8
REMARK    4  A    between atoms: C_11  and  C_17
REMARK    5  A    between atoms: C_24  and  C_26
REMARK                            x       y       z     vdW  Elec       q    Type
REMARK                         _______ _______ _______ _____ _____    ______ ____
ROOT
ATOM      3  O   UNL     1      13.821  10.562  20.908  0.00  0.00    -0.273 OA
ATOM      4  O   UNL     1      15.623   5.829  19.451  0.00  0.00    -0.270 OA
ATOM      5  N   UNL     1      14.769   7.943  19.146  0.00  0.00    -0.284 N 
ATOM      7  N   UNL     1      15.787   9.526  21.407  0.00  0.00    -0.283 N 
ATOM      8  C   UNL     1      13.796   9.868  18.176  0.00  0.00    +0.104 C 
ATOM      9  C   UNL     1      14.916   9.386  19.109  0.00  0.00    +0.183 C 
ATOM     10  C   UNL     1      12.731   8.777  18.305  0.00  0.00    +0.043 C 
ATOM     12  C   UNL     1      13.549   7.507  18.483  0.00  0.00    +0.111 C 
ATOM     18  C   UNL     1      14.760   9.849  20.546  0.00  0.00    +0.240 C 
ATOM     19  C   UNL     1      15.721   7.049  19.588  0.00  0.00    +0.249 C 
ATOM     20  C   UNL     1      16.916   7.588  20.288  0.00  0.00    +0.059 A 
ATOM     21  C   UNL     1      16.889   8.672  21.182  0.00  0.00    +0.046 A 
ATOM     22  C   UNL     1      18.097   6.836  20.150  0.00  0.00    +0.023 A 
ATOM     23  C   UNL     1      18.026   8.933  21.965  0.00  0.00    +0.024 A 
ATOM     24  C   UNL     1      19.231   7.140  20.901  0.00  0.00    -0.017 A 
ATOM     25  C   UNL     1      19.192   8.182  21.819  0.00  0.00    +0.010 A 
ATOM     34  H   UNL     1      15.793  10.034  22.288  0.00  0.00    +0.155 HD
ENDROOT
BRANCH  24  26
ATOM     26  C   UNL     1      20.438   6.359  20.743  0.00  0.00    -0.018 A 
ATOM     27  C   UNL     1      21.673   6.998  20.640  0.00  0.00    +0.009 A 
ATOM     28  C   UNL     1      20.366   4.966  20.692  0.00  0.00    +0.009 A 
ATOM     29  C   UNL     1      22.838   6.245  20.487  0.00  0.00    +0.015 A 
ATOM     30  C   UNL     1      21.531   4.213  20.539  0.00  0.00    +0.015 A 
ATOM     31  C   UNL     1      22.767   4.852  20.437  0.00  0.00    +0.008 A 
BRANCH  31   1
ATOM      1  S   UNL     1      24.254   3.891  20.241  0.00  0.00    -0.129 S 
ATOM     32  C   UNL     1      23.754   2.291  20.939  0.00  0.00    +0.090 C 
ENDBRANCH  31   1
ENDBRANCH  24  26
BRANCH   8   6
ATOM      2  O   UNL     1      14.884  12.223  16.873  0.00  0.00    -0.276 OA
ATOM      6  N   UNL     1      14.269   9.979  16.815  0.00  0.00    -0.310 N 
ATOM     17  C   UNL     1      14.774  11.152  16.283  0.00  0.00    +0.216 C 
ATOM     33  H   UNL     1      14.289   9.135  16.250  0.00  0.00    +0.149 HD
BRANCH  17  11
ATOM     11  C   UNL     1      15.217  10.985  14.861  0.00  0.00    +0.075 C 
ATOM     13  C   UNL     1      16.667  11.455  14.697  0.00  0.00    +0.013 C 
ATOM     14  C   UNL     1      14.376  11.858  13.928  0.00  0.00    +0.013 C 
ATOM     15  C   UNL     1      16.639  12.516  13.601  0.00  0.00    +0.001 C 
ATOM     16  C   UNL     1      15.236  13.089  13.674  0.00  0.00    +0.001 C 
ENDBRANCH  17  11
ENDBRANCH   8   6
TORSDOF 4
ENDMDL
MODEL 4
REMARK VINA RESULT:      -7.1     28.274     31.619
REMARK  Name = 11941403
REMARK  5 active torsions:
REMARK  status: ('A' for Active; 'I' for Inactive)
REMARK    1  A    between atoms: S_1  and  C_31
REMARK    2  A    between atoms: S_1  and  C_32
REMARK    3  A    between atoms: N_6  and  C_8
REMARK    4  A    between atoms: C_11  and  C_17
REMARK    5  A    between atoms: C_24  and  C_26
REMARK                            x       y       z     vdW  Elec       q    Type
REMARK                         _______ _______ _______ _____ _____    ______ ____
ROOT
ATOM      3  O   UNL     1     -18.545   8.017  22.157  0.00  0.00    -0.273 OA
ATOM      4  O   UNL     1     -16.387   3.269  22.911  0.00  0.00    -0.270 OA
ATOM      5  N   UNL     1     -16.451   5.474  22.259  0.00  0.00    -0.284 N 
ATOM      7  N   UNL     1     -18.402   6.757  24.049  0.00  0.00    -0.283 N 
ATOM      8  C   UNL     1     -15.904   7.559  21.286  0.00  0.00    +0.104 C 
ATOM      9  C   UNL     1     -16.448   6.894  22.558  0.00  0.00    +0.183 C 
ATOM     10  C   UNL     1     -16.276   6.570  20.180  0.00  0.00    +0.043 C 
ATOM     12  C   UNL     1     -16.145   5.216  20.860  0.00  0.00    +0.111 C 
ATOM     18  C   UNL     1     -17.892   7.249  22.866  0.00  0.00    +0.240 C 
ATOM     19  C   UNL     1     -16.553   4.458  23.185  0.00  0.00    +0.249 C 
ATOM     20  C   UNL     1     -16.906   4.818  24.583  0.00  0.00    +0.059 A 
ATOM     21  C   UNL     1     -17.826   5.821  24.935  0.00  0.00    +0.046 A 
ATOM     22  C   UNL     1     -16.395   3.968  25.581  0.00  0.00    +0.023 A 
ATOM     23  C   UNL     1     -18.260   5.904  26.269  0.00  0.00    +0.024 A 
ATOM     24  C   UNL     1     -16.804   4.096  26.908  0.00  0.00    -0.017 A 
ATOM     25  C   UNL     1     -17.746   5.058  27.250  0.00  0.00    +0.010 A 
ATOM     34  H   UNL     1     -19.270   7.187  24.360  0.00  0.00    +0.155 HD
ENDROOT
BRANCH  24  26
ATOM     26  C   UNL     1     -16.264   3.217  27.922  0.00  0.00    -0.018 A 
ATOM     27  C   UNL     1     -15.605   3.751  29.029  0.00  0.00    +0.009 A 
ATOM     28  C   UNL     1     -16.403   1.835  27.793  0.00  0.00    +0.009 A 
ATOM     29  C   UNL     1     -15.084   2.903  30.007  0.00  0.00    +0.015 A 
ATOM     30  C   UNL     1     -15.882   0.987  28.771  0.00  0.00    +0.015 A 
ATOM     31  C   UNL     1     -15.223   1.521  29.878  0.00  0.00    +0.008 A 
BRANCH  31   1
ATOM      1  S   UNL     1     -14.558   0.439  31.127  0.00  0.00    -0.129 S 
ATOM     32  C   UNL     1     -14.668   1.478  32.613  0.00  0.00    +0.090 C 
ENDBRANCH  31   1
ENDBRANCH  24  26
BRANCH   8   6
ATOM      2  O   UNL     1     -14.342   9.789  20.279  0.00  0.00    -0.276 OA
ATOM      6  N   UNL     1     -14.472   7.736  21.368  0.00  0.00    -0.310 N 
ATOM     17  C   UNL     1     -13.815   8.842  20.856  0.00  0.00    +0.216 C 
ATOM     33  H   UNL     1     -13.937   7.044  21.885  0.00  0.00    +0.149 HD
BRANCH  17  11
ATOM     11  C   UNL     1     -12.338   8.787  21.098  0.00  0.00    +0.075 C 
ATOM     13  C   UNL     1     -11.627   9.886  20.301  0.00  0.00    +0.013 C 
ATOM     14  C   UNL     1     -11.759   7.459  20.607  0.00  0.00    +0.013 C 
ATOM     15  C   UNL     1     -10.586   9.173  19.444  0.00  0.00    +0.001 C 
ATOM     16  C   UNL     1     -11.161   7.782  19.244  0.00  0.00    +0.001 C 
ENDBRANCH  17  11
ENDBRANCH   8   6
TORSDOF 4
ENDMDL
MODEL 5
REMARK VINA RESULT:      -7.1     28.841     30.933
REMARK  Name = 11941403
REMARK  5 active torsions:
REMARK  status: ('A' for Active; 'I' for Inactive)
REMARK    1  A    between atoms: S_1  and  C_31
REMARK    2  A    between atoms: S_1  and  C_32
REMARK    3  A    between atoms: N_6  and  C_8
REMARK    4  A    between atoms: C_11  and  C_17
REMARK    5  A    between atoms: C_24  and  C_26
REMARK                            x       y       z     vdW  Elec       q    Type
REMARK                         _______ _______ _______ _____ _____    ______ ____
ROOT
ATOM      3  O   UNL     1      -1.456 -11.277  14.663  0.00  0.00    -0.273 OA
ATOM      4  O   UNL     1      -5.721 -12.834  11.989  0.00  0.00    -0.270 OA
ATOM      5  N   UNL     1      -4.546 -12.018  13.790  0.00  0.00    -0.284 N 
ATOM      7  N   UNL     1      -2.243 -10.598  12.637  0.00  0.00    -0.283 N 
ATOM      8  C   UNL     1      -3.955 -11.305  15.966  0.00  0.00    +0.104 C 
ATOM      9  C   UNL     1      -3.838 -10.953  14.477  0.00  0.00    +0.183 C 
ATOM     10  C   UNL     1      -4.113 -12.826  15.962  0.00  0.00    +0.043 C 
ATOM     12  C   UNL     1      -4.918 -13.093  14.699  0.00  0.00    +0.111 C 
ATOM     18  C   UNL     1      -2.418 -10.998  13.944  0.00  0.00    +0.240 C 
ATOM     19  C   UNL     1      -4.984 -11.981  12.483  0.00  0.00    +0.249 C 
ATOM     20  C   UNL     1      -4.519 -10.864  11.621  0.00  0.00    +0.059 A 
ATOM     21  C   UNL     1      -3.225 -10.315  11.663  0.00  0.00    +0.046 A 
ATOM     22  C   UNL     1      -5.404 -10.470  10.601  0.00  0.00    +0.023 A 
ATOM     23  C   UNL     1      -2.829  -9.437  10.641  0.00  0.00    +0.024 A 
ATOM     24  C   UNL     1      -5.007  -9.560   9.622  0.00  0.00    -0.017 A 
ATOM     25  C   UNL     1      -3.715  -9.052   9.634  0.00  0.00    +0.010 A 
ATOM     34  H   UNL     1      -1.281 -10.404  12.365  0.00  0.00    +0.155 HD
ENDROOT
BRANCH  24  26
ATOM     26  C   UNL     1      -5.932  -9.163   8.582  0.00  0.00    -0.018 A 
ATOM     27  C   UNL     1      -6.940  -8.241   8.862  0.00  0.00    +0.009 A 
ATOM     28  C   UNL     1      -5.816  -9.703   7.301  0.00  0.00    +0.009 A 
ATOM     29  C   UNL     1      -7.832  -7.857   7.860  0.00  0.00    +0.015 A 
ATOM     30  C   UNL     1      -6.708  -9.319   6.299  0.00  0.00    +0.015 A 
ATOM     31  C   UNL     1      -7.716  -8.397   6.578  0.00  0.00    +0.008 A 
BRANCH  31   1
ATOM      1  S   UNL     1      -8.855  -7.907   5.299  0.00  0.00    -0.129 S 
ATOM     32  C   UNL     1     -10.061  -6.924   6.236  0.00  0.00    +0.090 C 
ENDBRANCH  31   1
ENDBRANCH  24  26
BRANCH   8   6
ATOM      2  O   UNL     1      -4.683 -11.242  18.776  0.00  0.00    -0.276 OA
ATOM      6  N   UNL     1      -5.104 -10.662  16.561  0.00  0.00    -0.310 N 
ATOM     17  C   UNL     1      -5.367 -10.686  17.919  0.00  0.00    +0.216 C 
ATOM     33  H   UNL     1      -5.706 -10.113  15.954  0.00  0.00    +0.149 HD
BRANCH  17  11
ATOM     11  C   UNL     1      -6.605  -9.921  18.272  0.00  0.00    +0.075 C 
ATOM     13  C   UNL     1      -7.432 -10.694  19.307  0.00  0.00    +0.013 C 
ATOM     14  C   UNL     1      -7.504  -9.754  17.045  0.00  0.00    +0.013 C 
ATOM     15  C   UNL     1      -8.816 -10.864  18.691  0.00  0.00    +0.001 C 
ATOM     16  C   UNL     1      -8.563 -10.838  17.195  0.00  0.00    +0.001 C 
ENDBRANCH  17  11
ENDBRANCH   8   6
TORSDOF 4
ENDMDL
MODEL 6
REMARK VINA RESULT:      -7.0     28.365     31.831
REMARK  Name = 11941403
REMARK  5 active torsions:
REMARK  status: ('A' for Active; 'I' for Inactive)
REMARK    1  A    between atoms: S_1  and  C_31
REMARK    2  A    between atoms: S_1  and  C_32
REMARK    3  A    between atoms: N_6  and  C_8
REMARK    4  A    between atoms: C_11  and  C_17
REMARK    5  A    between atoms: C_24  and  C_26
REMARK                            x       y       z     vdW  Elec       q    Type
REMARK                         _______ _______ _______ _____ _____    ______ ____
ROOT
ATOM      3  O   UNL     1      -0.688 -11.052  15.267  0.00  0.00    -0.273 OA
ATOM      4  O   UNL     1      -5.769  -9.788  14.671  0.00  0.00    -0.270 OA
ATOM      5  N   UNL     1      -3.803 -10.886  14.203  0.00  0.00    -0.284 N 
ATOM      7  N   UNL     1      -2.392 -11.086  16.777  0.00  0.00    -0.283 N 
ATOM      8  C   UNL     1      -2.143 -12.193  13.140  0.00  0.00    +0.104 C 
ATOM      9  C   UNL     1      -2.808 -11.902  14.492  0.00  0.00    +0.183 C 
ATOM     10  C   UNL     1      -2.329 -10.888  12.364  0.00  0.00    +0.043 C 
ATOM     12  C   UNL     1      -3.682 -10.384  12.842  0.00  0.00    +0.111 C 
ATOM     18  C   UNL     1      -1.874 -11.279  15.515  0.00  0.00    +0.240 C 
ATOM     19  C   UNL     1      -4.855 -10.535  15.022  0.00  0.00    +0.249 C 
ATOM     20  C   UNL     1      -4.872 -11.069  16.408  0.00  0.00    +0.059 A 
ATOM     21  C   UNL     1      -3.729 -11.225  17.211  0.00  0.00    +0.046 A 
ATOM     22  C   UNL     1      -6.145 -11.262  16.974  0.00  0.00    +0.023 A 
ATOM     23  C   UNL     1      -3.895 -11.504  18.579  0.00  0.00    +0.024 A 
ATOM     24  C   UNL     1      -6.287 -11.586  18.323  0.00  0.00    -0.017 A 
ATOM     25  C   UNL     1      -5.161 -11.695  19.129  0.00  0.00    +0.010 A 
ATOM     34  H   UNL     1      -1.707 -10.897  17.505  0.00  0.00    +0.155 HD
ENDROOT
BRANCH  24  26
ATOM     26  C   UNL     1      -7.605 -11.785  18.886  0.00  0.00    -0.018 A 
ATOM     27  C   UNL     1      -7.891 -12.955  19.591  0.00  0.00    +0.009 A 
ATOM     28  C   UNL     1      -8.588 -10.809  18.726  0.00  0.00    +0.009 A 
ATOM     29  C   UNL     1      -9.162 -13.148  20.135  0.00  0.00    +0.015 A 
ATOM     30  C   UNL     1      -9.858 -11.002  19.270  0.00  0.00    +0.015 A 
ATOM     31  C   UNL     1     -10.145 -12.171  19.974  0.00  0.00    +0.008 A 
BRANCH  31   1
ATOM      1  S   UNL     1     -11.767 -12.418  20.669  0.00  0.00    -0.129 S 
ATOM     32  C   UNL     1     -11.518 -13.916  21.664  0.00  0.00    +0.090 C 
ENDBRANCH  31   1
ENDBRANCH  24  26
BRANCH   8   6
ATOM      2  O   UNL     1      -1.285 -14.966  13.069  0.00  0.00    -0.276 OA
ATOM      6  N   UNL     1      -2.793 -13.297  12.471  0.00  0.00    -0.310 N 
ATOM     17  C   UNL     1      -2.305 -14.591  12.496  0.00  0.00    +0.216 C 
ATOM     33  H   UNL     1      -3.685 -13.117  12.019  0.00  0.00    +0.149 HD
BRANCH  17  11
ATOM     11  C   UNL     1      -3.184 -15.544  11.745  0.00  0.00    +0.075 C 
ATOM     13  C   UNL     1      -4.404 -14.808  11.179  0.00  0.00    +0.013 C 
ATOM     14  C   UNL     1      -3.731 -16.625  12.679  0.00  0.00    +0.013 C 
ATOM     15  C   UNL     1      -5.624 -15.546  11.721  0.00  0.00    +0.001 C 
ATOM     16  C   UNL     1      -5.140 -16.158  13.023  0.00  0.00    +0.001 C 
ENDBRANCH  17  11
ENDBRANCH   8   6
TORSDOF 4
ENDMDL
MODEL 7
REMARK VINA RESULT:      -7.0     25.289     28.677
REMARK  Name = 11941403
REMARK  5 active torsions:
REMARK  status: ('A' for Active; 'I' for Inactive)
REMARK    1  A    between atoms: S_1  and  C_31
REMARK    2  A    between atoms: S_1  and  C_32
REMARK    3  A    between atoms: N_6  and  C_8
REMARK    4  A    between atoms: C_11  and  C_17
REMARK    5  A    between atoms: C_24  and  C_26
REMARK                            x       y       z     vdW  Elec       q    Type
REMARK                         _______ _______ _______ _____ _____    ______ ____
ROOT
ATOM      3  O   UNL     1       0.311  10.423   3.538  0.00  0.00    -0.273 OA
ATOM      4  O   UNL     1      -4.818  11.505   2.997  0.00  0.00    -0.270 OA
ATOM      5  N   UNL     1      -2.667  11.092   2.294  0.00  0.00    -0.284 N 
ATOM      7  N   UNL     1      -1.513   9.312   4.332  0.00  0.00    -0.283 N 
ATOM      8  C   UNL     1      -0.723  10.902   0.961  0.00  0.00    +0.104 C 
ATOM      9  C   UNL     1      -1.560  10.191   2.034  0.00  0.00    +0.183 C 
ATOM     10  C   UNL     1      -1.031  12.382   1.192  0.00  0.00    +0.043 C 
ATOM     12  C   UNL     1      -2.488  12.375   1.630  0.00  0.00    +0.111 C 
ATOM     18  C   UNL     1      -0.845  10.029   3.363  0.00  0.00    +0.240 C 
ATOM     19  C   UNL     1      -3.839  10.760   2.940  0.00  0.00    +0.249 C 
ATOM     20  C   UNL     1      -3.913   9.443   3.623  0.00  0.00    +0.059 A 
ATOM     21  C   UNL     1      -2.848   8.853   4.325  0.00  0.00    +0.046 A 
ATOM     22  C   UNL     1      -5.192   8.859   3.690  0.00  0.00    +0.023 A 
ATOM     23  C   UNL     1      -3.106   7.731   5.131  0.00  0.00    +0.024 A 
ATOM     24  C   UNL     1      -5.418   7.718   4.458  0.00  0.00    -0.017 A 
ATOM     25  C   UNL     1      -4.377   7.160   5.188  0.00  0.00    +0.010 A 
ATOM     34  H   UNL     1      -0.943   9.006   5.118  0.00  0.00    +0.155 HD
ENDROOT
BRANCH  24  26
ATOM     26  C   UNL     1      -6.738   7.129   4.511  0.00  0.00    -0.018 A 
ATOM     27  C   UNL     1      -7.764   7.644   3.718  0.00  0.00    +0.009 A 
ATOM     28  C   UNL     1      -6.985   6.045   5.354  0.00  0.00    +0.009 A 
ATOM     29  C   UNL     1      -9.037   7.076   3.769  0.00  0.00    +0.015 A 
ATOM     30  C   UNL     1      -8.259   5.477   5.404  0.00  0.00    +0.015 A 
ATOM     31  C   UNL     1      -9.284   5.992   4.612  0.00  0.00    +0.008 A 
BRANCH  31   1
ATOM      1  S   UNL     1     -10.911   5.267   4.676  0.00  0.00    -0.129 S 
ATOM     32  C   UNL     1     -11.520   5.575   2.994  0.00  0.00    +0.090 C 
ENDBRANCH  31   1
ENDBRANCH  24  26
BRANCH   8   6
ATOM      2  O   UNL     1       0.899  10.892  -1.446  0.00  0.00    -0.276 OA
ATOM      6  N   UNL     1      -1.121  10.486  -0.364  0.00  0.00    -0.310 N 
ATOM     17  C   UNL     1      -0.270  10.517  -1.455  0.00  0.00    +0.216 C 
ATOM     33  H   UNL     1      -2.051  10.092  -0.478  0.00  0.00    +0.149 HD
BRANCH  17  11
ATOM     11  C   UNL     1      -0.927  10.008  -2.702  0.00  0.00    +0.075 C 
ATOM     13  C   UNL     1      -0.427  10.788  -3.923  0.00  0.00    +0.013 C 
ATOM     14  C   UNL     1      -2.439  10.228  -2.644  0.00  0.00    +0.013 C 
ATOM     15  C   UNL     1      -1.673  11.354  -4.595  0.00  0.00    +0.001 C 
ATOM     16  C   UNL     1      -2.676  11.489  -3.464  0.00  0.00    +0.001 C 
ENDBRANCH  17  11
ENDBRANCH   8   6
TORSDOF 4
ENDMDL
MODEL 8
REMARK VINA RESULT:      -6.9     28.226     30.670
REMARK  Name = 11941403
REMARK  5 active torsions:
REMARK  status: ('A' for Active; 'I' for Inactive)
REMARK    1  A    between atoms: S_1  and  C_31
REMARK    2  A    between atoms: S_1  and  C_32
REMARK    3  A    between atoms: N_6  and  C_8
REMARK    4  A    between atoms: C_11  and  C_17
REMARK    5  A    between atoms: C_24  and  C_26
REMARK                            x       y       z     vdW  Elec       q    Type
REMARK                         _______ _______ _______ _____ _____    ______ ____
ROOT
ATOM      3  O   UNL     1      -1.752 -10.678  16.678  0.00  0.00    -0.273 OA
ATOM      4  O   UNL     1      -4.700 -13.588  13.421  0.00  0.00    -0.270 OA
ATOM      5  N   UNL     1      -4.278 -12.201  15.206  0.00  0.00    -0.284 N 
ATOM      7  N   UNL     1      -1.941 -10.600  14.409  0.00  0.00    -0.283 N 
ATOM      8  C   UNL     1      -4.507 -10.955  17.203  0.00  0.00    +0.104 C 
ATOM      9  C   UNL     1      -3.974 -10.896  15.765  0.00  0.00    +0.183 C 
ATOM     10  C   UNL     1      -4.449 -12.446  17.544  0.00  0.00    +0.043 C 
ATOM     12  C   UNL     1      -4.769 -13.122  16.219  0.00  0.00    +0.111 C 
ATOM     18  C   UNL     1      -2.465 -10.755  15.675  0.00  0.00    +0.240 C 
ATOM     19  C   UNL     1      -4.280 -12.520  13.864  0.00  0.00    +0.249 C 
ATOM     20  C   UNL     1      -3.721 -11.528  12.909  0.00  0.00    +0.059 A 
ATOM     21  C   UNL     1      -2.593 -10.729  13.164  0.00  0.00    +0.046 A 
ATOM     22  C   UNL     1      -4.282 -11.540  11.618  0.00  0.00    +0.023 A 
ATOM     23  C   UNL     1      -2.016 -10.013  12.101  0.00  0.00    +0.024 A 
ATOM     24  C   UNL     1      -3.722 -10.786  10.588  0.00  0.00    -0.017 A 
ATOM     25  C   UNL     1      -2.581 -10.030  10.827  0.00  0.00    +0.010 A 
ATOM     34  H   UNL     1      -0.978 -10.272  14.374  0.00  0.00    +0.155 HD
ENDROOT
BRANCH  24  26
ATOM     26  C   UNL     1      -4.315 -10.806   9.269  0.00  0.00    -0.018 A 
ATOM     27  C   UNL     1      -4.971  -9.675   8.782  0.00  0.00    +0.009 A 
ATOM     28  C   UNL     1      -4.230 -11.956   8.483  0.00  0.00    +0.009 A 
ATOM     29  C   UNL     1      -5.543  -9.694   7.509  0.00  0.00    +0.015 A 
ATOM     30  C   UNL     1      -4.802 -11.974   7.210  0.00  0.00    +0.015 A 
ATOM     31  C   UNL     1      -5.458 -10.844   6.724  0.00  0.00    +0.008 A 
BRANCH  31   1
ATOM      1  S   UNL     1      -6.189 -10.868   5.099  0.00  0.00    -0.129 S 
ATOM     32  C   UNL     1      -6.975  -9.233   5.023  0.00  0.00    +0.090 C 
ENDBRANCH  31   1
ENDBRANCH  24  26
BRANCH   8   6
ATOM      2  O   UNL     1      -6.177 -10.712  19.565  0.00  0.00    -0.276 OA
ATOM      6  N   UNL     1      -5.861 -10.456  17.273  0.00  0.00    -0.310 N 
ATOM     17  C   UNL     1      -6.579 -10.377  18.454  0.00  0.00    +0.216 C 
ATOM     33  H   UNL     1      -6.274 -10.086  16.422  0.00  0.00    +0.149 HD
BRANCH  17  11
ATOM     11  C   UNL     1      -7.946  -9.798  18.249  0.00  0.00    +0.075 C 
ATOM     13  C   UNL     1      -9.008 -10.712  18.872  0.00  0.00    +0.013 C 
ATOM     14  C   UNL     1      -8.277  -9.711  16.759  0.00  0.00    +0.013 C 
ATOM     15  C   UNL     1      -9.982 -11.045  17.747  0.00  0.00    +0.001 C 
ATOM     16  C   UNL     1      -9.145 -10.932  16.486  0.00  0.00    +0.001 C 
ENDBRANCH  17  11
ENDBRANCH   8   6
TORSDOF 4
ENDMDL
MODEL 9
REMARK VINA RESULT:      -6.8     15.901     18.736
REMARK  Name = 11941403
REMARK  5 active torsions:
REMARK  status: ('A' for Active; 'I' for Inactive)
REMARK    1  A    between atoms: S_1  and  C_31
REMARK    2  A    between atoms: S_1  and  C_32
REMARK    3  A    between atoms: N_6  and  C_8
REMARK    4  A    between atoms: C_11  and  C_17
REMARK    5  A    between atoms: C_24  and  C_26
REMARK                            x       y       z     vdW  Elec       q    Type
REMARK                         _______ _______ _______ _____ _____    ______ ____
ROOT
ATOM      3  O   UNL     1      18.093  -8.109  27.147  0.00  0.00    -0.273 OA
ATOM      4  O   UNL     1      16.772  -4.786  31.017  0.00  0.00    -0.270 OA
ATOM      5  N   UNL     1      17.278  -5.416  28.864  0.00  0.00    -0.284 N 
ATOM      7  N   UNL     1      16.375  -8.208  28.639  0.00  0.00    -0.283 N 
ATOM      8  C   UNL     1      17.834  -5.364  26.566  0.00  0.00    +0.104 C 
ATOM      9  C   UNL     1      16.931  -6.045  27.603  0.00  0.00    +0.183 C 
ATOM     10  C   UNL     1      19.046  -4.918  27.387  0.00  0.00    +0.043 C 
ATOM     12  C   UNL     1      18.443  -4.553  28.735  0.00  0.00    +0.111 C 
ATOM     18  C   UNL     1      17.219  -7.524  27.791  0.00  0.00    +0.240 C 
ATOM     19  C   UNL     1      16.528  -5.465  30.020  0.00  0.00    +0.249 C 
ATOM     20  C   UNL     1      15.379  -6.406  30.069  0.00  0.00    +0.059 A 
ATOM     21  C   UNL     1      15.380  -7.690  29.498  0.00  0.00    +0.046 A 
ATOM     22  C   UNL     1      14.305  -6.016  30.890  0.00  0.00    +0.023 A 
ATOM     23  C   UNL     1      14.337  -8.575  29.818  0.00  0.00    +0.024 A 
ATOM     24  C   UNL     1      13.254  -6.894  31.158  0.00  0.00    -0.017 A 
ATOM     25  C   UNL     1      13.276  -8.179  30.631  0.00  0.00    +0.010 A 
ATOM     34  H   UNL     1      16.422  -9.222  28.576  0.00  0.00    +0.155 HD
ENDROOT
BRANCH  24  26
ATOM     26  C   UNL     1      12.155  -6.474  32.000  0.00  0.00    -0.018 A 
ATOM     27  C   UNL     1      12.017  -5.131  32.348  0.00  0.00    +0.009 A 
ATOM     28  C   UNL     1      11.234  -7.413  32.464  0.00  0.00    +0.009 A 
ATOM     29  C   UNL     1      10.957  -4.726  33.160  0.00  0.00    +0.015 A 
ATOM     30  C   UNL     1      10.174  -7.008  33.276  0.00  0.00    +0.015 A 
ATOM     31  C   UNL     1      10.036  -5.665  33.624  0.00  0.00    +0.008 A 
BRANCH  31   1
ATOM      1  S   UNL     1       8.683  -5.147  34.661  0.00  0.00    -0.129 S 
ATOM     32  C   UNL     1       7.245  -5.630  33.662  0.00  0.00    +0.090 C 
ENDBRANCH  31   1
ENDBRANCH  24  26
BRANCH   8   6
ATOM      2  O   UNL     1      17.177  -4.991  23.763  0.00  0.00    -0.276 OA
ATOM      6  N   UNL     1      17.167  -4.232  25.963  0.00  0.00    -0.310 N 
ATOM     17  C   UNL     1      16.895  -4.147  24.609  0.00  0.00    +0.216 C 
ATOM     33  H   UNL     1      16.826  -3.500  26.580  0.00  0.00    +0.149 HD
BRANCH  17  11
ATOM     11  C   UNL     1      16.173  -2.883  24.254  0.00  0.00    +0.075 C 
ATOM     13  C   UNL     1      16.315  -2.593  22.755  0.00  0.00    +0.013 C 
ATOM     14  C   UNL     1      16.790  -1.687  24.981  0.00  0.00    +0.013 C 
ATOM     15  C   UNL     1      16.916  -1.195  22.656  0.00  0.00    +0.001 C 
ATOM     16  C   UNL     1      17.698  -1.035  23.947  0.00  0.00    +0.001 C 
ENDBRANCH  17  11
ENDBRANCH   8   6
TORSDOF 4
ENDMDL
MODEL 10
REMARK VINA RESULT:      -6.8      5.651     11.006
REMARK  Name = 11941403
REMARK  5 active torsions:
REMARK  status: ('A' for Active; 'I' for Inactive)
REMARK    1  A    between atoms: S_1  and  C_31
REMARK    2  A    between atoms: S_1  and  C_32
REMARK    3  A    between atoms: N_6  and  C_8
REMARK    4  A    between atoms: C_11  and  C_17
REMARK    5  A    between atoms: C_24  and  C_26
REMARK                            x       y       z     vdW  Elec       q    Type
REMARK                         _______ _______ _______ _____ _____    ______ ____
ROOT
ATOM      3  O   UNL     1      23.471   7.399  21.568  0.00  0.00    -0.273 OA
ATOM      4  O   UNL     1      19.385   4.643  19.703  0.00  0.00    -0.270 OA
ATOM      5  N   UNL     1      21.184   5.078  21.068  0.00  0.00    -0.284 N 
ATOM      7  N   UNL     1      21.293   8.010  21.298  0.00  0.00    -0.283 N 
ATOM      8  C   UNL     1      22.940   4.845  22.635  0.00  0.00    +0.104 C 
ATOM      9  C   UNL     1      21.802   5.770  22.184  0.00  0.00    +0.183 C 
ATOM     10  C   UNL     1      23.294   4.071  21.363  0.00  0.00    +0.043 C 
ATOM     12  C   UNL     1      21.953   3.911  20.664  0.00  0.00    +0.111 C 
ATOM     18  C   UNL     1      22.275   7.101  21.628  0.00  0.00    +0.240 C 
ATOM     19  C   UNL     1      19.941   5.355  20.539  0.00  0.00    +0.249 C 
ATOM     20  C   UNL     1      19.249   6.591  20.987  0.00  0.00    +0.059 A 
ATOM     21  C   UNL     1      19.896   7.814  21.240  0.00  0.00    +0.046 A 
ATOM     22  C   UNL     1      17.844   6.541  20.983  0.00  0.00    +0.023 A 
ATOM     23  C   UNL     1      19.115   8.969  21.418  0.00  0.00    +0.024 A 
ATOM     24  C   UNL     1      17.086   7.690  21.208  0.00  0.00    -0.017 A 
ATOM     25  C   UNL     1      17.722   8.907  21.414  0.00  0.00    +0.010 A 
ATOM     34  H   UNL     1      21.613   8.965  21.157  0.00  0.00    +0.155 HD
ENDROOT
BRANCH  24  26
ATOM     26  C   UNL     1      15.641   7.619  21.205  0.00  0.00    -0.018 A 
ATOM     27  C   UNL     1      14.897   8.522  21.964  0.00  0.00    +0.009 A 
ATOM     28  C   UNL     1      14.992   6.647  20.444  0.00  0.00    +0.009 A 
ATOM     29  C   UNL     1      13.503   8.454  21.962  0.00  0.00    +0.015 A 
ATOM     30  C   UNL     1      13.598   6.578  20.442  0.00  0.00    +0.015 A 
ATOM     31  C   UNL     1      12.854   7.482  21.201  0.00  0.00    +0.008 A 
BRANCH  31   1
ATOM      1  S   UNL     1      11.075   7.394  21.198  0.00  0.00    -0.129 S 
ATOM     32  C   UNL     1      10.640   8.681  22.405  0.00  0.00    +0.090 C 
ENDBRANCH  31   1
ENDBRANCH  24  26
BRANCH   8   6
ATOM      2  O   UNL     1      24.556   3.639  24.723  0.00  0.00    -0.276 OA
ATOM      6  N   UNL     1      22.498   3.953  23.682  0.00  0.00    -0.310 N 
ATOM     17  C   UNL     1      23.349   3.428  24.639  0.00  0.00    +0.216 C 
ATOM     33  H   UNL     1      21.503   3.761  23.752  0.00  0.00    +0.149 HD
BRANCH  17  11
ATOM     11  C   UNL     1      22.629   2.556  25.621  0.00  0.00    +0.075 C 
ATOM     13  C   UNL     1      23.572   2.143  26.758  0.00  0.00    +0.013 C 
ATOM     14  C   UNL     1      22.168   1.258  24.955  0.00  0.00    +0.013 C 
ATOM     15  C   UNL     1      23.553   0.619  26.782  0.00  0.00    +0.001 C 
ATOM     16  C   UNL     1      23.217   0.228  25.355  0.00  0.00    +0.001 C 
ENDBRANCH  17  11
ENDBRANCH   8   6
TORSDOF 4
ENDMDL
