MODEL 1
REMARK VINA RESULT:      -6.8      0.000      0.000
REMARK  Name = 7144182
REMARK  4 active torsions:
REMARK  status: ('A' for Active; 'I' for Inactive)
REMARK    1  A    between atoms: O_7  and  C_30
REMARK    2  A    between atoms: O_7  and  C_34
REMARK    3  A    between atoms: C_17  and  C_22
REMARK    4  A    between atoms: C_19  and  C_23
REMARK                            x       y       z     vdW  Elec       q    Type
REMARK                         _______ _______ _______ _____ _____    ______ ____
ROOT
ATOM      5  O   UNL     1       7.190   9.553   4.987  0.00  0.00    -0.268 OA
ATOM      6  O   UNL     1      11.578   9.801   7.524  0.00  0.00    -0.270 OA
ATOM      8  N   UNL     1      11.314   7.568   6.883  0.00  0.00    -0.297 N 
ATOM      9  N   UNL     1       8.658   7.738   5.186  0.00  0.00    -0.311 N 
ATOM     10  C   UNL     1       9.095   6.609   7.447  0.00  0.00    +0.027 C 
ATOM     11  C   UNL     1      10.278   5.834   5.433  0.00  0.00    +0.054 C 
ATOM     12  C   UNL     1       9.411   5.379   6.607  0.00  0.00    +0.018 C 
ATOM     13  C   UNL     1      10.390   7.252   7.972  0.00  0.00    +0.113 C 
ATOM     14  C   UNL     1       8.275   7.580   6.596  0.00  0.00    +0.130 C 
ATOM     15  C   UNL     1      11.589   6.450   5.969  0.00  0.00    +0.117 C 
ATOM     16  C   UNL     1       9.547   6.848   4.551  0.00  0.00    +0.034 A 
ATOM     17  C   UNL     1       9.752   6.936   3.211  0.00  0.00    +0.002 A 
ATOM     18  C   UNL     1       7.986   8.758   4.488  0.00  0.00    +0.252 A 
ATOM     19  C   UNL     1      11.809   8.867   6.757  0.00  0.00    +0.247 C 
ATOM     20  C   UNL     1       9.079   7.978   2.459  0.00  0.00    +0.015 A 
ATOM     21  C   UNL     1       8.258   8.855   3.035  0.00  0.00    +0.071 A 
ENDROOT
BRANCH  19  23
ATOM      1  F   UNL     1      15.087  10.027   2.376  0.00  0.00    -0.205 F 
ATOM     23  C   UNL     1      12.670   9.173   5.608  0.00  0.00    +0.037 A 
ATOM     26  C   UNL     1      14.052   9.064   5.729  0.00  0.00    +0.016 A 
ATOM     27  C   UNL     1      12.099   9.568   4.401  0.00  0.00    +0.016 A 
ATOM     31  C   UNL     1      14.870   9.353   4.636  0.00  0.00    +0.039 A 
ATOM     32  C   UNL     1      12.916   9.857   3.308  0.00  0.00    +0.039 A 
ATOM     33  C   UNL     1      14.302   9.749   3.425  0.00  0.00    +0.123 A 
ENDBRANCH  19  23
BRANCH  17  22
ATOM     22  C   UNL     1      10.657   6.007   2.498  0.00  0.00    -0.016 A 
ATOM     24  C   UNL     1      10.160   4.810   1.993  0.00  0.00    +0.012 A 
ATOM     25  C   UNL     1      11.999   6.338   2.338  0.00  0.00    +0.012 A 
ATOM     28  C   UNL     1      11.012   3.935   1.321  0.00  0.00    +0.046 A 
ATOM     29  C   UNL     1      12.852   5.464   1.666  0.00  0.00    +0.046 A 
ATOM     30  C   UNL     1      12.359   4.261   1.157  0.00  0.00    +0.130 A 
BRANCH  30   7
ATOM      7  O   UNL     1      13.192   3.407   0.502  0.00  0.00    -0.406 OA
BRANCH   7  34
ATOM      2  F   UNL     1      12.524   4.521  -1.381  0.00  0.00    -0.133 F 
ATOM      3  F   UNL     1      12.747   2.348  -1.441  0.00  0.00    -0.133 F 
ATOM      4  F   UNL     1      14.533   3.602  -1.341  0.00  0.00    -0.133 F 
ATOM     34  C   UNL     1      13.257   3.487  -0.918  0.00  0.00    +0.575 C 
ENDBRANCH   7  34
ENDBRANCH  30   7
ENDBRANCH  17  22
TORSDOF 4
ENDMDL
MODEL 2
REMARK VINA RESULT:      -6.7      4.001      6.568
REMARK  Name = 7144182
REMARK  4 active torsions:
REMARK  status: ('A' for Active; 'I' for Inactive)
REMARK    1  A    between atoms: O_7  and  C_30
REMARK    2  A    between atoms: O_7  and  C_34
REMARK    3  A    between atoms: C_17  and  C_22
REMARK    4  A    between atoms: C_19  and  C_23
REMARK                            x       y       z     vdW  Elec       q    Type
REMARK                         _______ _______ _______ _____ _____    ______ ____
ROOT
ATOM      5  O   UNL     1       8.090  10.587   1.203  0.00  0.00    -0.268 OA
ATOM      6  O   UNL     1      12.657   8.605   0.224  0.00  0.00    -0.270 OA
ATOM      8  N   UNL     1      12.659   9.170   2.493  0.00  0.00    -0.297 N 
ATOM      9  N   UNL     1       9.689  10.174   2.864  0.00  0.00    -0.311 N 
ATOM     10  C   UNL     1      11.893  11.484   2.959  0.00  0.00    +0.027 C 
ATOM     11  C   UNL     1      11.447   9.702   4.597  0.00  0.00    +0.054 C 
ATOM     12  C   UNL     1      11.846  11.170   4.448  0.00  0.00    +0.018 C 
ATOM     13  C   UNL     1      12.922  10.588   2.250  0.00  0.00    +0.113 C 
ATOM     14  C   UNL     1      10.487  11.312   2.383  0.00  0.00    +0.130 C 
ATOM     15  C   UNL     1      12.503   8.809   3.909  0.00  0.00    +0.117 C 
ATOM     16  C   UNL     1      10.064   9.430   4.001  0.00  0.00    +0.034 A 
ATOM     17  C   UNL     1       9.221   8.491   4.504  0.00  0.00    +0.002 A 
ATOM     18  C   UNL     1       8.474   9.960   2.191  0.00  0.00    +0.252 A 
ATOM     19  C   UNL     1      12.525   8.300   1.408  0.00  0.00    +0.247 C 
ATOM     20  C   UNL     1       7.961   8.240   3.833  0.00  0.00    +0.015 A 
ATOM     21  C   UNL     1       7.592   8.902   2.737  0.00  0.00    +0.071 A 
ENDROOT
BRANCH  19  23
ATOM      1  F   UNL     1      11.212   2.964   2.452  0.00  0.00    -0.205 F 
ATOM     23  C   UNL     1      12.181   6.899   1.680  0.00  0.00    +0.037 A 
ATOM     26  C   UNL     1      13.189   5.946   1.788  0.00  0.00    +0.016 A 
ATOM     27  C   UNL     1      10.846   6.531   1.833  0.00  0.00    +0.016 A 
ATOM     31  C   UNL     1      12.862   4.615   2.049  0.00  0.00    +0.039 A 
ATOM     32  C   UNL     1      10.519   5.201   2.093  0.00  0.00    +0.039 A 
ATOM     33  C   UNL     1      11.526   4.243   2.202  0.00  0.00    +0.123 A 
ENDBRANCH  19  23
BRANCH  17  22
ATOM     22  C   UNL     1       9.562   7.704   5.710  0.00  0.00    -0.016 A 
ATOM     24  C   UNL     1       9.334   8.242   6.973  0.00  0.00    +0.012 A 
ATOM     25  C   UNL     1      10.106   6.431   5.572  0.00  0.00    +0.012 A 
ATOM     28  C   UNL     1       9.655   7.500   8.109  0.00  0.00    +0.046 A 
ATOM     29  C   UNL     1      10.427   5.688   6.708  0.00  0.00    +0.046 A 
ATOM     30  C   UNL     1      10.201   6.223   7.978  0.00  0.00    +0.130 A 
BRANCH  30   7
ATOM      7  O   UNL     1      10.514   5.499   9.087  0.00  0.00    -0.406 OA
BRANCH   7  34
ATOM      2  F   UNL     1       8.392   5.401   9.935  0.00  0.00    -0.133 F 
ATOM      3  F   UNL     1       9.964   4.179  10.833  0.00  0.00    -0.133 F 
ATOM      4  F   UNL     1       9.193   3.645   8.860  0.00  0.00    -0.133 F 
ATOM     34  C   UNL     1       9.502   4.683   9.666  0.00  0.00    +0.575 C 
ENDBRANCH   7  34
ENDBRANCH  30   7
ENDBRANCH  17  22
TORSDOF 4
ENDMDL
MODEL 3
REMARK VINA RESULT:      -6.6     25.205     27.967
REMARK  Name = 7144182
REMARK  4 active torsions:
REMARK  status: ('A' for Active; 'I' for Inactive)
REMARK    1  A    between atoms: O_7  and  C_30
REMARK    2  A    between atoms: O_7  and  C_34
REMARK    3  A    between atoms: C_17  and  C_22
REMARK    4  A    between atoms: C_19  and  C_23
REMARK                            x       y       z     vdW  Elec       q    Type
REMARK                         _______ _______ _______ _____ _____    ______ ____
ROOT
ATOM      5  O   UNL     1      -7.060 -15.121  17.170  0.00  0.00    -0.268 OA
ATOM      6  O   UNL     1      -8.461 -10.721  19.275  0.00  0.00    -0.270 OA
ATOM      8  N   UNL     1      -6.497 -10.285  18.084  0.00  0.00    -0.297 N 
ATOM      9  N   UNL     1      -5.970 -13.093  16.741  0.00  0.00    -0.311 N 
ATOM     10  C   UNL     1      -4.648 -11.868  18.566  0.00  0.00    +0.027 C 
ATOM     11  C   UNL     1      -4.850 -10.883  16.320  0.00  0.00    +0.054 C 
ATOM     12  C   UNL     1      -3.852 -11.296  17.401  0.00  0.00    +0.018 C 
ATOM     13  C   UNL     1      -5.619 -10.815  19.126  0.00  0.00    +0.113 C 
ATOM     14  C   UNL     1      -5.377 -13.124  18.085  0.00  0.00    +0.130 C 
ATOM     15  C   UNL     1      -5.801  -9.803  16.882  0.00  0.00    +0.117 C 
ATOM     16  C   UNL     1      -5.659 -12.078  15.812  0.00  0.00    +0.034 A 
ATOM     17  C   UNL     1      -6.105 -12.172  14.533  0.00  0.00    +0.002 A 
ATOM     18  C   UNL     1      -6.768 -14.201  16.406  0.00  0.00    +0.252 A 
ATOM     19  C   UNL     1      -7.881 -10.318  18.268  0.00  0.00    +0.247 C 
ATOM     20  C   UNL     1      -6.934 -13.300  14.152  0.00  0.00    +0.015 A 
ATOM     21  C   UNL     1      -7.273 -14.257  15.015  0.00  0.00    +0.071 A 
ENDROOT
BRANCH  19  23
ATOM      1  F   UNL     1     -11.144  -8.548  14.084  0.00  0.00    -0.205 F 
ATOM     23  C   UNL     1      -8.739  -9.854  17.170  0.00  0.00    +0.037 A 
ATOM     26  C   UNL     1      -9.158  -8.528  17.133  0.00  0.00    +0.016 A 
ATOM     27  C   UNL     1      -9.126 -10.743  16.170  0.00  0.00    +0.016 A 
ATOM     31  C   UNL     1      -9.972  -8.085  16.089  0.00  0.00    +0.039 A 
ATOM     32  C   UNL     1      -9.939 -10.301  15.127  0.00  0.00    +0.039 A 
ATOM     33  C   UNL     1     -10.362  -8.972  15.086  0.00  0.00    +0.123 A 
ENDBRANCH  19  23
BRANCH  17  22
ATOM     22  C   UNL     1      -5.782 -11.144  13.518  0.00  0.00    -0.016 A 
ATOM     24  C   UNL     1      -6.690 -10.122  13.258  0.00  0.00    +0.012 A 
ATOM     25  C   UNL     1      -4.573 -11.207  12.833  0.00  0.00    +0.012 A 
ATOM     28  C   UNL     1      -6.386  -9.154  12.301  0.00  0.00    +0.046 A 
ATOM     29  C   UNL     1      -4.268 -10.238  11.876  0.00  0.00    +0.046 A 
ATOM     30  C   UNL     1      -5.175  -9.211  11.611  0.00  0.00    +0.130 A 
BRANCH  30   7
ATOM      7  O   UNL     1      -4.879  -8.266  10.677  0.00  0.00    -0.406 OA
BRANCH   7  34
ATOM      2  F   UNL     1      -4.168  -8.447   8.510  0.00  0.00    -0.133 F 
ATOM      3  F   UNL     1      -6.128  -7.577   8.928  0.00  0.00    -0.133 F 
ATOM      4  F   UNL     1      -5.836  -9.725   9.197  0.00  0.00    -0.133 F 
ATOM     34  C   UNL     1      -5.243  -8.519   9.324  0.00  0.00    +0.575 C 
ENDBRANCH   7  34
ENDBRANCH  30   7
ENDBRANCH  17  22
TORSDOF 4
ENDMDL
MODEL 4
REMARK VINA RESULT:      -6.3     23.787     26.516
REMARK  Name = 7144182
REMARK  4 active torsions:
REMARK  status: ('A' for Active; 'I' for Inactive)
REMARK    1  A    between atoms: O_7  and  C_30
REMARK    2  A    between atoms: O_7  and  C_34
REMARK    3  A    between atoms: C_17  and  C_22
REMARK    4  A    between atoms: C_19  and  C_23
REMARK                            x       y       z     vdW  Elec       q    Type
REMARK                         _______ _______ _______ _____ _____    ______ ____
ROOT
ATOM      5  O   UNL     1      -1.948 -10.700  16.659  0.00  0.00    -0.268 OA
ATOM      6  O   UNL     1      -4.943 -14.722  15.886  0.00  0.00    -0.270 OA
ATOM      8  N   UNL     1      -5.878 -12.962  14.663  0.00  0.00    -0.297 N 
ATOM      9  N   UNL     1      -3.744 -10.688  15.156  0.00  0.00    -0.311 N 
ATOM     10  C   UNL     1      -6.172 -10.870  15.964  0.00  0.00    +0.027 C 
ATOM     11  C   UNL     1      -5.682 -10.745  13.557  0.00  0.00    +0.054 C 
ATOM     12  C   UNL     1      -6.501 -10.117  14.684  0.00  0.00    +0.018 C 
ATOM     13  C   UNL     1      -6.530 -12.359  15.824  0.00  0.00    +0.113 C 
ATOM     14  C   UNL     1      -4.690 -10.663  16.281  0.00  0.00    +0.130 C 
ATOM     15  C   UNL     1      -6.071 -12.232  13.402  0.00  0.00    +0.117 C 
ATOM     16  C   UNL     1      -4.179 -10.623  13.816  0.00  0.00    +0.034 A 
ATOM     17  C   UNL     1      -3.270 -10.490  12.815  0.00  0.00    +0.002 A 
ATOM     18  C   UNL     1      -2.383 -10.660  15.508  0.00  0.00    +0.252 A 
ATOM     19  C   UNL     1      -5.103 -14.113  14.830  0.00  0.00    +0.247 C 
ATOM     20  C   UNL     1      -1.857 -10.461  13.141  0.00  0.00    +0.015 A 
ATOM     21  C   UNL     1      -1.413 -10.555  14.394  0.00  0.00    +0.071 A 
ENDROOT
BRANCH  19  23
ATOM      1  F   UNL     1      -2.402 -16.156  10.379  0.00  0.00    -0.205 F 
ATOM     23  C   UNL     1      -4.395 -14.648  13.661  0.00  0.00    +0.037 A 
ATOM     26  C   UNL     1      -3.125 -14.175  13.345  0.00  0.00    +0.016 A 
ATOM     27  C   UNL     1      -4.996 -15.629  12.876  0.00  0.00    +0.016 A 
ATOM     31  C   UNL     1      -2.450 -14.685  12.235  0.00  0.00    +0.039 A 
ATOM     32  C   UNL     1      -4.322 -16.139  11.766  0.00  0.00    +0.039 A 
ATOM     33  C   UNL     1      -3.049 -15.667  11.446  0.00  0.00    +0.123 A 
ENDBRANCH  19  23
BRANCH  17  22
ATOM     22  C   UNL     1      -3.682 -10.393  11.397  0.00  0.00    -0.016 A 
ATOM     24  C   UNL     1      -3.849 -11.551  10.645  0.00  0.00    +0.012 A 
ATOM     25  C   UNL     1      -3.900  -9.142  10.826  0.00  0.00    +0.012 A 
ATOM     28  C   UNL     1      -4.236 -11.459   9.308  0.00  0.00    +0.046 A 
ATOM     29  C   UNL     1      -4.288  -9.050   9.490  0.00  0.00    +0.046 A 
ATOM     30  C   UNL     1      -4.457 -10.209   8.731  0.00  0.00    +0.130 A 
BRANCH  30   7
ATOM      7  O   UNL     1      -4.835 -10.119   7.426  0.00  0.00    -0.406 OA
BRANCH   7  34
ATOM      2  F   UNL     1      -6.462 -11.573   6.741  0.00  0.00    -0.133 F 
ATOM      3  F   UNL     1      -6.528  -9.494   6.071  0.00  0.00    -0.133 F 
ATOM      4  F   UNL     1      -6.998  -9.960   8.153  0.00  0.00    -0.133 F 
ATOM     34  C   UNL     1      -6.211 -10.299   7.110  0.00  0.00    +0.575 C 
ENDBRANCH   7  34
ENDBRANCH  30   7
ENDBRANCH  17  22
TORSDOF 4
ENDMDL
MODEL 5
REMARK VINA RESULT:      -6.2     24.326     27.119
REMARK  Name = 7144182
REMARK  4 active torsions:
REMARK  status: ('A' for Active; 'I' for Inactive)
REMARK    1  A    between atoms: O_7  and  C_30
REMARK    2  A    between atoms: O_7  and  C_34
REMARK    3  A    between atoms: C_17  and  C_22
REMARK    4  A    between atoms: C_19  and  C_23
REMARK                            x       y       z     vdW  Elec       q    Type
REMARK                         _______ _______ _______ _____ _____    ______ ____
ROOT
ATOM      5  O   UNL     1      -8.250 -13.572   8.281  0.00  0.00    -0.268 OA
ATOM      6  O   UNL     1      -4.966  -9.783   7.495  0.00  0.00    -0.270 OA
ATOM      8  N   UNL     1      -6.439  -9.043   9.153  0.00  0.00    -0.297 N 
ATOM      9  N   UNL     1      -8.213 -11.620   9.576  0.00  0.00    -0.311 N 
ATOM     10  C   UNL     1      -8.836  -9.339   8.582  0.00  0.00    +0.027 C 
ATOM     11  C   UNL     1      -8.116  -9.505  10.929  0.00  0.00    +0.054 C 
ATOM     12  C   UNL     1      -9.222  -8.985  10.012  0.00  0.00    +0.018 C 
ATOM     13  C   UNL     1      -7.495  -8.686   8.207  0.00  0.00    +0.113 C 
ATOM     14  C   UNL     1      -8.789 -10.862   8.456  0.00  0.00    +0.130 C 
ATOM     15  C   UNL     1      -6.780  -8.820  10.565  0.00  0.00    +0.117 C 
ATOM     16  C   UNL     1      -7.968 -11.025  10.830  0.00  0.00    +0.034 A 
ATOM     17  C   UNL     1      -7.584 -11.794  11.882  0.00  0.00    +0.002 A 
ATOM     18  C   UNL     1      -8.039 -12.997   9.349  0.00  0.00    +0.252 A 
ATOM     19  C   UNL     1      -5.249  -9.599   8.677  0.00  0.00    +0.247 C 
ATOM     20  C   UNL     1      -7.390 -13.218  11.684  0.00  0.00    +0.015 A 
ATOM     21  C   UNL     1      -7.581 -13.805  10.503  0.00  0.00    +0.071 A 
ENDROOT
BRANCH  19  23
ATOM      1  F   UNL     1      -1.405 -11.215  12.405  0.00  0.00    -0.205 F 
ATOM     23  C   UNL     1      -4.241 -10.022   9.657  0.00  0.00    +0.037 A 
ATOM     26  C   UNL     1      -4.281 -11.312  10.179  0.00  0.00    +0.016 A 
ATOM     27  C   UNL     1      -3.247  -9.133  10.057  0.00  0.00    +0.016 A 
ATOM     31  C   UNL     1      -3.322 -11.716  11.108  0.00  0.00    +0.039 A 
ATOM     32  C   UNL     1      -2.288  -9.536  10.986  0.00  0.00    +0.039 A 
ATOM     33  C   UNL     1      -2.326 -10.827  11.512  0.00  0.00    +0.123 A 
ENDBRANCH  19  23
BRANCH  17  22
ATOM     22  C   UNL     1      -7.341 -11.216  13.222  0.00  0.00    -0.016 A 
ATOM     24  C   UNL     1      -6.056 -10.816  13.578  0.00  0.00    +0.012 A 
ATOM     25  C   UNL     1      -8.398 -11.076  14.116  0.00  0.00    +0.012 A 
ATOM     28  C   UNL     1      -5.826 -10.272  14.842  0.00  0.00    +0.046 A 
ATOM     29  C   UNL     1      -8.169 -10.532  15.379  0.00  0.00    +0.046 A 
ATOM     30  C   UNL     1      -6.882 -10.129  15.742  0.00  0.00    +0.130 A 
BRANCH  30   7
ATOM      7  O   UNL     1      -6.658  -9.598  16.975  0.00  0.00    -0.406 OA
BRANCH   7  34
ATOM      2  F   UNL     1      -6.365 -11.716  17.791  0.00  0.00    -0.133 F 
ATOM      3  F   UNL     1      -6.463 -10.033  19.181  0.00  0.00    -0.133 F 
ATOM      4  F   UNL     1      -4.692 -10.279  17.927  0.00  0.00    -0.133 F 
ATOM     34  C   UNL     1      -6.034 -10.418  17.958  0.00  0.00    +0.575 C 
ENDBRANCH   7  34
ENDBRANCH  30   7
ENDBRANCH  17  22
TORSDOF 4
ENDMDL
MODEL 6
REMARK VINA RESULT:      -6.2     24.288     26.856
REMARK  Name = 7144182
REMARK  4 active torsions:
REMARK  status: ('A' for Active; 'I' for Inactive)
REMARK    1  A    between atoms: O_7  and  C_30
REMARK    2  A    between atoms: O_7  and  C_34
REMARK    3  A    between atoms: C_17  and  C_22
REMARK    4  A    between atoms: C_19  and  C_23
REMARK                            x       y       z     vdW  Elec       q    Type
REMARK                         _______ _______ _______ _____ _____    ______ ____
ROOT
ATOM      5  O   UNL     1      19.622  -4.890  21.473  0.00  0.00    -0.268 OA
ATOM      6  O   UNL     1      20.414  -0.965  24.590  0.00  0.00    -0.270 OA
ATOM      8  N   UNL     1      18.258  -1.744  25.049  0.00  0.00    -0.297 N 
ATOM      9  N   UNL     1      18.110  -4.259  23.147  0.00  0.00    -0.311 N 
ATOM     10  C   UNL     1      16.837  -2.035  23.035  0.00  0.00    +0.027 C 
ATOM     11  C   UNL     1      16.533  -3.532  24.964  0.00  0.00    +0.054 C 
ATOM     12  C   UNL     1      15.793  -2.758  23.874  0.00  0.00    +0.018 C 
ATOM     13  C   UNL     1      17.652  -1.064  23.906  0.00  0.00    +0.113 C 
ATOM     14  C   UNL     1      17.724  -3.081  22.358  0.00  0.00    +0.130 C 
ATOM     15  C   UNL     1      17.323  -2.546  25.852  0.00  0.00    +0.117 C 
ATOM     16  C   UNL     1      17.482  -4.575  24.369  0.00  0.00    +0.034 A 
ATOM     17  C   UNL     1      17.757  -5.753  24.987  0.00  0.00    +0.002 A 
ATOM     18  C   UNL     1      19.054  -5.109  22.544  0.00  0.00    +0.252 A 
ATOM     19  C   UNL     1      19.634  -1.637  25.263  0.00  0.00    +0.247 C 
ATOM     20  C   UNL     1      18.730  -6.652  24.396  0.00  0.00    +0.015 A 
ATOM     21  C   UNL     1      19.365  -6.368  23.259  0.00  0.00    +0.071 A 
ENDROOT
BRANCH  19  23
ATOM      1  F   UNL     1      21.894  -4.533  29.481  0.00  0.00    -0.205 F 
ATOM     23  C   UNL     1      20.226  -2.398  26.370  0.00  0.00    +0.037 A 
ATOM     26  C   UNL     1      20.655  -3.705  26.161  0.00  0.00    +0.016 A 
ATOM     27  C   UNL     1      20.358  -1.806  27.624  0.00  0.00    +0.016 A 
ATOM     31  C   UNL     1      21.219  -4.428  27.213  0.00  0.00    +0.039 A 
ATOM     32  C   UNL     1      20.922  -2.528  28.676  0.00  0.00    +0.039 A 
ATOM     33  C   UNL     1      21.352  -3.839  28.470  0.00  0.00    +0.123 A 
ENDBRANCH  19  23
BRANCH  17  22
ATOM     22  C   UNL     1      17.104  -6.138  26.258  0.00  0.00    -0.016 A 
ATOM     24  C   UNL     1      15.866  -6.772  26.234  0.00  0.00    +0.012 A 
ATOM     25  C   UNL     1      17.734  -5.863  27.468  0.00  0.00    +0.012 A 
ATOM     28  C   UNL     1      15.250  -7.134  27.431  0.00  0.00    +0.046 A 
ATOM     29  C   UNL     1      17.119  -6.226  28.666  0.00  0.00    +0.046 A 
ATOM     30  C   UNL     1      15.877  -6.862  28.648  0.00  0.00    +0.130 A 
BRANCH  30   7
ATOM      7  O   UNL     1      15.276  -7.215  29.817  0.00  0.00    -0.406 OA
BRANCH   7  34
ATOM      2  F   UNL     1      14.668  -5.041  30.188  0.00  0.00    -0.133 F 
ATOM      3  F   UNL     1      14.227  -6.553  31.703  0.00  0.00    -0.133 F 
ATOM      4  F   UNL     1      13.088  -6.547  29.839  0.00  0.00    -0.133 F 
ATOM     34  C   UNL     1      14.309  -6.329  30.371  0.00  0.00    +0.575 C 
ENDBRANCH   7  34
ENDBRANCH  30   7
ENDBRANCH  17  22
TORSDOF 4
ENDMDL
MODEL 7
REMARK VINA RESULT:      -6.2     24.638     27.486
REMARK  Name = 7144182
REMARK  4 active torsions:
REMARK  status: ('A' for Active; 'I' for Inactive)
REMARK    1  A    between atoms: O_7  and  C_30
REMARK    2  A    between atoms: O_7  and  C_34
REMARK    3  A    between atoms: C_17  and  C_22
REMARK    4  A    between atoms: C_19  and  C_23
REMARK                            x       y       z     vdW  Elec       q    Type
REMARK                         _______ _______ _______ _____ _____    ______ ____
ROOT
ATOM      5  O   UNL     1      23.444  -4.839  24.659  0.00  0.00    -0.268 OA
ATOM      6  O   UNL     1      19.125  -4.897  21.995  0.00  0.00    -0.270 OA
ATOM      8  N   UNL     1      18.630  -5.855  24.070  0.00  0.00    -0.297 N 
ATOM      9  N   UNL     1      21.391  -5.514  25.563  0.00  0.00    -0.311 N 
ATOM     10  C   UNL     1      20.206  -7.643  24.760  0.00  0.00    +0.027 C 
ATOM     11  C   UNL     1      19.157  -6.220  26.471  0.00  0.00    +0.054 C 
ATOM     12  C   UNL     1      19.591  -7.650  26.153  0.00  0.00    +0.018 C 
ATOM     13  C   UNL     1      19.182  -7.162  23.719  0.00  0.00    +0.113 C 
ATOM     14  C   UNL     1      21.455  -6.760  24.787  0.00  0.00    +0.130 C 
ATOM     15  C   UNL     1      18.105  -5.758  25.439  0.00  0.00    +0.117 C 
ATOM     16  C   UNL     1      20.345  -5.257  26.473  0.00  0.00    +0.034 A 
ATOM     17  C   UNL     1      20.405  -4.168  27.284  0.00  0.00    +0.002 A 
ATOM     18  C   UNL     1      22.498  -4.658  25.426  0.00  0.00    +0.252 A 
ATOM     19  C   UNL     1      18.685  -4.813  23.140  0.00  0.00    +0.247 C 
ATOM     20  C   UNL     1      21.530  -3.260  27.167  0.00  0.00    +0.015 A 
ATOM     21  C   UNL     1      22.517  -3.457  26.293  0.00  0.00    +0.071 A 
ENDROOT
BRANCH  19  23
ATOM      1  F   UNL     1      16.826   0.223  24.708  0.00  0.00    -0.205 F 
ATOM     23  C   UNL     1      18.198  -3.491  23.550  0.00  0.00    +0.037 A 
ATOM     26  C   UNL     1      16.886  -3.120  23.273  0.00  0.00    +0.016 A 
ATOM     27  C   UNL     1      19.050  -2.615  24.218  0.00  0.00    +0.016 A 
ATOM     31  C   UNL     1      16.421  -1.864  23.664  0.00  0.00    +0.039 A 
ATOM     32  C   UNL     1      18.587  -1.359  24.609  0.00  0.00    +0.039 A 
ATOM     33  C   UNL     1      17.272  -0.983  24.333  0.00  0.00    +0.123 A 
ENDBRANCH  19  23
BRANCH  17  22
ATOM     22  C   UNL     1      19.344  -3.872  28.271  0.00  0.00    -0.016 A 
ATOM     24  C   UNL     1      19.367  -4.493  29.516  0.00  0.00    +0.012 A 
ATOM     25  C   UNL     1      18.331  -2.974  27.948  0.00  0.00    +0.012 A 
ATOM     28  C   UNL     1      18.367  -4.215  30.447  0.00  0.00    +0.046 A 
ATOM     29  C   UNL     1      17.331  -2.695  28.879  0.00  0.00    +0.046 A 
ATOM     30  C   UNL     1      17.349  -3.315  30.129  0.00  0.00    +0.130 A 
BRANCH  30   7
ATOM      7  O   UNL     1      16.372  -3.043  31.037  0.00  0.00    -0.406 OA
BRANCH   7  34
ATOM      2  F   UNL     1      15.065  -4.739  30.232  0.00  0.00    -0.133 F 
ATOM      3  F   UNL     1      14.327  -3.501  31.874  0.00  0.00    -0.133 F 
ATOM      4  F   UNL     1      15.934  -4.930  32.255  0.00  0.00    -0.133 F 
ATOM     34  C   UNL     1      15.434  -4.069  31.344  0.00  0.00    +0.575 C 
ENDBRANCH   7  34
ENDBRANCH  30   7
ENDBRANCH  17  22
TORSDOF 4
ENDMDL
MODEL 8
REMARK VINA RESULT:      -6.1      3.888      6.745
REMARK  Name = 7144182
REMARK  4 active torsions:
REMARK  status: ('A' for Active; 'I' for Inactive)
REMARK    1  A    between atoms: O_7  and  C_30
REMARK    2  A    between atoms: O_7  and  C_34
REMARK    3  A    between atoms: C_17  and  C_22
REMARK    4  A    between atoms: C_19  and  C_23
REMARK                            x       y       z     vdW  Elec       q    Type
REMARK                         _______ _______ _______ _____ _____    ______ ____
ROOT
ATOM      5  O   UNL     1      13.162  11.820   2.308  0.00  0.00    -0.268 OA
ATOM      6  O   UNL     1      15.324   7.288   1.573  0.00  0.00    -0.270 OA
ATOM      8  N   UNL     1      14.854   7.429   3.859  0.00  0.00    -0.297 N 
ATOM      9  N   UNL     1      13.364  10.209   3.997  0.00  0.00    -0.311 N 
ATOM     10  C   UNL     1      15.653   9.521   4.929  0.00  0.00    +0.027 C 
ATOM     11  C   UNL     1      13.608   8.435   5.760  0.00  0.00    +0.054 C 
ATOM     12  C   UNL     1      14.873   9.177   6.190  0.00  0.00    +0.018 C 
ATOM     13  C   UNL     1      16.030   8.244   4.160  0.00  0.00    +0.113 C 
ATOM     14  C   UNL     1      14.807  10.473   4.081  0.00  0.00    +0.130 C 
ATOM     15  C   UNL     1      13.997   7.138   5.018  0.00  0.00    +0.117 C 
ATOM     16  C   UNL     1      12.721   9.303   4.865  0.00  0.00    +0.034 A 
ATOM     17  C   UNL     1      11.366   9.205   4.860  0.00  0.00    +0.002 A 
ATOM     18  C   UNL     1      12.655  11.005   3.080  0.00  0.00    +0.252 A 
ATOM     19  C   UNL     1      14.604   7.043   2.540  0.00  0.00    +0.247 C 
ATOM     20  C   UNL     1      10.602  10.009   3.924  0.00  0.00    +0.015 A 
ATOM     21  C   UNL     1      11.182  10.848   3.067  0.00  0.00    +0.071 A 
ENDROOT
BRANCH  19  23
ATOM      1  F   UNL     1       9.912   4.194   1.469  0.00  0.00    -0.205 F 
ATOM     23  C   UNL     1      13.373   6.296   2.258  0.00  0.00    +0.037 A 
ATOM     26  C   UNL     1      13.414   4.909   2.153  0.00  0.00    +0.016 A 
ATOM     27  C   UNL     1      12.170   6.978   2.099  0.00  0.00    +0.016 A 
ATOM     31  C   UNL     1      12.243   4.197   1.886  0.00  0.00    +0.039 A 
ATOM     32  C   UNL     1      10.999   6.267   1.832  0.00  0.00    +0.039 A 
ATOM     33  C   UNL     1      11.036   4.877   1.725  0.00  0.00    +0.123 A 
ENDBRANCH  19  23
BRANCH  17  22
ATOM     22  C   UNL     1      10.647   8.288   5.771  0.00  0.00    -0.016 A 
ATOM     24  C   UNL     1      10.224   8.742   7.016  0.00  0.00    +0.012 A 
ATOM     25  C   UNL     1      10.397   6.977   5.375  0.00  0.00    +0.012 A 
ATOM     28  C   UNL     1       9.546   7.878   7.875  0.00  0.00    +0.046 A 
ATOM     29  C   UNL     1       9.720   6.112   6.234  0.00  0.00    +0.046 A 
ATOM     30  C   UNL     1       9.293   6.562   7.484  0.00  0.00    +0.130 A 
BRANCH  30   7
ATOM      7  O   UNL     1       8.633   5.719   8.323  0.00  0.00    -0.406 OA
BRANCH   7  34
ATOM      2  F   UNL     1       8.782   4.795  10.410  0.00  0.00    -0.133 F 
ATOM      3  F   UNL     1      10.591   5.527   9.428  0.00  0.00    -0.133 F 
ATOM      4  F   UNL     1       9.643   3.700   8.695  0.00  0.00    -0.133 F 
ATOM     34  C   UNL     1       9.400   4.921   9.217  0.00  0.00    +0.575 C 
ENDBRANCH   7  34
ENDBRANCH  30   7
ENDBRANCH  17  22
TORSDOF 4
ENDMDL
MODEL 9
REMARK VINA RESULT:      -6.0     25.775     28.672
REMARK  Name = 7144182
REMARK  4 active torsions:
REMARK  status: ('A' for Active; 'I' for Inactive)
REMARK    1  A    between atoms: O_7  and  C_30
REMARK    2  A    between atoms: O_7  and  C_34
REMARK    3  A    between atoms: C_17  and  C_22
REMARK    4  A    between atoms: C_19  and  C_23
REMARK                            x       y       z     vdW  Elec       q    Type
REMARK                         _______ _______ _______ _____ _____    ______ ____
ROOT
ATOM      5  O   UNL     1      -5.317 -14.818  11.789  0.00  0.00    -0.268 OA
ATOM      6  O   UNL     1      -2.406 -12.236  15.046  0.00  0.00    -0.270 OA
ATOM      8  N   UNL     1      -3.919 -10.694  14.152  0.00  0.00    -0.297 N 
ATOM      9  N   UNL     1      -5.699 -12.575  12.346  0.00  0.00    -0.311 N 
ATOM     10  C   UNL     1      -4.052 -10.727  11.674  0.00  0.00    +0.027 C 
ATOM     11  C   UNL     1      -6.054 -10.172  12.991  0.00  0.00    +0.054 C 
ATOM     12  C   UNL     1      -5.274  -9.821  11.725  0.00  0.00    +0.018 C 
ATOM     13  C   UNL     1      -3.166 -10.511  12.912  0.00  0.00    +0.113 C 
ATOM     14  C   UNL     1      -4.527 -12.176  11.554  0.00  0.00    +0.130 C 
ATOM     15  C   UNL     1      -5.168  -9.922  14.230  0.00  0.00    +0.117 C 
ATOM     16  C   UNL     1      -6.531 -11.626  12.975  0.00  0.00    +0.034 A 
ATOM     17  C   UNL     1      -7.688 -12.025  13.564  0.00  0.00    +0.002 A 
ATOM     18  C   UNL     1      -5.999 -13.948  12.333  0.00  0.00    +0.252 A 
ATOM     19  C   UNL     1      -3.451 -11.591  15.114  0.00  0.00    +0.247 C 
ATOM     20  C   UNL     1      -8.028 -13.435  13.573  0.00  0.00    +0.015 A 
ATOM     21  C   UNL     1      -7.247 -14.360  13.017  0.00  0.00    +0.071 A 
ENDROOT
BRANCH  19  23
ATOM      1  F   UNL     1      -6.579 -12.438  19.673  0.00  0.00    -0.205 F 
ATOM     23  C   UNL     1      -4.271 -11.815  16.311  0.00  0.00    +0.037 A 
ATOM     26  C   UNL     1      -4.056 -11.046  17.451  0.00  0.00    +0.016 A 
ATOM     27  C   UNL     1      -5.263 -12.792  16.299  0.00  0.00    +0.016 A 
ATOM     31  C   UNL     1      -4.836 -11.256  18.589  0.00  0.00    +0.039 A 
ATOM     32  C   UNL     1      -6.043 -13.003  17.436  0.00  0.00    +0.039 A 
ATOM     33  C   UNL     1      -5.830 -12.235  18.581  0.00  0.00    +0.123 A 
ENDBRANCH  19  23
BRANCH  17  22
ATOM     22  C   UNL     1      -8.604 -11.062  14.213  0.00  0.00    -0.016 A 
ATOM     24  C   UNL     1      -9.527 -10.360  13.444  0.00  0.00    +0.012 A 
ATOM     25  C   UNL     1      -8.538 -10.866  15.589  0.00  0.00    +0.012 A 
ATOM     28  C   UNL     1     -10.391  -9.451  14.055  0.00  0.00    +0.046 A 
ATOM     29  C   UNL     1      -9.402  -9.958  16.202  0.00  0.00    +0.046 A 
ATOM     30  C   UNL     1     -10.329  -9.251  15.435  0.00  0.00    +0.130 A 
BRANCH  30   7
ATOM      7  O   UNL     1     -11.171  -8.364  16.032  0.00  0.00    -0.406 OA
BRANCH   7  34
ATOM      2  F   UNL     1     -10.083  -7.297  17.737  0.00  0.00    -0.133 F 
ATOM      3  F   UNL     1     -11.627  -6.233  16.617  0.00  0.00    -0.133 F 
ATOM      4  F   UNL     1      -9.707  -6.646  15.659  0.00  0.00    -0.133 F 
ATOM     34  C   UNL     1     -10.629  -7.139  16.513  0.00  0.00    +0.575 C 
ENDBRANCH   7  34
ENDBRANCH  30   7
ENDBRANCH  17  22
TORSDOF 4
ENDMDL
MODEL 10
REMARK VINA RESULT:      -5.9     19.083     21.820
REMARK  Name = 7144182
REMARK  4 active torsions:
REMARK  status: ('A' for Active; 'I' for Inactive)
REMARK    1  A    between atoms: O_7  and  C_30
REMARK    2  A    between atoms: O_7  and  C_34
REMARK    3  A    between atoms: C_17  and  C_22
REMARK    4  A    between atoms: C_19  and  C_23
REMARK                            x       y       z     vdW  Elec       q    Type
REMARK                         _______ _______ _______ _____ _____    ______ ____
ROOT
ATOM      5  O   UNL     1      17.766 -17.422   3.294  0.00  0.00    -0.268 OA
ATOM      6  O   UNL     1      15.591 -13.810   0.470  0.00  0.00    -0.270 OA
ATOM      8  N   UNL     1      16.201 -12.791   2.484  0.00  0.00    -0.297 N 
ATOM      9  N   UNL     1      17.681 -15.171   3.938  0.00  0.00    -0.311 N 
ATOM     10  C   UNL     1      15.459 -14.022   4.507  0.00  0.00    +0.027 C 
ATOM     11  C   UNL     1      17.558 -12.741   4.566  0.00  0.00    +0.054 C 
ATOM     12  C   UNL     1      16.318 -13.115   5.377  0.00  0.00    +0.018 C 
ATOM     13  C   UNL     1      15.041 -13.297   3.216  0.00  0.00    +0.113 C 
ATOM     14  C   UNL     1      16.243 -15.303   4.218  0.00  0.00    +0.130 C 
ATOM     15  C   UNL     1      17.131 -11.985   3.289  0.00  0.00    +0.117 C 
ATOM     16  C   UNL     1      18.382 -13.975   4.193  0.00  0.00    +0.034 A 
ATOM     17  C   UNL     1      19.735 -13.944   4.069  0.00  0.00    +0.002 A 
ATOM     18  C   UNL     1      18.326 -16.347   3.518  0.00  0.00    +0.252 A 
ATOM     19  C   UNL     1      16.371 -13.136   1.141  0.00  0.00    +0.247 C 
ATOM     20  C   UNL     1      20.433 -15.138   3.634  0.00  0.00    +0.015 A 
ATOM     21  C   UNL     1      19.796 -16.274   3.353  0.00  0.00    +0.071 A 
ENDROOT
BRANCH  19  23
ATOM      1  F   UNL     1      21.001 -11.405  -1.475  0.00  0.00    -0.205 F 
ATOM     23  C   UNL     1      17.586 -12.681   0.456  0.00  0.00    +0.037 A 
ATOM     26  C   UNL     1      18.753 -13.435   0.541  0.00  0.00    +0.016 A 
ATOM     27  C   UNL     1      17.566 -11.499  -0.279  0.00  0.00    +0.016 A 
ATOM     31  C   UNL     1      19.909 -13.004  -0.112  0.00  0.00    +0.039 A 
ATOM     32  C   UNL     1      18.720 -11.067  -0.932  0.00  0.00    +0.039 A 
ATOM     33  C   UNL     1      19.892 -11.820  -0.849  0.00  0.00    +0.123 A 
ENDBRANCH  19  23
BRANCH  17  22
ATOM     22  C   UNL     1      20.515 -12.718   4.350  0.00  0.00    -0.016 A 
ATOM     24  C   UNL     1      20.942 -12.454   5.648  0.00  0.00    +0.012 A 
ATOM     25  C   UNL     1      20.816 -11.839   3.314  0.00  0.00    +0.012 A 
ATOM     28  C   UNL     1      21.678 -11.299   5.913  0.00  0.00    +0.046 A 
ATOM     29  C   UNL     1      21.552 -10.684   3.579  0.00  0.00    +0.046 A 
ATOM     30  C   UNL     1      21.983 -10.414   4.878  0.00  0.00    +0.130 A 
BRANCH  30   7
ATOM      7  O   UNL     1      22.700  -9.287   5.137  0.00  0.00    -0.406 OA
BRANCH   7  34
ATOM      2  F   UNL     1      20.983  -8.065   4.247  0.00  0.00    -0.133 F 
ATOM      3  F   UNL     1      22.884  -7.082   4.688  0.00  0.00    -0.133 F 
ATOM      4  F   UNL     1      21.588  -7.689   6.339  0.00  0.00    -0.133 F 
ATOM     34  C   UNL     1      22.021  -8.036   5.109  0.00  0.00    +0.575 C 
ENDBRANCH   7  34
ENDBRANCH  30   7
ENDBRANCH  17  22
TORSDOF 4
ENDMDL
