MODEL 1
REMARK VINA RESULT:      -7.4      0.000      0.000
REMARK  Name = 26743862
REMARK  5 active torsions:
REMARK  status: ('A' for Active; 'I' for Inactive)
REMARK    1  A    between atoms: O_2  and  C_11
REMARK    2  A    between atoms: N_4  and  C_7
REMARK    3  A    between atoms: C_8  and  C_14
REMARK    4  A    between atoms: C_17  and  C_18
REMARK    5  A    between atoms: C_21  and  C_24
REMARK                            x       y       z     vdW  Elec       q    Type
REMARK                         _______ _______ _______ _____ _____    ______ ____
ROOT
ATOM      4  N   UNL     1      13.424   8.439  19.242  0.00  0.00    -0.286 NA
ATOM      8  C   UNL     1      14.120   7.288  18.633  0.00  0.00    +0.149 C 
ATOM      9  C   UNL     1      12.533   8.975  18.215  0.00  0.00    +0.116 C 
ATOM     10  C   UNL     1      14.154   7.601  17.125  0.00  0.00    +0.061 C 
ATOM     11  C   UNL     1      13.413   8.923  16.980  0.00  0.00    +0.130 C 
ENDROOT
BRANCH   4   7
ATOM      1  O   UNL     1      10.241   7.351  21.756  0.00  0.00    -0.380 OA
ATOM      7  C   UNL     1      12.706   8.095  20.468  0.00  0.00    +0.062 C 
ATOM     12  C   UNL     1      11.578   9.098  20.723  0.00  0.00    +0.047 C 
ATOM     13  C   UNL     1      12.139   6.675  20.395  0.00  0.00    +0.047 C 
ATOM     15  C   UNL     1      10.752   8.671  21.932  0.00  0.00    +0.161 C 
ATOM     16  C   UNL     1      11.283   6.382  21.622  0.00  0.00    +0.161 C 
ENDBRANCH   4   7
BRANCH   8  14
ATOM      3  O   UNL     1      16.196   6.002  18.739  0.00  0.00    -0.336 OA
ATOM      5  N   UNL     1      16.136   7.758  20.128  0.00  0.00    -0.190 NA
ATOM      6  N   UNL     1      17.421   6.003  19.418  0.00  0.00    -0.056 NA
ATOM     14  C   UNL     1      15.500   7.067  19.217  0.00  0.00    +0.245 A 
ATOM     17  C   UNL     1      17.310   7.067  20.219  0.00  0.00    +0.202 A 
BRANCH  17  18
ATOM     18  C   UNL     1      18.352   7.468  21.118  0.00  0.00    +0.023 A 
ATOM     19  C   UNL     1      18.431   8.792  21.550  0.00  0.00    +0.015 A 
ATOM     20  C   UNL     1      19.286   6.532  21.563  0.00  0.00    +0.012 A 
ATOM     21  C   UNL     1      19.445   9.180  22.427  0.00  0.00    -0.050 A 
ATOM     22  C   UNL     1      20.300   6.921  22.440  0.00  0.00    +0.001 A 
ATOM     23  C   UNL     1      20.379   8.244  22.872  0.00  0.00    +0.003 A 
ATOM     24  C   UNL     1      19.529  10.596  22.888  0.00  0.00    +0.044 C 
ENDBRANCH  17  18
ENDBRANCH   8  14
BRANCH  11   2
ATOM      2  O   UNL     1      12.650   8.943  15.790  0.00  0.00    -0.390 OA
ATOM     25  H   UNL     1      12.777   8.087  15.348  0.00  0.00    +0.210 HD
ENDBRANCH  11   2
TORSDOF 4
ENDMDL
MODEL 2
REMARK VINA RESULT:      -6.5     31.010     32.736
REMARK  Name = 26743862
REMARK  5 active torsions:
REMARK  status: ('A' for Active; 'I' for Inactive)
REMARK    1  A    between atoms: O_2  and  C_11
REMARK    2  A    between atoms: N_4  and  C_7
REMARK    3  A    between atoms: C_8  and  C_14
REMARK    4  A    between atoms: C_17  and  C_18
REMARK    5  A    between atoms: C_21  and  C_24
REMARK                            x       y       z     vdW  Elec       q    Type
REMARK                         _______ _______ _______ _____ _____    ______ ____
ROOT
ATOM      4  N   UNL     1     -15.106   2.258  29.861  0.00  0.00    -0.286 NA
ATOM      8  C   UNL     1     -15.497   1.915  31.243  0.00  0.00    +0.149 C 
ATOM      9  C   UNL     1     -14.962   0.991  29.145  0.00  0.00    +0.116 C 
ATOM     10  C   UNL     1     -14.903   0.514  31.484  0.00  0.00    +0.061 C 
ATOM     11  C   UNL     1     -14.239   0.135  30.168  0.00  0.00    +0.130 C 
ENDROOT
BRANCH   4   7
ATOM      1  O   UNL     1     -18.191   3.533  27.314  0.00  0.00    -0.380 OA
ATOM      7  C   UNL     1     -16.050   3.158  29.201  0.00  0.00    +0.062 C 
ATOM     12  C   UNL     1     -15.819   3.154  27.688  0.00  0.00    +0.047 C 
ATOM     13  C   UNL     1     -17.496   2.764  29.513  0.00  0.00    +0.047 C 
ATOM     15  C   UNL     1     -16.881   3.997  26.988  0.00  0.00    +0.161 C 
ATOM     16  C   UNL     1     -18.464   3.628  28.713  0.00  0.00    +0.161 C 
ENDBRANCH   4   7
BRANCH   8  14
ATOM      3  O   UNL     1     -15.014   2.544  33.555  0.00  0.00    -0.336 OA
ATOM      5  N   UNL     1     -14.602   4.161  32.062  0.00  0.00    -0.190 NA
ATOM      6  N   UNL     1     -14.541   3.639  34.288  0.00  0.00    -0.056 NA
ATOM     14  C   UNL     1     -15.019   2.936  32.254  0.00  0.00    +0.245 A 
ATOM     17  C   UNL     1     -14.320   4.553  33.339  0.00  0.00    +0.202 A 
BRANCH  17  18
ATOM     18  C   UNL     1     -13.818   5.864  33.632  0.00  0.00    +0.023 A 
ATOM     19  C   UNL     1     -13.485   6.732  32.592  0.00  0.00    +0.015 A 
ATOM     20  C   UNL     1     -13.663   6.271  34.957  0.00  0.00    +0.012 A 
ATOM     21  C   UNL     1     -12.998   8.008  32.878  0.00  0.00    -0.050 A 
ATOM     22  C   UNL     1     -13.176   7.547  35.242  0.00  0.00    +0.001 A 
ATOM     23  C   UNL     1     -12.844   8.415  34.203  0.00  0.00    +0.003 A 
ATOM     24  C   UNL     1     -12.643   8.936  31.766  0.00  0.00    +0.044 C 
ENDBRANCH  17  18
ENDBRANCH   8  14
BRANCH  11   2
ATOM      2  O   UNL     1     -14.398  -1.245  29.904  0.00  0.00    -0.390 OA
ATOM     25  H   UNL     1     -15.333  -1.465  30.054  0.00  0.00    +0.210 HD
ENDBRANCH  11   2
TORSDOF 4
ENDMDL
MODEL 3
REMARK VINA RESULT:      -6.5     27.193     28.998
REMARK  Name = 26743862
REMARK  5 active torsions:
REMARK  status: ('A' for Active; 'I' for Inactive)
REMARK    1  A    between atoms: O_2  and  C_11
REMARK    2  A    between atoms: N_4  and  C_7
REMARK    3  A    between atoms: C_8  and  C_14
REMARK    4  A    between atoms: C_17  and  C_18
REMARK    5  A    between atoms: C_21  and  C_24
REMARK                            x       y       z     vdW  Elec       q    Type
REMARK                         _______ _______ _______ _____ _____    ______ ____
ROOT
ATOM      4  N   UNL     1      -7.535 -11.051  17.771  0.00  0.00    -0.286 NA
ATOM      8  C   UNL     1      -6.257 -10.361  17.504  0.00  0.00    +0.149 C 
ATOM      9  C   UNL     1      -7.632 -11.197  19.222  0.00  0.00    +0.116 C 
ATOM     10  C   UNL     1      -5.349 -10.742  18.689  0.00  0.00    +0.061 C 
ATOM     11  C   UNL     1      -6.219 -11.608  19.590  0.00  0.00    +0.130 C 
ENDROOT
BRANCH   4   7
ATOM      1  O   UNL     1     -10.901  -8.548  17.578  0.00  0.00    -0.380 OA
ATOM      7  C   UNL     1      -8.692 -10.357  17.209  0.00  0.00    +0.062 C 
ATOM     12  C   UNL     1      -9.967 -10.761  17.954  0.00  0.00    +0.047 C 
ATOM     13  C   UNL     1      -8.507  -8.839  17.269  0.00  0.00    +0.047 C 
ATOM     15  C   UNL     1     -11.155  -9.947  17.450  0.00  0.00    +0.161 C 
ATOM     16  C   UNL     1      -9.775  -8.132  16.804  0.00  0.00    +0.161 C 
ENDBRANCH   4   7
BRANCH   8  14
ATOM      3  O   UNL     1      -5.758 -12.044  15.803  0.00  0.00    -0.336 OA
ATOM      5  N   UNL     1      -5.051  -9.983  15.286  0.00  0.00    -0.190 NA
ATOM      6  N   UNL     1      -5.145 -12.146  14.549  0.00  0.00    -0.056 NA
ATOM     14  C   UNL     1      -5.660 -10.738  16.165  0.00  0.00    +0.245 A 
ATOM     17  C   UNL     1      -4.753 -10.892  14.311  0.00  0.00    +0.202 A 
BRANCH  17  18
ATOM     18  C   UNL     1      -4.064 -10.511  13.112  0.00  0.00    +0.023 A 
ATOM     19  C   UNL     1      -4.770  -9.942  12.052  0.00  0.00    +0.015 A 
ATOM     20  C   UNL     1      -2.687 -10.710  13.008  0.00  0.00    +0.012 A 
ATOM     21  C   UNL     1      -4.098  -9.571  10.887  0.00  0.00    -0.050 A 
ATOM     22  C   UNL     1      -2.017 -10.338  11.842  0.00  0.00    +0.001 A 
ATOM     23  C   UNL     1      -2.721  -9.769  10.782  0.00  0.00    +0.003 A 
ATOM     24  C   UNL     1      -4.852  -8.963   9.754  0.00  0.00    +0.044 C 
ENDBRANCH  17  18
ENDBRANCH   8  14
BRANCH  11   2
ATOM      2  O   UNL     1      -5.937 -11.357  20.953  0.00  0.00    -0.390 OA
ATOM     25  H   UNL     1      -6.776 -11.417  21.440  0.00  0.00    +0.210 HD
ENDBRANCH  11   2
TORSDOF 4
ENDMDL
MODEL 4
REMARK VINA RESULT:      -6.5     16.455     19.988
REMARK  Name = 26743862
REMARK  5 active torsions:
REMARK  status: ('A' for Active; 'I' for Inactive)
REMARK    1  A    between atoms: O_2  and  C_11
REMARK    2  A    between atoms: N_4  and  C_7
REMARK    3  A    between atoms: C_8  and  C_14
REMARK    4  A    between atoms: C_17  and  C_18
REMARK    5  A    between atoms: C_21  and  C_24
REMARK                            x       y       z     vdW  Elec       q    Type
REMARK                         _______ _______ _______ _____ _____    ______ ____
ROOT
ATOM      4  N   UNL     1      13.339   4.431  -0.334  0.00  0.00    -0.286 NA
ATOM      8  C   UNL     1      13.515   3.995   1.066  0.00  0.00    +0.149 C 
ATOM      9  C   UNL     1      14.536   4.001  -1.055  0.00  0.00    +0.116 C 
ATOM     10  C   UNL     1      15.040   3.959   1.279  0.00  0.00    +0.061 C 
ATOM     11  C   UNL     1      15.635   4.345  -0.068  0.00  0.00    +0.130 C 
ENDROOT
BRANCH   4   7
ATOM      1  O   UNL     1      10.555   3.455  -3.322  0.00  0.00    -0.380 OA
ATOM      7  C   UNL     1      12.114   3.921  -0.947  0.00  0.00    +0.062 C 
ATOM     12  C   UNL     1      11.378   5.046  -1.679  0.00  0.00    +0.047 C 
ATOM     13  C   UNL     1      12.419   2.775  -1.916  0.00  0.00    +0.047 C 
ATOM     15  C   UNL     1      10.166   4.491  -2.421  0.00  0.00    +0.161 C 
ATOM     16  C   UNL     1      11.151   2.347  -2.645  0.00  0.00    +0.161 C 
ENDBRANCH   4   7
BRANCH   8  14
ATOM      3  O   UNL     1      13.406   6.090   2.319  0.00  0.00    -0.336 OA
ATOM      5  N   UNL     1      11.685   4.708   2.698  0.00  0.00    -0.190 NA
ATOM      6  N   UNL     1      12.579   6.742   3.243  0.00  0.00    -0.056 NA
ATOM     14  C   UNL     1      12.807   4.900   2.052  0.00  0.00    +0.245 A 
ATOM     17  C   UNL     1      11.587   5.865   3.416  0.00  0.00    +0.202 A 
BRANCH  17  18
ATOM     18  C   UNL     1      10.482   6.112   4.297  0.00  0.00    +0.023 A 
ATOM     19  C   UNL     1      10.528   5.665   5.617  0.00  0.00    +0.015 A 
ATOM     20  C   UNL     1       9.362   6.803   3.832  0.00  0.00    +0.012 A 
ATOM     21  C   UNL     1       9.453   5.908   6.473  0.00  0.00    -0.050 A 
ATOM     22  C   UNL     1       8.288   7.045   4.689  0.00  0.00    +0.001 A 
ATOM     23  C   UNL     1       8.333   6.599   6.009  0.00  0.00    +0.003 A 
ATOM     24  C   UNL     1       9.502   5.430   7.885  0.00  0.00    +0.044 C 
ENDBRANCH  17  18
ENDBRANCH   8  14
BRANCH  11   2
ATOM      2  O   UNL     1      16.818   3.612  -0.323  0.00  0.00    -0.390 OA
ATOM     25  H   UNL     1      16.576   2.671  -0.355  0.00  0.00    +0.210 HD
ENDBRANCH  11   2
TORSDOF 4
ENDMDL
MODEL 5
REMARK VINA RESULT:      -6.3     16.943     20.594
REMARK  Name = 26743862
REMARK  5 active torsions:
REMARK  status: ('A' for Active; 'I' for Inactive)
REMARK    1  A    between atoms: O_2  and  C_11
REMARK    2  A    between atoms: N_4  and  C_7
REMARK    3  A    between atoms: C_8  and  C_14
REMARK    4  A    between atoms: C_17  and  C_18
REMARK    5  A    between atoms: C_21  and  C_24
REMARK                            x       y       z     vdW  Elec       q    Type
REMARK                         _______ _______ _______ _____ _____    ______ ____
ROOT
ATOM      4  N   UNL     1      13.038   4.191  -0.356  0.00  0.00    -0.286 NA
ATOM      8  C   UNL     1      12.965   3.482   0.937  0.00  0.00    +0.149 C 
ATOM      9  C   UNL     1      14.412   4.044  -0.832  0.00  0.00    +0.116 C 
ATOM     10  C   UNL     1      14.396   3.548   1.504  0.00  0.00    +0.061 C 
ATOM     11  C   UNL     1      15.209   4.271   0.439  0.00  0.00    +0.130 C 
ENDROOT
BRANCH   4   7
ATOM      1  O   UNL     1      10.848   3.960  -3.931  0.00  0.00    -0.380 OA
ATOM      7  C   UNL     1      12.063   3.710  -1.333  0.00  0.00    +0.062 C 
ATOM     12  C   UNL     1      11.054   4.813  -1.664  0.00  0.00    +0.047 C 
ATOM     13  C   UNL     1      12.756   3.231  -2.612  0.00  0.00    +0.047 C 
ATOM     15  C   UNL     1      10.112   4.354  -2.773  0.00  0.00    +0.161 C 
ATOM     16  C   UNL     1      11.721   2.860  -3.668  0.00  0.00    +0.161 C 
ENDBRANCH   4   7
BRANCH   8  14
ATOM      3  O   UNL     1      11.485   3.278   2.871  0.00  0.00    -0.336 OA
ATOM      5  N   UNL     1      11.404   5.276   1.865  0.00  0.00    -0.190 NA
ATOM      6  N   UNL     1      10.557   4.039   3.592  0.00  0.00    -0.056 NA
ATOM     14  C   UNL     1      11.936   4.081   1.873  0.00  0.00    +0.245 A 
ATOM     17  C   UNL     1      10.564   5.204   2.939  0.00  0.00    +0.202 A 
BRANCH  17  18
ATOM     18  C   UNL     1       9.746   6.314   3.332  0.00  0.00    +0.023 A 
ATOM     19  C   UNL     1       9.352   6.455   4.662  0.00  0.00    +0.015 A 
ATOM     20  C   UNL     1       9.348   7.256   2.382  0.00  0.00    +0.012 A 
ATOM     21  C   UNL     1       8.558   7.538   5.043  0.00  0.00    -0.050 A 
ATOM     22  C   UNL     1       8.554   8.337   2.765  0.00  0.00    +0.001 A 
ATOM     23  C   UNL     1       8.159   8.479   4.094  0.00  0.00    +0.003 A 
ATOM     24  C   UNL     1       8.136   7.688   6.466  0.00  0.00    +0.044 C 
ENDBRANCH  17  18
ENDBRANCH   8  14
BRANCH  11   2
ATOM      2  O   UNL     1      16.511   3.729   0.347  0.00  0.00    -0.390 OA
ATOM     25  H   UNL     1      16.445   2.894  -0.148  0.00  0.00    +0.210 HD
ENDBRANCH  11   2
TORSDOF 4
ENDMDL
MODEL 6
REMARK VINA RESULT:      -6.3     27.038     28.819
REMARK  Name = 26743862
REMARK  5 active torsions:
REMARK  status: ('A' for Active; 'I' for Inactive)
REMARK    1  A    between atoms: O_2  and  C_11
REMARK    2  A    between atoms: N_4  and  C_7
REMARK    3  A    between atoms: C_8  and  C_14
REMARK    4  A    between atoms: C_17  and  C_18
REMARK    5  A    between atoms: C_21  and  C_24
REMARK                            x       y       z     vdW  Elec       q    Type
REMARK                         _______ _______ _______ _____ _____    ______ ____
ROOT
ATOM      4  N   UNL     1      -4.579 -11.344  10.611  0.00  0.00    -0.286 NA
ATOM      8  C   UNL     1      -3.354 -10.694  11.118  0.00  0.00    +0.149 C 
ATOM      9  C   UNL     1      -4.877 -10.719   9.324  0.00  0.00    +0.116 C 
ATOM     10  C   UNL     1      -3.369  -9.286  10.495  0.00  0.00    +0.061 C 
ATOM     11  C   UNL     1      -4.614  -9.255   9.619  0.00  0.00    +0.130 C 
ENDROOT
BRANCH   4   7
ATOM      1  O   UNL     1      -5.480 -15.287   9.480  0.00  0.00    -0.380 OA
ATOM      7  C   UNL     1      -4.458 -12.797  10.502  0.00  0.00    +0.062 C 
ATOM     12  C   UNL     1      -5.694 -13.479  11.092  0.00  0.00    +0.047 C 
ATOM     13  C   UNL     1      -4.265 -13.226   9.045  0.00  0.00    +0.047 C 
ATOM     15  C   UNL     1      -5.625 -14.987  10.868  0.00  0.00    +0.161 C 
ATOM     16  C   UNL     1      -4.276 -14.746   8.935  0.00  0.00    +0.161 C 
ENDBRANCH   4   7
BRANCH   8  14
ATOM      3  O   UNL     1      -2.057 -10.561  13.185  0.00  0.00    -0.336 OA
ATOM      5  N   UNL     1      -4.267 -10.727  13.502  0.00  0.00    -0.190 NA
ATOM      6  N   UNL     1      -2.253 -10.555  14.572  0.00  0.00    -0.056 NA
ATOM     14  C   UNL     1      -3.293 -10.666  12.631  0.00  0.00    +0.245 A 
ATOM     17  C   UNL     1      -3.580 -10.656  14.679  0.00  0.00    +0.202 A 
BRANCH  17  18
ATOM     18  C   UNL     1      -4.252 -10.688  15.946  0.00  0.00    +0.023 A 
ATOM     19  C   UNL     1      -3.673 -11.350  17.028  0.00  0.00    +0.015 A 
ATOM     20  C   UNL     1      -5.486 -10.053  16.096  0.00  0.00    +0.012 A 
ATOM     21  C   UNL     1      -4.327 -11.378  18.260  0.00  0.00    -0.050 A 
ATOM     22  C   UNL     1      -6.139 -10.082  17.328  0.00  0.00    +0.001 A 
ATOM     23  C   UNL     1      -5.560 -10.744  18.410  0.00  0.00    +0.003 A 
ATOM     24  C   UNL     1      -3.707 -12.086  19.417  0.00  0.00    +0.044 C 
ENDBRANCH  17  18
ENDBRANCH   8  14
BRANCH  11   2
ATOM      2  O   UNL     1      -4.379  -8.514   8.438  0.00  0.00    -0.390 OA
ATOM     25  H   UNL     1      -4.981  -7.751   8.447  0.00  0.00    +0.210 HD
ENDBRANCH  11   2
TORSDOF 4
ENDMDL
MODEL 7
REMARK VINA RESULT:      -6.1     22.723     26.615
REMARK  Name = 26743862
REMARK  5 active torsions:
REMARK  status: ('A' for Active; 'I' for Inactive)
REMARK    1  A    between atoms: O_2  and  C_11
REMARK    2  A    between atoms: N_4  and  C_7
REMARK    3  A    between atoms: C_8  and  C_14
REMARK    4  A    between atoms: C_17  and  C_18
REMARK    5  A    between atoms: C_21  and  C_24
REMARK                            x       y       z     vdW  Elec       q    Type
REMARK                         _______ _______ _______ _____ _____    ______ ____
ROOT
ATOM      4  N   UNL     1      -3.249   8.669   4.612  0.00  0.00    -0.286 NA
ATOM      8  C   UNL     1      -2.747   9.971   4.129  0.00  0.00    +0.149 C 
ATOM      9  C   UNL     1      -2.921   8.600   6.035  0.00  0.00    +0.116 C 
ATOM     10  C   UNL     1      -1.564  10.305   5.059  0.00  0.00    +0.061 C 
ATOM     11  C   UNL     1      -1.510   9.157   6.057  0.00  0.00    +0.130 C 
ENDROOT
BRANCH   4   7
ATOM      1  O   UNL     1      -7.293   7.850   5.394  0.00  0.00    -0.380 OA
ATOM      7  C   UNL     1      -4.677   8.475   4.367  0.00  0.00    +0.062 C 
ATOM     12  C   UNL     1      -5.092   7.050   4.740  0.00  0.00    +0.047 C 
ATOM     13  C   UNL     1      -5.513   9.489   5.152  0.00  0.00    +0.047 C 
ATOM     15  C   UNL     1      -6.603   6.885   4.601  0.00  0.00    +0.161 C 
ATOM     16  C   UNL     1      -6.999   9.189   4.991  0.00  0.00    +0.161 C 
ENDBRANCH   4   7
BRANCH   8  14
ATOM      3  O   UNL     1      -1.086   9.529   2.391  0.00  0.00    -0.336 OA
ATOM      5  N   UNL     1      -3.057  10.249   1.610  0.00  0.00    -0.190 NA
ATOM      6  N   UNL     1      -0.956   9.582   0.998  0.00  0.00    -0.056 NA
ATOM     14  C   UNL     1      -2.352   9.938   2.668  0.00  0.00    +0.245 A 
ATOM     17  C   UNL     1      -2.159  10.015   0.610  0.00  0.00    +0.202 A 
BRANCH  17  18
ATOM     18  C   UNL     1      -2.496  10.223  -0.769  0.00  0.00    +0.023 A 
ATOM     19  C   UNL     1      -3.832  10.215  -1.170  0.00  0.00    +0.015 A 
ATOM     20  C   UNL     1      -1.487  10.435  -1.708  0.00  0.00    +0.012 A 
ATOM     21  C   UNL     1      -4.159  10.419  -2.511  0.00  0.00    -0.050 A 
ATOM     22  C   UNL     1      -1.814  10.639  -3.049  0.00  0.00    +0.001 A 
ATOM     23  C   UNL     1      -3.149  10.631  -3.451  0.00  0.00    +0.003 A 
ATOM     24  C   UNL     1      -5.587  10.411  -2.939  0.00  0.00    +0.044 C 
ENDBRANCH  17  18
ENDBRANCH   8  14
BRANCH  11   2
ATOM      2  O   UNL     1      -1.151   9.626   7.342  0.00  0.00    -0.390 OA
ATOM     25  H   UNL     1      -1.836   9.325   7.964  0.00  0.00    +0.210 HD
ENDBRANCH  11   2
TORSDOF 4
ENDMDL
MODEL 8
REMARK VINA RESULT:      -6.0     26.232     29.269
REMARK  Name = 26743862
REMARK  5 active torsions:
REMARK  status: ('A' for Active; 'I' for Inactive)
REMARK    1  A    between atoms: O_2  and  C_11
REMARK    2  A    between atoms: N_4  and  C_7
REMARK    3  A    between atoms: C_8  and  C_14
REMARK    4  A    between atoms: C_17  and  C_18
REMARK    5  A    between atoms: C_21  and  C_24
REMARK                            x       y       z     vdW  Elec       q    Type
REMARK                         _______ _______ _______ _____ _____    ______ ____
ROOT
ATOM      4  N   UNL     1      -8.741 -11.182  17.780  0.00  0.00    -0.286 NA
ATOM      8  C   UNL     1      -7.706 -11.097  18.830  0.00  0.00    +0.149 C 
ATOM      9  C   UNL     1      -9.901 -11.827  18.393  0.00  0.00    +0.116 C 
ATOM     10  C   UNL     1      -8.005 -12.277  19.774  0.00  0.00    +0.061 C 
ATOM     11  C   UNL     1      -9.251 -12.937  19.199  0.00  0.00    +0.130 C 
ENDROOT
BRANCH   4   7
ATOM      1  O   UNL     1     -11.004  -8.200  15.878  0.00  0.00    -0.380 OA
ATOM      7  C   UNL     1      -9.078  -9.885  17.197  0.00  0.00    +0.062 C 
ATOM     12  C   UNL     1      -9.427 -10.044  15.715  0.00  0.00    +0.047 C 
ATOM     13  C   UNL     1     -10.242  -9.230  17.944  0.00  0.00    +0.047 C 
ATOM     15  C   UNL     1      -9.897  -8.713  15.136  0.00  0.00    +0.161 C 
ATOM     16  C   UNL     1     -10.667  -7.945  17.242  0.00  0.00    +0.161 C 
ENDBRANCH   4   7
BRANCH   8  14
ATOM      3  O   UNL     1      -5.329 -11.599  19.098  0.00  0.00    -0.336 OA
ATOM      5  N   UNL     1      -5.871 -10.793  17.081  0.00  0.00    -0.190 NA
ATOM      6  N   UNL     1      -4.136 -11.544  18.367  0.00  0.00    -0.056 NA
ATOM     14  C   UNL     1      -6.301 -11.139  18.267  0.00  0.00    +0.245 A 
ATOM     17  C   UNL     1      -4.537 -11.059  17.189  0.00  0.00    +0.202 A 
BRANCH  17  18
ATOM     18  C   UNL     1      -3.632 -10.830  16.100  0.00  0.00    +0.023 A 
ATOM     19  C   UNL     1      -4.115 -10.765  14.793  0.00  0.00    +0.015 A 
ATOM     20  C   UNL     1      -2.269 -10.671  16.349  0.00  0.00    +0.012 A 
ATOM     21  C   UNL     1      -3.234 -10.541  13.735  0.00  0.00    -0.050 A 
ATOM     22  C   UNL     1      -1.389 -10.447  15.290  0.00  0.00    +0.001 A 
ATOM     23  C   UNL     1      -1.870 -10.381  13.983  0.00  0.00    +0.003 A 
ATOM     24  C   UNL     1      -3.750 -10.471  12.338  0.00  0.00    +0.044 C 
ENDBRANCH  17  18
ENDBRANCH   8  14
BRANCH  11   2
ATOM      2  O   UNL     1     -10.098 -13.399  20.233  0.00  0.00    -0.390 OA
ATOM     25  H   UNL     1     -10.636 -12.645  20.529  0.00  0.00    +0.210 HD
ENDBRANCH  11   2
TORSDOF 4
ENDMDL
MODEL 9
REMARK VINA RESULT:      -6.0     13.530     17.020
REMARK  Name = 26743862
REMARK  5 active torsions:
REMARK  status: ('A' for Active; 'I' for Inactive)
REMARK    1  A    between atoms: O_2  and  C_11
REMARK    2  A    between atoms: N_4  and  C_7
REMARK    3  A    between atoms: C_8  and  C_14
REMARK    4  A    between atoms: C_17  and  C_18
REMARK    5  A    between atoms: C_21  and  C_24
REMARK                            x       y       z     vdW  Elec       q    Type
REMARK                         _______ _______ _______ _____ _____    ______ ____
ROOT
ATOM      4  N   UNL     1       9.297   6.954   7.294  0.00  0.00    -0.286 NA
ATOM      8  C   UNL     1      10.763   6.832   7.173  0.00  0.00    +0.149 C 
ATOM      9  C   UNL     1       8.947   6.441   8.617  0.00  0.00    +0.116 C 
ATOM     10  C   UNL     1      11.137   5.651   8.089  0.00  0.00    +0.061 C 
ATOM     11  C   UNL     1       9.823   5.207   8.716  0.00  0.00    +0.130 C 
ENDROOT
BRANCH   4   7
ATOM      1  O   UNL     1       9.179  10.907   5.884  0.00  0.00    -0.380 OA
ATOM      7  C   UNL     1       8.812   8.317   7.086  0.00  0.00    +0.062 C 
ATOM     12  C   UNL     1       9.832   9.329   7.614  0.00  0.00    +0.047 C 
ATOM     13  C   UNL     1       8.528   8.581   5.605  0.00  0.00    +0.047 C 
ATOM     15  C   UNL     1       9.385  10.751   7.288  0.00  0.00    +0.161 C 
ATOM     16  C   UNL     1       8.154  10.043   5.390  0.00  0.00    +0.161 C 
ENDBRANCH   4   7
BRANCH   8  14
ATOM      3  O   UNL     1      12.288   7.354   5.335  0.00  0.00    -0.336 OA
ATOM      5  N   UNL     1      10.717   5.844   4.818  0.00  0.00    -0.190 NA
ATOM      6  N   UNL     1      12.512   7.001   3.999  0.00  0.00    -0.056 NA
ATOM     14  C   UNL     1      11.214   6.628   5.741  0.00  0.00    +0.245 A 
ATOM     17  C   UNL     1      11.547   6.108   3.767  0.00  0.00    +0.202 A 
BRANCH  17  18
ATOM     18  C   UNL     1      11.383   5.460   2.498  0.00  0.00    +0.023 A 
ATOM     19  C   UNL     1      12.430   4.716   1.953  0.00  0.00    +0.015 A 
ATOM     20  C   UNL     1      10.175   5.572   1.809  0.00  0.00    +0.012 A 
ATOM     21  C   UNL     1      12.269   4.085   0.719  0.00  0.00    -0.050 A 
ATOM     22  C   UNL     1      10.015   4.940   0.576  0.00  0.00    +0.001 A 
ATOM     23  C   UNL     1      11.061   4.197   0.031  0.00  0.00    +0.003 A 
ATOM     24  C   UNL     1      13.389   3.290   0.138  0.00  0.00    +0.044 C 
ENDBRANCH  17  18
ENDBRANCH   8  14
BRANCH  11   2
ATOM      2  O   UNL     1      10.017   4.806  10.058  0.00  0.00    -0.390 OA
ATOM     25  H   UNL     1       9.227   5.071  10.559  0.00  0.00    +0.210 HD
ENDBRANCH  11   2
TORSDOF 4
ENDMDL
MODEL 10
REMARK VINA RESULT:      -6.0     11.967     14.159
REMARK  Name = 26743862
REMARK  5 active torsions:
REMARK  status: ('A' for Active; 'I' for Inactive)
REMARK    1  A    between atoms: O_2  and  C_11
REMARK    2  A    between atoms: N_4  and  C_7
REMARK    3  A    between atoms: C_8  and  C_14
REMARK    4  A    between atoms: C_17  and  C_18
REMARK    5  A    between atoms: C_21  and  C_24
REMARK                            x       y       z     vdW  Elec       q    Type
REMARK                         _______ _______ _______ _____ _____    ______ ____
ROOT
ATOM      4  N   UNL     1      17.788  -3.491  24.367  0.00  0.00    -0.286 NA
ATOM      8  C   UNL     1      18.643  -2.433  24.942  0.00  0.00    +0.149 C 
ATOM      9  C   UNL     1      17.392  -3.027  23.039  0.00  0.00    +0.116 C 
ATOM     10  C   UNL     1      18.167  -1.132  24.269  0.00  0.00    +0.061 C 
ATOM     11  C   UNL     1      17.075  -1.566  23.300  0.00  0.00    +0.130 C 
ENDROOT
BRANCH   4   7
ATOM      1  O   UNL     1      19.464  -6.989  22.760  0.00  0.00    -0.380 OA
ATOM      7  C   UNL     1      18.440  -4.798  24.322  0.00  0.00    +0.062 C 
ATOM     12  C   UNL     1      17.525  -5.825  23.652  0.00  0.00    +0.047 C 
ATOM     13  C   UNL     1      19.776  -4.721  23.578  0.00  0.00    +0.047 C 
ATOM     15  C   UNL     1      18.250  -7.158  23.493  0.00  0.00    +0.161 C 
ATOM     16  C   UNL     1      20.377  -6.114  23.423  0.00  0.00    +0.161 C 
ENDBRANCH   4   7
BRANCH   8  14
ATOM      3  O   UNL     1      19.719  -2.111  27.113  0.00  0.00    -0.336 OA
ATOM      5  N   UNL     1      17.525  -2.542  27.235  0.00  0.00    -0.190 NA
ATOM      6  N   UNL     1      19.397  -2.109  28.476  0.00  0.00    -0.056 NA
ATOM     14  C   UNL     1      18.561  -2.374  26.453  0.00  0.00    +0.245 A 
ATOM     17  C   UNL     1      18.088  -2.370  28.467  0.00  0.00    +0.202 A 
BRANCH  17  18
ATOM     18  C   UNL     1      17.311  -2.465  29.669  0.00  0.00    +0.023 A 
ATOM     19  C   UNL     1      16.475  -3.562  29.876  0.00  0.00    +0.015 A 
ATOM     20  C   UNL     1      17.393  -1.459  30.632  0.00  0.00    +0.012 A 
ATOM     21  C   UNL     1      15.721  -3.653  31.047  0.00  0.00    -0.050 A 
ATOM     22  C   UNL     1      16.639  -1.551  31.802  0.00  0.00    +0.001 A 
ATOM     23  C   UNL     1      15.804  -2.647  32.010  0.00  0.00    +0.003 A 
ATOM     24  C   UNL     1      14.828  -4.826  31.268  0.00  0.00    +0.044 C 
ENDBRANCH  17  18
ENDBRANCH   8  14
BRANCH  11   2
ATOM      2  O   UNL     1      17.123  -0.798  22.113  0.00  0.00    -0.390 OA
ATOM     25  H   UNL     1      16.209  -0.695  21.796  0.00  0.00    +0.210 HD
ENDBRANCH  11   2
TORSDOF 4
ENDMDL
