MODEL 1
REMARK VINA RESULT:      -7.8      0.000      0.000
REMARK  Name = 25046676
REMARK  6 active torsions:
REMARK  status: ('A' for Active; 'I' for Inactive)
REMARK    1  A    between atoms: S_2  and  N_9
REMARK    2  A    between atoms: S_2  and  C_31
REMARK    3  A    between atoms: N_6  and  C_17
REMARK    4  A    between atoms: N_8  and  C_28
REMARK    5  A    between atoms: N_9  and  C_21
REMARK    6  A    between atoms: C_17  and  C_20
REMARK                            x       y       z     vdW  Elec       q    Type
REMARK                         _______ _______ _______ _____ _____    ______ ____
ROOT
ATOM      3  O   UNL     1      -6.239 -12.042  10.993  0.00  0.00    -0.266 OA
ATOM      6  N   UNL     1      -3.293 -11.085  14.940  0.00  0.00    -0.297 NA
ATOM      7  N   UNL     1      -4.116 -11.915  11.972  0.00  0.00    -0.310 N 
ATOM     10  C   UNL     1      -3.389 -13.382  13.943  0.00  0.00    +0.024 C 
ATOM     11  C   UNL     1      -1.832 -11.733  13.020  0.00  0.00    +0.050 C 
ATOM     12  C   UNL     1      -1.991 -13.211  13.364  0.00  0.00    +0.017 C 
ATOM     13  C   UNL     1      -3.550 -12.506  15.203  0.00  0.00    +0.090 C 
ATOM     14  C   UNL     1      -1.983 -10.885  14.304  0.00  0.00    +0.094 C 
ATOM     15  C   UNL     1      -4.421 -13.048  12.857  0.00  0.00    +0.130 C 
ATOM     16  C   UNL     1      -2.853 -11.308  11.980  0.00  0.00    +0.026 A 
ATOM     18  C   UNL     1      -2.554 -10.345  11.089  0.00  0.00    +0.024 A 
ATOM     19  C   UNL     1      -5.119 -11.537  11.057  0.00  0.00    +0.274 A 
ATOM     21  C   UNL     1      -4.738 -10.455  10.114  0.00  0.00    +0.112 A 
ATOM     22  C   UNL     1      -3.525  -9.902  10.125  0.00  0.00    +0.031 A 
ENDROOT
BRANCH  21   9
ATOM      9  N   UNL     1      -5.660  -9.991   9.158  0.00  0.00    -0.211 N 
ATOM     37  H   UNL     1      -5.285 -10.011   8.200  0.00  0.00    +0.174 HD
BRANCH   9   2
ATOM      2  S   UNL     1      -6.531  -8.592   9.546  0.00  0.00    +0.072 S 
ATOM      4  O   UNL     1      -7.585  -8.919  10.488  0.00  0.00    -0.150 OA
ATOM      5  O   UNL     1      -5.613  -7.506   9.824  0.00  0.00    -0.150 OA
BRANCH   2  31
ATOM      1 CL   UNL     1      -9.274  -7.364   4.033  0.00  0.00    -0.084 Cl
ATOM     31  C   UNL     1      -7.303  -8.246   7.993  0.00  0.00    +0.109 A 
ATOM     32  C   UNL     1      -8.214  -7.195   7.885  0.00  0.00    +0.030 A 
ATOM     33  C   UNL     1      -7.002  -9.024   6.875  0.00  0.00    +0.030 A 
ATOM     34  C   UNL     1      -8.824  -6.922   6.661  0.00  0.00    +0.022 A 
ATOM     35  C   UNL     1      -7.612  -8.752   5.651  0.00  0.00    +0.022 A 
ATOM     36  C   UNL     1      -8.522  -7.701   5.544  0.00  0.00    +0.041 A 
ENDBRANCH   2  31
ENDBRANCH   9   2
ENDBRANCH  21   9
BRANCH   6  17
ATOM     17  C   UNL     1      -3.405 -10.297  16.165  0.00  0.00    +0.121 C 
BRANCH  17  20
ATOM      8  N   UNL     1      -6.993  -9.696  16.721  0.00  0.00    -0.349 N 
ATOM     20  C   UNL     1      -4.831 -10.193  16.638  0.00  0.00    -0.008 A 
ATOM     23  C   UNL     1      -5.359 -10.709  17.854  0.00  0.00    +0.004 A 
ATOM     24  C   UNL     1      -5.859  -9.576  15.963  0.00  0.00    +0.091 A 
ATOM     25  C   UNL     1      -6.717 -10.384  17.882  0.00  0.00    +0.049 A 
ATOM     26  C   UNL     1      -4.810 -11.424  18.937  0.00  0.00    +0.010 A 
ATOM     27  C   UNL     1      -7.557 -10.740  18.943  0.00  0.00    +0.026 A 
ATOM     28  C   UNL     1      -8.287  -9.172  16.342  0.00  0.00    +0.149 C 
ATOM     29  C   UNL     1      -5.639 -11.786  20.005  0.00  0.00    +0.001 A 
ATOM     30  C   UNL     1      -6.991 -11.449  20.007  0.00  0.00    +0.002 A 
ENDBRANCH  17  20
ENDBRANCH   6  17
TORSDOF 5
ENDMDL
MODEL 2
REMARK VINA RESULT:      -7.7      4.006      7.289
REMARK  Name = 25046676
REMARK  6 active torsions:
REMARK  status: ('A' for Active; 'I' for Inactive)
REMARK    1  A    between atoms: S_2  and  N_9
REMARK    2  A    between atoms: S_2  and  C_31
REMARK    3  A    between atoms: N_6  and  C_17
REMARK    4  A    between atoms: N_8  and  C_28
REMARK    5  A    between atoms: N_9  and  C_21
REMARK    6  A    between atoms: C_17  and  C_20
REMARK                            x       y       z     vdW  Elec       q    Type
REMARK                         _______ _______ _______ _____ _____    ______ ____
ROOT
ATOM      3  O   UNL     1      -6.737 -11.194  14.991  0.00  0.00    -0.266 OA
ATOM      6  N   UNL     1      -9.800 -11.187  18.965  0.00  0.00    -0.297 NA
ATOM      7  N   UNL     1      -7.358 -12.022  17.092  0.00  0.00    -0.310 N 
ATOM     10  C   UNL     1      -9.576 -13.227  17.527  0.00  0.00    +0.024 C 
ATOM     11  C   UNL     1      -8.005 -12.875  19.372  0.00  0.00    +0.050 C 
ATOM     12  C   UNL     1      -8.803 -13.942  18.627  0.00  0.00    +0.017 C 
ATOM     13  C   UNL     1     -10.517 -12.170  18.143  0.00  0.00    +0.090 C 
ATOM     14  C   UNL     1      -8.975 -11.843  19.990  0.00  0.00    +0.094 C 
ATOM     15  C   UNL     1      -8.577 -12.619  16.532  0.00  0.00    +0.130 C 
ATOM     16  C   UNL     1      -7.021 -12.189  18.442  0.00  0.00    +0.026 A 
ATOM     18  C   UNL     1      -5.847 -11.730  18.914  0.00  0.00    +0.024 A 
ATOM     19  C   UNL     1      -6.503 -11.360  16.187  0.00  0.00    +0.274 A 
ATOM     21  C   UNL     1      -5.234 -10.856  16.771  0.00  0.00    +0.112 A 
ATOM     22  C   UNL     1      -4.923 -11.040  18.054  0.00  0.00    +0.031 A 
ENDROOT
BRANCH  21   9
ATOM      9  N   UNL     1      -4.305 -10.174  15.965  0.00  0.00    -0.211 N 
ATOM     37  H   UNL     1      -4.745  -9.468  15.358  0.00  0.00    +0.174 HD
BRANCH   9   2
ATOM      2  S   UNL     1      -3.111 -11.107  15.209  0.00  0.00    +0.072 S 
ATOM      4  O   UNL     1      -1.800 -10.683  15.664  0.00  0.00    -0.150 OA
ATOM      5  O   UNL     1      -3.483 -12.507  15.255  0.00  0.00    -0.150 OA
BRANCH   2  31
ATOM      1 CL   UNL     1      -3.732  -9.201   9.259  0.00  0.00    -0.084 Cl
ATOM     31  C   UNL     1      -3.285 -10.569  13.534  0.00  0.00    +0.109 A 
ATOM     32  C   UNL     1      -4.550 -10.274  13.024  0.00  0.00    +0.030 A 
ATOM     33  C   UNL     1      -2.160 -10.441  12.721  0.00  0.00    +0.030 A 
ATOM     34  C   UNL     1      -4.689  -9.851  11.702  0.00  0.00    +0.022 A 
ATOM     35  C   UNL     1      -2.297 -10.019  11.400  0.00  0.00    +0.022 A 
ATOM     36  C   UNL     1      -3.561  -9.724  10.890  0.00  0.00    +0.041 A 
ENDBRANCH   2  31
ENDBRANCH   9   2
ENDBRANCH  21   9
BRANCH   6  17
ATOM     17  C   UNL     1     -10.729 -10.235  19.571  0.00  0.00    +0.121 C 
BRANCH  17  20
ATOM      8  N   UNL     1     -13.452  -9.082  17.381  0.00  0.00    -0.349 N 
ATOM     20  C   UNL     1     -11.639  -9.609  18.548  0.00  0.00    -0.008 A 
ATOM     23  C   UNL     1     -11.262  -8.685  17.532  0.00  0.00    +0.004 A 
ATOM     24  C   UNL     1     -12.991  -9.833  18.429  0.00  0.00    +0.091 A 
ATOM     25  C   UNL     1     -12.418  -8.371  16.815  0.00  0.00    +0.049 A 
ATOM     26  C   UNL     1     -10.044  -8.085  17.155  0.00  0.00    +0.010 A 
ATOM     27  C   UNL     1     -12.418  -7.482  15.734  0.00  0.00    +0.026 A 
ATOM     28  C   UNL     1     -14.832  -9.050  16.945  0.00  0.00    +0.149 C 
ATOM     29  C   UNL     1     -10.029  -7.194  16.075  0.00  0.00    +0.001 A 
ATOM     30  C   UNL     1     -11.198  -6.898  15.377  0.00  0.00    +0.002 A 
ENDBRANCH  17  20
ENDBRANCH   6  17
TORSDOF 5
ENDMDL
MODEL 3
REMARK VINA RESULT:      -7.7     20.576     23.368
REMARK  Name = 25046676
REMARK  6 active torsions:
REMARK  status: ('A' for Active; 'I' for Inactive)
REMARK    1  A    between atoms: S_2  and  N_9
REMARK    2  A    between atoms: S_2  and  C_31
REMARK    3  A    between atoms: N_6  and  C_17
REMARK    4  A    between atoms: N_8  and  C_28
REMARK    5  A    between atoms: N_9  and  C_21
REMARK    6  A    between atoms: C_17  and  C_20
REMARK                            x       y       z     vdW  Elec       q    Type
REMARK                         _______ _______ _______ _____ _____    ______ ____
ROOT
ATOM      3  O   UNL     1     -12.534   4.812  22.671  0.00  0.00    -0.266 OA
ATOM      6  N   UNL     1     -13.381   9.591  21.396  0.00  0.00    -0.297 NA
ATOM      7  N   UNL     1     -13.376   6.409  21.178  0.00  0.00    -0.310 N 
ATOM     10  C   UNL     1     -11.903   8.135  19.991  0.00  0.00    +0.024 C 
ATOM     11  C   UNL     1     -14.321   8.130  19.600  0.00  0.00    +0.050 C 
ATOM     12  C   UNL     1     -12.965   8.074  18.901  0.00  0.00    +0.017 C 
ATOM     13  C   UNL     1     -12.049   9.442  20.798  0.00  0.00    +0.090 C 
ATOM     14  C   UNL     1     -14.441   9.456  20.386  0.00  0.00    +0.094 C 
ATOM     15  C   UNL     1     -12.020   6.882  20.869  0.00  0.00    +0.130 C 
ATOM     16  C   UNL     1     -14.498   6.944  20.530  0.00  0.00    +0.026 A 
ATOM     18  C   UNL     1     -15.721   6.424  20.743  0.00  0.00    +0.024 A 
ATOM     19  C   UNL     1     -13.481   5.332  22.083  0.00  0.00    +0.274 A 
ATOM     21  C   UNL     1     -14.858   4.817  22.294  0.00  0.00    +0.112 A 
ATOM     22  C   UNL     1     -15.910   5.327  21.654  0.00  0.00    +0.031 A 
ENDROOT
BRANCH  21   9
ATOM      9  N   UNL     1     -15.086   3.748  23.179  0.00  0.00    -0.211 N 
ATOM     37  H   UNL     1     -14.425   2.970  23.045  0.00  0.00    +0.174 HD
BRANCH   9   2
ATOM      2  S   UNL     1     -16.695   3.273  23.412  0.00  0.00    +0.072 S 
ATOM      4  O   UNL     1     -17.553   4.442  23.421  0.00  0.00    -0.150 OA
ATOM      5  O   UNL     1     -17.002   2.148  22.550  0.00  0.00    -0.150 OA
BRANCH   2  31
ATOM      1 CL   UNL     1     -16.432   1.106  29.299  0.00  0.00    -0.084 Cl
ATOM     31  C   UNL     1     -16.619   2.662  25.070  0.00  0.00    +0.109 A 
ATOM     32  C   UNL     1     -17.038   1.362  25.354  0.00  0.00    +0.030 A 
ATOM     33  C   UNL     1     -16.143   3.480  26.094  0.00  0.00    +0.030 A 
ATOM     34  C   UNL     1     -16.980   0.880  26.662  0.00  0.00    +0.022 A 
ATOM     35  C   UNL     1     -16.085   2.999  27.401  0.00  0.00    +0.022 A 
ATOM     36  C   UNL     1     -16.504   1.700  27.685  0.00  0.00    +0.041 A 
ENDBRANCH   2  31
ENDBRANCH   9   2
ENDBRANCH  21   9
BRANCH   6  17
ATOM     17  C   UNL     1     -13.496  10.861  22.108  0.00  0.00    +0.121 C 
BRANCH  17  20
ATOM      8  N   UNL     1     -15.180  10.325  25.336  0.00  0.00    -0.349 N 
ATOM     20  C   UNL     1     -13.922  10.666  23.539  0.00  0.00    -0.008 A 
ATOM     23  C   UNL     1     -13.075  10.671  24.683  0.00  0.00    +0.004 A 
ATOM     24  C   UNL     1     -15.210  10.452  23.973  0.00  0.00    +0.091 A 
ATOM     25  C   UNL     1     -13.889  10.455  25.797  0.00  0.00    +0.049 A 
ATOM     26  C   UNL     1     -11.690  10.838  24.877  0.00  0.00    +0.010 A 
ATOM     27  C   UNL     1     -13.385  10.398  27.101  0.00  0.00    +0.026 A 
ATOM     28  C   UNL     1     -16.347  10.089  26.159  0.00  0.00    +0.149 C 
ATOM     29  C   UNL     1     -11.172  10.784  26.176  0.00  0.00    +0.001 A 
ATOM     30  C   UNL     1     -12.007  10.566  27.270  0.00  0.00    +0.002 A 
ENDBRANCH  17  20
ENDBRANCH   6  17
TORSDOF 5
ENDMDL
MODEL 4
REMARK VINA RESULT:      -7.6     25.274     28.063
REMARK  Name = 25046676
REMARK  6 active torsions:
REMARK  status: ('A' for Active; 'I' for Inactive)
REMARK    1  A    between atoms: S_2  and  N_9
REMARK    2  A    between atoms: S_2  and  C_31
REMARK    3  A    between atoms: N_6  and  C_17
REMARK    4  A    between atoms: N_8  and  C_28
REMARK    5  A    between atoms: N_9  and  C_21
REMARK    6  A    between atoms: C_17  and  C_20
REMARK                            x       y       z     vdW  Elec       q    Type
REMARK                         _______ _______ _______ _____ _____    ______ ____
ROOT
ATOM      3  O   UNL     1      13.720   6.595   6.934  0.00  0.00    -0.266 OA
ATOM      6  N   UNL     1       9.100   7.493   5.196  0.00  0.00    -0.297 NA
ATOM      7  N   UNL     1      11.672   7.722   7.068  0.00  0.00    -0.310 N 
ATOM     10  C   UNL     1       9.441   6.535   7.486  0.00  0.00    +0.024 C 
ATOM     11  C   UNL     1       9.483   8.965   7.178  0.00  0.00    +0.050 C 
ATOM     12  C   UNL     1       9.026   7.856   8.122  0.00  0.00    +0.017 C 
ATOM     13  C   UNL     1       8.777   6.384   6.102  0.00  0.00    +0.090 C 
ATOM     14  C   UNL     1       8.789   8.794   5.808  0.00  0.00    +0.094 C 
ATOM     15  C   UNL     1      10.973   6.478   7.415  0.00  0.00    +0.130 C 
ATOM     16  C   UNL     1      10.992   8.947   7.015  0.00  0.00    +0.026 A 
ATOM     18  C   UNL     1      11.666  10.092   6.803  0.00  0.00    +0.024 A 
ATOM     19  C   UNL     1      13.068   7.636   6.886  0.00  0.00    +0.274 A 
ATOM     21  C   UNL     1      13.752   8.929   6.633  0.00  0.00    +0.112 A 
ATOM     22  C   UNL     1      13.091  10.087   6.605  0.00  0.00    +0.031 A 
ENDROOT
BRANCH  21   9
ATOM      9  N   UNL     1      15.143   8.967   6.431  0.00  0.00    -0.211 N 
ATOM     37  H   UNL     1      15.620   9.634   7.054  0.00  0.00    +0.174 HD
BRANCH   9   2
ATOM      2  S   UNL     1      15.688   8.988   4.828  0.00  0.00    +0.072 S 
ATOM      4  O   UNL     1      15.105   7.876   4.100  0.00  0.00    -0.150 OA
ATOM      5  O   UNL     1      15.598  10.335   4.299  0.00  0.00    -0.150 OA
BRANCH   2  31
ATOM      1 CL   UNL     1      21.777   7.696   5.649  0.00  0.00    -0.084 Cl
ATOM     31  C   UNL     1      17.403   8.625   5.059  0.00  0.00    +0.109 A 
ATOM     32  C   UNL     1      18.154   8.104   4.005  0.00  0.00    +0.030 A 
ATOM     33  C   UNL     1      18.006   8.859   6.294  0.00  0.00    +0.030 A 
ATOM     34  C   UNL     1      19.507   7.816   4.187  0.00  0.00    +0.022 A 
ATOM     35  C   UNL     1      19.358   8.572   6.477  0.00  0.00    +0.022 A 
ATOM     36  C   UNL     1      20.108   8.050   5.424  0.00  0.00    +0.041 A 
ENDBRANCH   2  31
ENDBRANCH   9   2
ENDBRANCH  21   9
BRANCH   6  17
ATOM     17  C   UNL     1       8.413   7.340   3.915  0.00  0.00    +0.121 C 
BRANCH  17  20
ATOM      8  N   UNL     1      10.560   7.543   0.934  0.00  0.00    -0.349 N 
ATOM     20  C   UNL     1       9.382   7.164   2.776  0.00  0.00    -0.008 A 
ATOM     23  C   UNL     1      10.217   6.036   2.542  0.00  0.00    +0.004 A 
ATOM     24  C   UNL     1       9.616   8.074   1.771  0.00  0.00    +0.091 A 
ATOM     25  C   UNL     1      10.945   6.299   1.380  0.00  0.00    +0.049 A 
ATOM     26  C   UNL     1      10.422   4.811   3.209  0.00  0.00    +0.010 A 
ATOM     27  C   UNL     1      11.873   5.396   0.850  0.00  0.00    +0.026 A 
ATOM     28  C   UNL     1      11.071   8.209  -0.246  0.00  0.00    +0.149 C 
ATOM     29  C   UNL     1      11.347   3.899   2.689  0.00  0.00    +0.001 A 
ATOM     30  C   UNL     1      12.061   4.188   1.528  0.00  0.00    +0.002 A 
ENDBRANCH  17  20
ENDBRANCH   6  17
TORSDOF 5
ENDMDL
MODEL 5
REMARK VINA RESULT:      -7.6     23.624     26.084
REMARK  Name = 25046676
REMARK  6 active torsions:
REMARK  status: ('A' for Active; 'I' for Inactive)
REMARK    1  A    between atoms: S_2  and  N_9
REMARK    2  A    between atoms: S_2  and  C_31
REMARK    3  A    between atoms: N_6  and  C_17
REMARK    4  A    between atoms: N_8  and  C_28
REMARK    5  A    between atoms: N_9  and  C_21
REMARK    6  A    between atoms: C_17  and  C_20
REMARK                            x       y       z     vdW  Elec       q    Type
REMARK                         _______ _______ _______ _____ _____    ______ ____
ROOT
ATOM      3  O   UNL     1      10.367   4.525   2.395  0.00  0.00    -0.266 OA
ATOM      6  N   UNL     1       9.149   8.048   5.755  0.00  0.00    -0.297 NA
ATOM      7  N   UNL     1      10.821   5.717   4.359  0.00  0.00    -0.310 N 
ATOM     10  C   UNL     1       9.314   5.639   6.429  0.00  0.00    +0.024 C 
ATOM     11  C   UNL     1      11.326   7.035   6.446  0.00  0.00    +0.050 C 
ATOM     12  C   UNL     1      10.600   5.921   7.194  0.00  0.00    +0.017 C 
ATOM     13  C   UNL     1       8.446   6.914   6.367  0.00  0.00    +0.090 C 
ATOM     14  C   UNL     1      10.438   8.300   6.415  0.00  0.00    +0.094 C 
ATOM     15  C   UNL     1       9.672   5.101   5.037  0.00  0.00    +0.130 C 
ATOM     16  C   UNL     1      11.676   6.598   5.035  0.00  0.00    +0.026 A 
ATOM     18  C   UNL     1      12.785   7.067   4.434  0.00  0.00    +0.024 A 
ATOM     19  C   UNL     1      11.072   5.304   3.034  0.00  0.00    +0.274 A 
ATOM     21  C   UNL     1      12.297   5.872   2.418  0.00  0.00    +0.112 A 
ATOM     22  C   UNL     1      13.108   6.695   3.083  0.00  0.00    +0.031 A 
ENDROOT
BRANCH  21   9
ATOM      9  N   UNL     1      12.646   5.537   1.097  0.00  0.00    -0.211 N 
ATOM     37  H   UNL     1      11.843   5.556   0.454  0.00  0.00    +0.174 HD
BRANCH   9   2
ATOM      2  S   UNL     1      13.684   4.215   0.889  0.00  0.00    +0.072 S 
ATOM      4  O   UNL     1      15.062   4.656   0.990  0.00  0.00    -0.150 OA
ATOM      5  O   UNL     1      13.215   3.095   1.681  0.00  0.00    -0.150 OA
BRANCH   2  31
ATOM      1 CL   UNL     1      12.602   2.830  -5.139  0.00  0.00    -0.084 Cl
ATOM     31  C   UNL     1      13.380   3.824  -0.809  0.00  0.00    +0.109 A 
ATOM     32  C   UNL     1      14.052   4.517  -1.816  0.00  0.00    +0.030 A 
ATOM     33  C   UNL     1      12.467   2.824  -1.142  0.00  0.00    +0.030 A 
ATOM     34  C   UNL     1      13.811   4.210  -3.156  0.00  0.00    +0.022 A 
ATOM     35  C   UNL     1      12.227   2.516  -2.481  0.00  0.00    +0.022 A 
ATOM     36  C   UNL     1      12.898   3.209  -3.487  0.00  0.00    +0.041 A 
ENDBRANCH   2  31
ENDBRANCH   9   2
ENDBRANCH  21   9
BRANCH   6  17
ATOM     17  C   UNL     1       8.315   9.247   5.760  0.00  0.00    +0.121 C 
BRANCH  17  20
ATOM      8  N   UNL     1       6.129  10.027   2.905  0.00  0.00    -0.349 N 
ATOM     20  C   UNL     1       7.637   9.465   4.434  0.00  0.00    -0.008 A 
ATOM     23  C   UNL     1       8.172   9.165   3.150  0.00  0.00    +0.004 A 
ATOM     24  C   UNL     1       6.380   9.994   4.250  0.00  0.00    +0.091 A 
ATOM     25  C   UNL     1       7.207   9.527   2.209  0.00  0.00    +0.049 A 
ATOM     26  C   UNL     1       9.390   8.619   2.698  0.00  0.00    +0.010 A 
ATOM     27  C   UNL     1       7.398   9.369   0.831  0.00  0.00    +0.026 A 
ATOM     28  C   UNL     1       4.903  10.521   2.316  0.00  0.00    +0.149 C 
ATOM     29  C   UNL     1       9.595   8.455   1.323  0.00  0.00    +0.001 A 
ATOM     30  C   UNL     1       8.614   8.825   0.405  0.00  0.00    +0.002 A 
ENDBRANCH  17  20
ENDBRANCH   6  17
TORSDOF 5
ENDMDL
MODEL 6
REMARK VINA RESULT:      -7.6      3.137      5.221
REMARK  Name = 25046676
REMARK  6 active torsions:
REMARK  status: ('A' for Active; 'I' for Inactive)
REMARK    1  A    between atoms: S_2  and  N_9
REMARK    2  A    between atoms: S_2  and  C_31
REMARK    3  A    between atoms: N_6  and  C_17
REMARK    4  A    between atoms: N_8  and  C_28
REMARK    5  A    between atoms: N_9  and  C_21
REMARK    6  A    between atoms: C_17  and  C_20
REMARK                            x       y       z     vdW  Elec       q    Type
REMARK                         _______ _______ _______ _____ _____    ______ ____
ROOT
ATOM      3  O   UNL     1      -4.571 -13.216  13.612  0.00  0.00    -0.266 OA
ATOM      6  N   UNL     1      -6.427 -10.667  17.516  0.00  0.00    -0.297 NA
ATOM      7  N   UNL     1      -4.344 -12.338  15.771  0.00  0.00    -0.310 N 
ATOM     10  C   UNL     1      -5.793 -13.081  17.748  0.00  0.00    +0.024 C 
ATOM     11  C   UNL     1      -4.090 -11.351  18.075  0.00  0.00    +0.050 C 
ATOM     12  C   UNL     1      -4.581 -12.702  18.589  0.00  0.00    +0.017 C 
ATOM     13  C   UNL     1      -6.893 -12.008  17.893  0.00  0.00    +0.090 C 
ATOM     14  C   UNL     1      -5.207 -10.297  18.248  0.00  0.00    +0.094 C 
ATOM     15  C   UNL     1      -5.347 -13.276  16.293  0.00  0.00    +0.130 C 
ATOM     16  C   UNL     1      -3.672 -11.447  16.619  0.00  0.00    +0.026 A 
ATOM     18  C   UNL     1      -2.679 -10.672  16.145  0.00  0.00    +0.024 A 
ATOM     19  C   UNL     1      -4.027 -12.445  14.401  0.00  0.00    +0.274 A 
ATOM     21  C   UNL     1      -2.940 -11.549  13.933  0.00  0.00    +0.112 A 
ATOM     22  C   UNL     1      -2.300 -10.721  14.759  0.00  0.00    +0.031 A 
ENDROOT
BRANCH  21   9
ATOM      9  N   UNL     1      -2.541 -11.564  12.585  0.00  0.00    -0.211 N 
ATOM     37  H   UNL     1      -1.532 -11.735  12.468  0.00  0.00    +0.174 HD
BRANCH   9   2
ATOM      2  S   UNL     1      -3.169 -10.353  11.583  0.00  0.00    +0.072 S 
ATOM      4  O   UNL     1      -4.329  -9.751  12.213  0.00  0.00    -0.150 OA
ATOM      5  O   UNL     1      -2.091  -9.518  11.089  0.00  0.00    -0.150 OA
BRANCH   2  31
ATOM      1 CL   UNL     1      -5.235 -13.792   6.753  0.00  0.00    -0.084 Cl
ATOM     31  C   UNL     1      -3.752 -11.321  10.223  0.00  0.00    +0.109 A 
ATOM     32  C   UNL     1      -3.707 -12.714  10.288  0.00  0.00    +0.030 A 
ATOM     33  C   UNL     1      -4.256 -10.693   9.084  0.00  0.00    +0.030 A 
ATOM     34  C   UNL     1      -4.166 -13.479   9.215  0.00  0.00    +0.022 A 
ATOM     35  C   UNL     1      -4.714 -11.457   8.011  0.00  0.00    +0.022 A 
ATOM     36  C   UNL     1      -4.669 -12.849   8.077  0.00  0.00    +0.041 A 
ENDBRANCH   2  31
ENDBRANCH   9   2
ENDBRANCH  21   9
BRANCH   6  17
ATOM     17  C   UNL     1      -7.479  -9.673  17.714  0.00  0.00    +0.121 C 
BRANCH  17  20
ATOM      8  N   UNL     1      -8.976  -9.555  14.355  0.00  0.00    -0.349 N 
ATOM     20  C   UNL     1      -8.276  -9.441  16.458  0.00  0.00    -0.008 A 
ATOM     23  C   UNL     1      -9.404  -8.584  16.317  0.00  0.00    +0.004 A 
ATOM     24  C   UNL     1      -8.038 -10.023  15.234  0.00  0.00    +0.091 A 
ATOM     25  C   UNL     1      -9.824  -8.674  14.989  0.00  0.00    +0.049 A 
ATOM     26  C   UNL     1     -10.110  -7.739  17.196  0.00  0.00    +0.010 A 
ATOM     27  C   UNL     1     -10.920  -7.959  14.493  0.00  0.00    +0.026 A 
ATOM     28  C   UNL     1      -9.053  -9.941  12.962  0.00  0.00    +0.149 C 
ATOM     29  C   UNL     1     -11.208  -7.017  16.714  0.00  0.00    +0.001 A 
ATOM     30  C   UNL     1     -11.605  -7.126  15.383  0.00  0.00    +0.002 A 
ENDBRANCH  17  20
ENDBRANCH   6  17
TORSDOF 5
ENDMDL
MODEL 7
REMARK VINA RESULT:      -7.3      6.161     10.335
REMARK  Name = 25046676
REMARK  6 active torsions:
REMARK  status: ('A' for Active; 'I' for Inactive)
REMARK    1  A    between atoms: S_2  and  N_9
REMARK    2  A    between atoms: S_2  and  C_31
REMARK    3  A    between atoms: N_6  and  C_17
REMARK    4  A    between atoms: N_8  and  C_28
REMARK    5  A    between atoms: N_9  and  C_21
REMARK    6  A    between atoms: C_17  and  C_20
REMARK                            x       y       z     vdW  Elec       q    Type
REMARK                         _______ _______ _______ _____ _____    ______ ____
ROOT
ATOM      3  O   UNL     1      -9.436 -11.051  16.417  0.00  0.00    -0.266 OA
ATOM      6  N   UNL     1     -14.256  -9.935  17.257  0.00  0.00    -0.297 NA
ATOM      7  N   UNL     1     -11.422 -11.354  17.620  0.00  0.00    -0.310 N 
ATOM     10  C   UNL     1     -13.579 -12.248  16.567  0.00  0.00    +0.024 C 
ATOM     11  C   UNL     1     -13.549 -11.641  18.940  0.00  0.00    +0.050 C 
ATOM     12  C   UNL     1     -13.871 -12.772  17.967  0.00  0.00    +0.017 C 
ATOM     13  C   UNL     1     -14.451 -11.009  16.275  0.00  0.00    +0.090 C 
ATOM     14  C   UNL     1     -14.449 -10.422  18.630  0.00  0.00    +0.094 C 
ATOM     15  C   UNL     1     -12.078 -11.954  16.450  0.00  0.00    +0.130 C 
ATOM     16  C   UNL     1     -12.084 -11.255  18.852  0.00  0.00    +0.026 A 
ATOM     18  C   UNL     1     -11.433 -10.805  19.941  0.00  0.00    +0.024 A 
ATOM     19  C   UNL     1     -10.073 -10.975  17.467  0.00  0.00    +0.274 A 
ATOM     21  C   UNL     1      -9.416 -10.466  18.697  0.00  0.00    +0.112 A 
ATOM     22  C   UNL     1     -10.057 -10.396  19.864  0.00  0.00    +0.031 A 
ENDROOT
BRANCH  21   9
ATOM      9  N   UNL     1      -8.073 -10.052  18.664  0.00  0.00    -0.211 N 
ATOM     37  H   UNL     1      -7.823  -9.575  17.786  0.00  0.00    +0.174 HD
BRANCH   9   2
ATOM      2  S   UNL     1      -6.914 -11.156  19.219  0.00  0.00    +0.072 S 
ATOM      4  O   UNL     1      -6.355 -10.686  20.473  0.00  0.00    -0.150 OA
ATOM      5  O   UNL     1      -7.433 -12.505  19.110  0.00  0.00    -0.150 OA
BRANCH   2  31
ATOM      1 CL   UNL     1      -2.472 -10.490  14.832  0.00  0.00    -0.084 Cl
ATOM     31  C   UNL     1      -5.664 -10.969  17.983  0.00  0.00    +0.109 A 
ATOM     32  C   UNL     1      -4.365 -11.416  18.231  0.00  0.00    +0.030 A 
ATOM     33  C   UNL     1      -5.974 -10.374  16.761  0.00  0.00    +0.030 A 
ATOM     34  C   UNL     1      -3.378 -11.268  17.257  0.00  0.00    +0.022 A 
ATOM     35  C   UNL     1      -4.987 -10.225  15.787  0.00  0.00    +0.022 A 
ATOM     36  C   UNL     1      -3.690 -10.672  16.035  0.00  0.00    +0.041 A 
ENDBRANCH   2  31
ENDBRANCH   9   2
ENDBRANCH  21   9
BRANCH   6  17
ATOM     17  C   UNL     1     -15.133  -8.802  16.975  0.00  0.00    +0.121 C 
BRANCH  17  20
ATOM      8  N   UNL     1     -14.115  -6.170  14.614  0.00  0.00    -0.349 N 
ATOM     20  C   UNL     1     -14.456  -7.766  16.119  0.00  0.00    -0.008 A 
ATOM     23  C   UNL     1     -13.074  -7.423  16.138  0.00  0.00    +0.004 A 
ATOM     24  C   UNL     1     -15.069  -6.978  15.172  0.00  0.00    +0.091 A 
ATOM     25  C   UNL     1     -12.887  -6.421  15.184  0.00  0.00    +0.049 A 
ATOM     26  C   UNL     1     -11.962  -7.873  16.877  0.00  0.00    +0.010 A 
ATOM     27  C   UNL     1     -11.638  -5.842  14.932  0.00  0.00    +0.026 A 
ATOM     28  C   UNL     1     -14.377  -5.197  13.575  0.00  0.00    +0.149 C 
ATOM     29  C   UNL     1     -10.707  -7.303  16.635  0.00  0.00    +0.001 A 
ATOM     30  C   UNL     1     -10.549  -6.303  15.678  0.00  0.00    +0.002 A 
ENDBRANCH  17  20
ENDBRANCH   6  17
TORSDOF 5
ENDMDL
MODEL 8
REMARK VINA RESULT:      -7.2      0.721      1.890
REMARK  Name = 25046676
REMARK  6 active torsions:
REMARK  status: ('A' for Active; 'I' for Inactive)
REMARK    1  A    between atoms: S_2  and  N_9
REMARK    2  A    between atoms: S_2  and  C_31
REMARK    3  A    between atoms: N_6  and  C_17
REMARK    4  A    between atoms: N_8  and  C_28
REMARK    5  A    between atoms: N_9  and  C_21
REMARK    6  A    between atoms: C_17  and  C_20
REMARK                            x       y       z     vdW  Elec       q    Type
REMARK                         _______ _______ _______ _____ _____    ______ ____
ROOT
ATOM      3  O   UNL     1      -6.106 -12.214  11.090  0.00  0.00    -0.266 OA
ATOM      6  N   UNL     1      -3.180 -11.426  15.090  0.00  0.00    -0.297 NA
ATOM      7  N   UNL     1      -3.990 -12.148  12.090  0.00  0.00    -0.310 N 
ATOM     10  C   UNL     1      -3.298 -13.688  14.016  0.00  0.00    +0.024 C 
ATOM     11  C   UNL     1      -1.712 -12.029  13.160  0.00  0.00    +0.050 C 
ATOM     12  C   UNL     1      -1.893 -13.516  13.454  0.00  0.00    +0.017 C 
ATOM     13  C   UNL     1      -3.457 -12.852  15.304  0.00  0.00    +0.090 C 
ATOM     14  C   UNL     1      -1.862 -11.223  14.470  0.00  0.00    +0.094 C 
ATOM     15  C   UNL     1      -4.316 -13.305  12.934  0.00  0.00    +0.130 C 
ATOM     16  C   UNL     1      -2.719 -11.557  12.128  0.00  0.00    +0.026 A 
ATOM     18  C   UNL     1      -2.401 -10.569  11.271  0.00  0.00    +0.024 A 
ATOM     19  C   UNL     1      -4.981 -11.726  11.179  0.00  0.00    +0.274 A 
ATOM     21  C   UNL     1      -4.578 -10.619  10.277  0.00  0.00    +0.112 A 
ATOM     22  C   UNL     1      -3.358 -10.082  10.315  0.00  0.00    +0.031 A 
ENDROOT
BRANCH  21   9
ATOM      9  N   UNL     1      -5.486 -10.111   9.330  0.00  0.00    -0.211 N 
ATOM     37  H   UNL     1      -5.097 -10.086   8.377  0.00  0.00    +0.174 HD
BRANCH   9   2
ATOM      2  S   UNL     1      -6.364  -8.732   9.768  0.00  0.00    +0.072 S 
ATOM      4  O   UNL     1      -7.416  -9.097  10.698  0.00  0.00    -0.150 OA
ATOM      5  O   UNL     1      -5.450  -7.651  10.086  0.00  0.00    -0.150 OA
BRANCH   2  31
ATOM      1 CL   UNL     1      -9.116  -7.316   4.305  0.00  0.00    -0.084 Cl
ATOM     31  C   UNL     1      -7.138  -8.333   8.229  0.00  0.00    +0.109 A 
ATOM     32  C   UNL     1      -7.938  -7.194   8.125  0.00  0.00    +0.030 A 
ATOM     33  C   UNL     1      -6.951  -9.156   7.119  0.00  0.00    +0.030 A 
ATOM     34  C   UNL     1      -8.550  -6.879   6.911  0.00  0.00    +0.022 A 
ATOM     35  C   UNL     1      -7.562  -8.842   5.906  0.00  0.00    +0.022 A 
ATOM     36  C   UNL     1      -8.361  -7.704   5.802  0.00  0.00    +0.041 A 
ENDBRANCH   2  31
ENDBRANCH   9   2
ENDBRANCH  21   9
BRANCH   6  17
ATOM     17  C   UNL     1      -3.292 -10.678  16.340  0.00  0.00    +0.121 C 
BRANCH  17  20
ATOM      8  N   UNL     1      -6.501 -10.609  18.138  0.00  0.00    -0.349 N 
ATOM     20  C   UNL     1      -4.717 -10.594  16.818  0.00  0.00    -0.008 A 
ATOM     23  C   UNL     1      -5.864 -10.330  16.018  0.00  0.00    +0.004 A 
ATOM     24  C   UNL     1      -5.141 -10.760  18.116  0.00  0.00    +0.091 A 
ATOM     25  C   UNL     1      -6.970 -10.346  16.870  0.00  0.00    +0.049 A 
ATOM     26  C   UNL     1      -6.067 -10.080  14.646  0.00  0.00    +0.010 A 
ATOM     27  C   UNL     1      -8.275 -10.122  16.418  0.00  0.00    +0.026 A 
ATOM     28  C   UNL     1      -7.314 -10.713  19.330  0.00  0.00    +0.149 C 
ATOM     29  C   UNL     1      -7.368  -9.855  14.180  0.00  0.00    +0.001 A 
ATOM     30  C   UNL     1      -8.454  -9.876  15.053  0.00  0.00    +0.002 A 
ENDBRANCH  17  20
ENDBRANCH   6  17
TORSDOF 5
ENDMDL
MODEL 9
REMARK VINA RESULT:      -7.1     28.068     30.256
REMARK  Name = 25046676
REMARK  6 active torsions:
REMARK  status: ('A' for Active; 'I' for Inactive)
REMARK    1  A    between atoms: S_2  and  N_9
REMARK    2  A    between atoms: S_2  and  C_31
REMARK    3  A    between atoms: N_6  and  C_17
REMARK    4  A    between atoms: N_8  and  C_28
REMARK    5  A    between atoms: N_9  and  C_21
REMARK    6  A    between atoms: C_17  and  C_20
REMARK                            x       y       z     vdW  Elec       q    Type
REMARK                         _______ _______ _______ _____ _____    ______ ____
ROOT
ATOM      3  O   UNL     1      14.939  10.274  22.781  0.00  0.00    -0.266 OA
ATOM      6  N   UNL     1      12.171   8.526  18.978  0.00  0.00    -0.297 NA
ATOM      7  N   UNL     1      13.062   9.124  21.982  0.00  0.00    -0.310 N 
ATOM     10  C   UNL     1      13.216   6.955  20.628  0.00  0.00    +0.024 C 
ATOM     11  C   UNL     1      11.022   7.928  21.114  0.00  0.00    +0.050 C 
ATOM     12  C   UNL     1      11.852   6.653  21.234  0.00  0.00    +0.017 C 
ATOM     13  C   UNL     1      13.057   7.368  19.149  0.00  0.00    +0.090 C 
ATOM     14  C   UNL     1      10.869   8.306  19.623  0.00  0.00    +0.094 C 
ATOM     15  C   UNL     1      13.906   8.035  21.471  0.00  0.00    +0.130 C 
ATOM     16  C   UNL     1      11.665   9.066  21.886  0.00  0.00    +0.026 A 
ATOM     18  C   UNL     1      10.902  10.017  22.456  0.00  0.00    +0.024 A 
ATOM     19  C   UNL     1      13.720  10.175  22.653  0.00  0.00    +0.274 A 
ATOM     21  C   UNL     1      12.827  11.205  23.240  0.00  0.00    +0.112 A 
ATOM     22  C   UNL     1      11.499  11.123  23.154  0.00  0.00    +0.031 A 
ENDROOT
BRANCH  21   9
ATOM      9  N   UNL     1      13.370  12.305  23.929  0.00  0.00    -0.211 N 
ATOM     37  H   UNL     1      13.734  12.054  24.858  0.00  0.00    +0.174 HD
BRANCH   9   2
ATOM      2  S   UNL     1      12.491  13.751  23.884  0.00  0.00    +0.072 S 
ATOM      4  O   UNL     1      11.074  13.465  23.998  0.00  0.00    -0.150 OA
ATOM      5  O   UNL     1      13.112  14.728  24.758  0.00  0.00    -0.150 OA
BRANCH   2  31
ATOM      1 CL   UNL     1      13.559  15.578  17.972  0.00  0.00    -0.084 Cl
ATOM     31  C   UNL     1      12.792  14.267  22.219  0.00  0.00    +0.109 A 
ATOM     32  C   UNL     1      11.853  13.993  21.224  0.00  0.00    +0.030 A 
ATOM     33  C   UNL     1      13.967  14.945  21.900  0.00  0.00    +0.030 A 
ATOM     34  C   UNL     1      12.090  14.399  19.910  0.00  0.00    +0.022 A 
ATOM     35  C   UNL     1      14.205  15.351  20.587  0.00  0.00    +0.022 A 
ATOM     36  C   UNL     1      13.266  15.077  19.593  0.00  0.00    +0.041 A 
ENDBRANCH   2  31
ENDBRANCH   9   2
ENDBRANCH  21   9
BRANCH   6  17
ATOM     17  C   UNL     1      12.007   8.855  17.564  0.00  0.00    +0.121 C 
BRANCH  17  20
ATOM      8  N   UNL     1      14.657  10.577  15.680  0.00  0.00    -0.349 N 
ATOM     20  C   UNL     1      13.149   9.685  17.043  0.00  0.00    -0.008 A 
ATOM     23  C   UNL     1      13.946  10.594  17.794  0.00  0.00    +0.004 A 
ATOM     24  C   UNL     1      13.611   9.697  15.747  0.00  0.00    +0.091 A 
ATOM     25  C   UNL     1      14.884  11.140  16.916  0.00  0.00    +0.049 A 
ATOM     26  C   UNL     1      13.959  11.006  19.142  0.00  0.00    +0.010 A 
ATOM     27  C   UNL     1      15.838  12.081  17.319  0.00  0.00    +0.026 A 
ATOM     28  C   UNL     1      15.406  10.864  14.475  0.00  0.00    +0.149 C 
ATOM     29  C   UNL     1      14.908  11.947  19.559  0.00  0.00    +0.001 A 
ATOM     30  C   UNL     1      15.832  12.475  18.660  0.00  0.00    +0.002 A 
ENDBRANCH  17  20
ENDBRANCH   6  17
TORSDOF 5
ENDMDL
MODEL 10
REMARK VINA RESULT:      -7.1     25.809     28.864
REMARK  Name = 25046676
REMARK  6 active torsions:
REMARK  status: ('A' for Active; 'I' for Inactive)
REMARK    1  A    between atoms: S_2  and  N_9
REMARK    2  A    between atoms: S_2  and  C_31
REMARK    3  A    between atoms: N_6  and  C_17
REMARK    4  A    between atoms: N_8  and  C_28
REMARK    5  A    between atoms: N_9  and  C_21
REMARK    6  A    between atoms: C_17  and  C_20
REMARK                            x       y       z     vdW  Elec       q    Type
REMARK                         _______ _______ _______ _____ _____    ______ ____
ROOT
ATOM      3  O   UNL     1      14.154   7.691   5.691  0.00  0.00    -0.266 OA
ATOM      6  N   UNL     1      11.100   4.797   2.956  0.00  0.00    -0.297 NA
ATOM      7  N   UNL     1      12.184   7.393   4.459  0.00  0.00    -0.310 N 
ATOM     10  C   UNL     1      10.336   5.756   5.142  0.00  0.00    +0.024 C 
ATOM     11  C   UNL     1      10.090   7.078   3.095  0.00  0.00    +0.050 C 
ATOM     12  C   UNL     1       9.412   6.726   4.417  0.00  0.00    +0.017 C 
ATOM     13  C   UNL     1      10.553   4.492   4.284  0.00  0.00    +0.090 C 
ATOM     14  C   UNL     1      10.279   5.795   2.254  0.00  0.00    +0.094 C 
ATOM     15  C   UNL     1      11.649   6.477   5.475  0.00  0.00    +0.130 C 
ATOM     16  C   UNL     1      11.426   7.756   3.337  0.00  0.00    +0.026 A 
ATOM     18  C   UNL     1      11.886   8.680   2.474  0.00  0.00    +0.024 A 
ATOM     19  C   UNL     1      13.450   7.959   4.718  0.00  0.00    +0.274 A 
ATOM     21  C   UNL     1      13.912   8.955   3.719  0.00  0.00    +0.112 A 
ATOM     22  C   UNL     1      13.169   9.300   2.667  0.00  0.00    +0.031 A 
ENDROOT
BRANCH  21   9
ATOM      9  N   UNL     1      15.162   9.581   3.870  0.00  0.00    -0.211 N 
ATOM     37  H   UNL     1      15.087  10.603   3.971  0.00  0.00    +0.174 HD
BRANCH   9   2
ATOM      2  S   UNL     1      16.410   9.065   2.848  0.00  0.00    +0.072 S 
ATOM      4  O   UNL     1      16.056   7.792   2.250  0.00  0.00    -0.150 OA
ATOM      5  O   UNL     1      16.847  10.168   2.015  0.00  0.00    -0.150 OA
BRANCH   2  31
ATOM      1 CL   UNL     1      20.960   7.965   7.033  0.00  0.00    -0.084 Cl
ATOM     31  C   UNL     1      17.691   8.754   4.027  0.00  0.00    +0.109 A 
ATOM     32  C   UNL     1      17.508   9.103   5.365  0.00  0.00    +0.030 A 
ATOM     33  C   UNL     1      18.886   8.162   3.619  0.00  0.00    +0.030 A 
ATOM     34  C   UNL     1      18.519   8.859   6.295  0.00  0.00    +0.022 A 
ATOM     35  C   UNL     1      19.897   7.918   4.548  0.00  0.00    +0.022 A 
ATOM     36  C   UNL     1      19.713   8.267   5.886  0.00  0.00    +0.041 A 
ENDBRANCH   2  31
ENDBRANCH   9   2
ENDBRANCH  21   9
BRANCH   6  17
ATOM     17  C   UNL     1      11.244   3.583   2.157  0.00  0.00    +0.121 C 
BRANCH  17  20
ATOM      8  N   UNL     1      14.445   3.816   0.359  0.00  0.00    -0.349 N 
ATOM     20  C   UNL     1      12.390   3.681   1.187  0.00  0.00    -0.008 A 
ATOM     23  C   UNL     1      12.295   3.745  -0.232  0.00  0.00    +0.004 A 
ATOM     24  C   UNL     1      13.724   3.727   1.519  0.00  0.00    +0.091 A 
ATOM     25  C   UNL     1      13.598   3.829  -0.727  0.00  0.00    +0.049 A 
ATOM     26  C   UNL     1      11.221   3.739  -1.145  0.00  0.00    +0.010 A 
ATOM     27  C   UNL     1      13.883   3.908  -2.095  0.00  0.00    +0.026 A 
ATOM     28  C   UNL     1      15.889   3.885   0.299  0.00  0.00    +0.149 C 
ATOM     29  C   UNL     1      11.492   3.817  -2.516  0.00  0.00    +0.001 A 
ATOM     30  C   UNL     1      12.803   3.900  -2.982  0.00  0.00    +0.002 A 
ENDBRANCH  17  20
ENDBRANCH   6  17
TORSDOF 5
ENDMDL
