MODEL 1
REMARK VINA RESULT:      -6.5      0.000      0.000
REMARK  Name = 26743878
REMARK  5 active torsions:
REMARK  status: ('A' for Active; 'I' for Inactive)
REMARK    1  A    between atoms: O_1  and  C_8
REMARK    2  A    between atoms: N_3  and  C_11
REMARK    3  A    between atoms: C_6  and  C_10
REMARK    4  A    between atoms: C_12  and  C_13
REMARK    5  A    between atoms: C_16  and  C_19
REMARK                            x       y       z     vdW  Elec       q    Type
REMARK                         _______ _______ _______ _____ _____    ______ ____
ROOT
ATOM      2  O   UNL     1      14.500   6.599  20.055  0.00  0.00    -0.336 OA
ATOM      4  N   UNL     1      15.658   8.129  21.211  0.00  0.00    -0.190 NA
ATOM      5  N   UNL     1      15.841   6.202  19.991  0.00  0.00    -0.056 NA
ATOM     10  C   UNL     1      14.481   7.743  20.790  0.00  0.00    +0.245 A 
ATOM     12  C   UNL     1      16.462   7.154  20.696  0.00  0.00    +0.202 A 
ENDROOT
BRANCH  12  13
ATOM     13  C   UNL     1      17.880   7.159  20.903  0.00  0.00    +0.023 A 
ATOM     14  C   UNL     1      18.640   6.037  20.572  0.00  0.00    +0.015 A 
ATOM     15  C   UNL     1      18.502   8.289  21.437  0.00  0.00    +0.012 A 
ATOM     16  C   UNL     1      20.020   6.044  20.773  0.00  0.00    -0.050 A 
ATOM     17  C   UNL     1      19.882   8.296  21.638  0.00  0.00    +0.001 A 
ATOM     18  C   UNL     1      20.642   7.174  21.306  0.00  0.00    +0.003 A 
ATOM     19  C   UNL     1      20.832   4.845  20.419  0.00  0.00    +0.044 C 
ENDBRANCH  12  13
BRANCH  10   6
ATOM      3  N   UNL     1      12.354   8.522  19.757  0.00  0.00    -0.292 NA
ATOM      6  C   UNL     1      13.125   8.381  21.009  0.00  0.00    +0.148 C 
ATOM      7  C   UNL     1      12.219   7.549  21.937  0.00  0.00    +0.061 C 
ATOM      8  C   UNL     1      10.946   7.312  21.135  0.00  0.00    +0.130 C 
ATOM      9  C   UNL     1      10.943   8.446  20.129  0.00  0.00    +0.116 C 
ATOM     11  C   UNL     1      12.665   9.743  19.026  0.00  0.00    +0.105 C 
BRANCH   8   1
ATOM      1  O   UNL     1       9.809   7.353  21.976  0.00  0.00    -0.390 OA
ATOM     20  H   UNL     1       9.391   6.475  21.946  0.00  0.00    +0.210 HD
ENDBRANCH   8   1
ENDBRANCH  10   6
TORSDOF 3
ENDMDL
MODEL 2
REMARK VINA RESULT:      -6.4      1.771      2.401
REMARK  Name = 26743878
REMARK  5 active torsions:
REMARK  status: ('A' for Active; 'I' for Inactive)
REMARK    1  A    between atoms: O_1  and  C_8
REMARK    2  A    between atoms: N_3  and  C_11
REMARK    3  A    between atoms: C_6  and  C_10
REMARK    4  A    between atoms: C_12  and  C_13
REMARK    5  A    between atoms: C_16  and  C_19
REMARK                            x       y       z     vdW  Elec       q    Type
REMARK                         _______ _______ _______ _____ _____    ______ ____
ROOT
ATOM      2  O   UNL     1      15.710   6.190  18.380  0.00  0.00    -0.336 OA
ATOM      4  N   UNL     1      16.547   7.425  20.051  0.00  0.00    -0.190 NA
ATOM      5  N   UNL     1      16.910   5.574  18.756  0.00  0.00    -0.056 NA
ATOM     10  C   UNL     1      15.572   7.272  19.192  0.00  0.00    +0.245 A 
ATOM     12  C   UNL     1      17.345   6.361  19.746  0.00  0.00    +0.202 A 
ENDROOT
BRANCH  12  13
ATOM     13  C   UNL     1      18.569   6.111  20.449  0.00  0.00    +0.023 A 
ATOM     14  C   UNL     1      18.853   6.805  21.626  0.00  0.00    +0.015 A 
ATOM     15  C   UNL     1      19.478   5.174  19.955  0.00  0.00    +0.012 A 
ATOM     16  C   UNL     1      20.044   6.560  22.309  0.00  0.00    -0.050 A 
ATOM     17  C   UNL     1      20.669   4.930  20.639  0.00  0.00    +0.001 A 
ATOM     18  C   UNL     1      20.952   5.623  21.817  0.00  0.00    +0.003 A 
ATOM     19  C   UNL     1      20.347   7.301  23.568  0.00  0.00    +0.044 C 
ENDBRANCH  12  13
BRANCH  10   6
ATOM      3  N   UNL     1      13.605   7.765  17.748  0.00  0.00    -0.292 NA
ATOM      6  C   UNL     1      14.333   8.118  18.984  0.00  0.00    +0.148 C 
ATOM      7  C   UNL     1      13.299   7.945  20.113  0.00  0.00    +0.061 C 
ATOM      8  C   UNL     1      12.011   7.540  19.408  0.00  0.00    +0.130 C 
ATOM      9  C   UNL     1      12.197   8.065  17.998  0.00  0.00    +0.116 C 
ATOM     11  C   UNL     1      14.112   8.451  16.567  0.00  0.00    +0.105 C 
BRANCH   8   1
ATOM      1  O   UNL     1      10.888   8.121  20.041  0.00  0.00    -0.390 OA
ATOM     20  H   UNL     1      10.861   7.787  20.955  0.00  0.00    +0.210 HD
ENDBRANCH   8   1
ENDBRANCH  10   6
TORSDOF 3
ENDMDL
MODEL 3
REMARK VINA RESULT:      -6.4      1.810      2.622
REMARK  Name = 26743878
REMARK  5 active torsions:
REMARK  status: ('A' for Active; 'I' for Inactive)
REMARK    1  A    between atoms: O_1  and  C_8
REMARK    2  A    between atoms: N_3  and  C_11
REMARK    3  A    between atoms: C_6  and  C_10
REMARK    4  A    between atoms: C_12  and  C_13
REMARK    5  A    between atoms: C_16  and  C_19
REMARK                            x       y       z     vdW  Elec       q    Type
REMARK                         _______ _______ _______ _____ _____    ______ ____
ROOT
ATOM      2  O   UNL     1      14.775   8.754  19.944  0.00  0.00    -0.336 OA
ATOM      4  N   UNL     1      15.269   6.569  19.925  0.00  0.00    -0.190 NA
ATOM      5  N   UNL     1      16.140   8.661  20.238  0.00  0.00    -0.056 NA
ATOM     10  C   UNL     1      14.338   7.477  19.775  0.00  0.00    +0.245 A 
ATOM     12  C   UNL     1      16.357   7.342  20.209  0.00  0.00    +0.202 A 
ENDROOT
BRANCH  12  13
ATOM     13  C   UNL     1      17.646   6.766  20.458  0.00  0.00    +0.023 A 
ATOM     14  C   UNL     1      18.431   7.238  21.510  0.00  0.00    +0.015 A 
ATOM     15  C   UNL     1      18.115   5.731  19.647  0.00  0.00    +0.012 A 
ATOM     16  C   UNL     1      19.684   6.675  21.752  0.00  0.00    -0.050 A 
ATOM     17  C   UNL     1      19.369   5.169  19.890  0.00  0.00    +0.001 A 
ATOM     18  C   UNL     1      20.153   5.641  20.943  0.00  0.00    +0.003 A 
ATOM     19  C   UNL     1      20.523   7.180  22.877  0.00  0.00    +0.044 C 
ENDBRANCH  12  13
BRANCH  10   6
ATOM      3  N   UNL     1      12.034   8.396  19.978  0.00  0.00    -0.292 NA
ATOM      6  C   UNL     1      12.871   7.304  19.441  0.00  0.00    +0.148 C 
ATOM      7  C   UNL     1      12.602   7.310  17.924  0.00  0.00    +0.061 C 
ATOM      8  C   UNL     1      11.566   8.407  17.713  0.00  0.00    +0.130 C 
ATOM      9  C   UNL     1      10.898   8.531  19.068  0.00  0.00    +0.116 C 
ATOM     11  C   UNL     1      11.612   8.174  21.354  0.00  0.00    +0.105 C 
BRANCH   8   1
ATOM      1  O   UNL     1      10.645   8.040  16.705  0.00  0.00    -0.390 OA
ATOM     20  H   UNL     1      10.392   7.114  16.863  0.00  0.00    +0.210 HD
ENDBRANCH   8   1
ENDBRANCH  10   6
TORSDOF 3
ENDMDL
MODEL 4
REMARK VINA RESULT:      -6.3      1.873      2.770
REMARK  Name = 26743878
REMARK  5 active torsions:
REMARK  status: ('A' for Active; 'I' for Inactive)
REMARK    1  A    between atoms: O_1  and  C_8
REMARK    2  A    between atoms: N_3  and  C_11
REMARK    3  A    between atoms: C_6  and  C_10
REMARK    4  A    between atoms: C_12  and  C_13
REMARK    5  A    between atoms: C_16  and  C_19
REMARK                            x       y       z     vdW  Elec       q    Type
REMARK                         _______ _______ _______ _____ _____    ______ ____
ROOT
ATOM      2  O   UNL     1      14.374   6.537  20.567  0.00  0.00    -0.336 OA
ATOM      4  N   UNL     1      15.950   7.534  19.327  0.00  0.00    -0.190 NA
ATOM      5  N   UNL     1      15.578   6.374  21.264  0.00  0.00    -0.056 NA
ATOM     10  C   UNL     1      14.683   7.229  19.438  0.00  0.00    +0.245 A 
ATOM     12  C   UNL     1      16.460   6.989  20.469  0.00  0.00    +0.202 A 
ENDROOT
BRANCH  12  13
ATOM     13  C   UNL     1      17.856   7.075  20.787  0.00  0.00    +0.023 A 
ATOM     14  C   UNL     1      18.707   6.010  20.492  0.00  0.00    +0.015 A 
ATOM     15  C   UNL     1      18.362   8.226  21.394  0.00  0.00    +0.012 A 
ATOM     16  C   UNL     1      20.064   6.096  20.801  0.00  0.00    -0.050 A 
ATOM     17  C   UNL     1      19.720   8.311  21.702  0.00  0.00    +0.001 A 
ATOM     18  C   UNL     1      20.571   7.247  21.406  0.00  0.00    +0.003 A 
ATOM     19  C   UNL     1      20.975   4.959  20.484  0.00  0.00    +0.044 C 
ENDBRANCH  12  13
BRANCH  10   6
ATOM      3  N   UNL     1      12.931   8.862  18.758  0.00  0.00    -0.292 NA
ATOM      6  C   UNL     1      13.534   7.539  18.501  0.00  0.00    +0.148 C 
ATOM      7  C   UNL     1      13.967   7.583  17.024  0.00  0.00    +0.061 C 
ATOM      8  C   UNL     1      13.524   8.953  16.525  0.00  0.00    +0.130 C 
ATOM      9  C   UNL     1      12.408   9.334  17.478  0.00  0.00    +0.116 C 
ATOM     11  C   UNL     1      11.907   8.835  19.794  0.00  0.00    +0.105 C 
BRANCH   8   1
ATOM      1  O   UNL     1      13.070   8.877  15.188  0.00  0.00    -0.390 OA
ATOM     20  H   UNL     1      12.990   9.787  14.853  0.00  0.00    +0.210 HD
ENDBRANCH   8   1
ENDBRANCH  10   6
TORSDOF 3
ENDMDL
MODEL 5
REMARK VINA RESULT:      -6.3     26.989     28.051
REMARK  Name = 26743878
REMARK  5 active torsions:
REMARK  status: ('A' for Active; 'I' for Inactive)
REMARK    1  A    between atoms: O_1  and  C_8
REMARK    2  A    between atoms: N_3  and  C_11
REMARK    3  A    between atoms: C_6  and  C_10
REMARK    4  A    between atoms: C_12  and  C_13
REMARK    5  A    between atoms: C_16  and  C_19
REMARK                            x       y       z     vdW  Elec       q    Type
REMARK                         _______ _______ _______ _____ _____    ______ ____
ROOT
ATOM      2  O   UNL     1      -1.877 -10.580  13.174  0.00  0.00    -0.336 OA
ATOM      4  N   UNL     1      -4.104 -10.640  13.403  0.00  0.00    -0.190 NA
ATOM      5  N   UNL     1      -2.126 -10.597  14.552  0.00  0.00    -0.056 NA
ATOM     10  C   UNL     1      -3.095 -10.606  12.571  0.00  0.00    +0.245 A 
ATOM     12  C   UNL     1      -3.461 -10.632  14.607  0.00  0.00    +0.202 A 
ENDROOT
BRANCH  12  13
ATOM     13  C   UNL     1      -4.182 -10.660  15.846  0.00  0.00    +0.023 A 
ATOM     14  C   UNL     1      -3.646 -11.320  16.952  0.00  0.00    +0.015 A 
ATOM     15  C   UNL     1      -5.422 -10.026  15.945  0.00  0.00    +0.012 A 
ATOM     16  C   UNL     1      -4.348 -11.345  18.157  0.00  0.00    -0.050 A 
ATOM     17  C   UNL     1      -6.123 -10.052  17.151  0.00  0.00    +0.001 A 
ATOM     18  C   UNL     1      -5.586 -10.711  18.257  0.00  0.00    +0.003 A 
ATOM     19  C   UNL     1      -3.774 -12.050  19.339  0.00  0.00    +0.044 C 
ENDBRANCH  12  13
BRANCH  10   6
ATOM      3  N   UNL     1      -4.161 -11.446  10.484  0.00  0.00    -0.292 NA
ATOM      6  C   UNL     1      -3.098 -10.596  11.056  0.00  0.00    +0.148 C 
ATOM      7  C   UNL     1      -3.358  -9.194  10.472  0.00  0.00    +0.061 C 
ATOM      8  C   UNL     1      -4.557  -9.368   9.549  0.00  0.00    +0.130 C 
ATOM      9  C   UNL     1      -4.528 -10.844   9.203  0.00  0.00    +0.116 C 
ATOM     11  C   UNL     1      -3.767 -12.841  10.342  0.00  0.00    +0.105 C 
BRANCH   8   1
ATOM      1  O   UNL     1      -4.426  -8.557   8.398  0.00  0.00    -0.390 OA
ATOM     20  H   UNL     1      -5.302  -8.184   8.200  0.00  0.00    +0.210 HD
ENDBRANCH   8   1
ENDBRANCH  10   6
TORSDOF 3
ENDMDL
MODEL 6
REMARK VINA RESULT:      -6.2      2.200      3.016
REMARK  Name = 26743878
REMARK  5 active torsions:
REMARK  status: ('A' for Active; 'I' for Inactive)
REMARK    1  A    between atoms: O_1  and  C_8
REMARK    2  A    between atoms: N_3  and  C_11
REMARK    3  A    between atoms: C_6  and  C_10
REMARK    4  A    between atoms: C_12  and  C_13
REMARK    5  A    between atoms: C_16  and  C_19
REMARK                            x       y       z     vdW  Elec       q    Type
REMARK                         _______ _______ _______ _____ _____    ______ ____
ROOT
ATOM      2  O   UNL     1      14.387  10.407  21.025  0.00  0.00    -0.336 OA
ATOM      4  N   UNL     1      14.089   8.199  20.804  0.00  0.00    -0.190 NA
ATOM      5  N   UNL     1      15.651   9.870  20.756  0.00  0.00    -0.056 NA
ATOM     10  C   UNL     1      13.525   9.356  21.036  0.00  0.00    +0.245 A 
ATOM     12  C   UNL     1      15.394   8.563  20.638  0.00  0.00    +0.202 A 
ENDROOT
BRANCH  12  13
ATOM     13  C   UNL     1      16.415   7.597  20.357  0.00  0.00    +0.023 A 
ATOM     14  C   UNL     1      17.571   7.554  21.137  0.00  0.00    +0.015 A 
ATOM     15  C   UNL     1      16.253   6.699  19.301  0.00  0.00    +0.012 A 
ATOM     16  C   UNL     1      18.563   6.614  20.863  0.00  0.00    -0.050 A 
ATOM     17  C   UNL     1      17.246   5.759  19.026  0.00  0.00    +0.001 A 
ATOM     18  C   UNL     1      18.402   5.715  19.808  0.00  0.00    +0.003 A 
ATOM     19  C   UNL     1      19.798   6.567  21.698  0.00  0.00    +0.044 C 
ENDBRANCH  12  13
BRANCH  10   6
ATOM      3  N   UNL     1      11.382   8.612  22.062  0.00  0.00    -0.292 NA
ATOM      6  C   UNL     1      12.070   9.679  21.309  0.00  0.00    +0.148 C 
ATOM      7  C   UNL     1      11.894  10.945  22.169  0.00  0.00    +0.061 C 
ATOM      8  C   UNL     1      11.054  10.497  23.359  0.00  0.00    +0.130 C 
ATOM      9  C   UNL     1      10.335   9.266  22.844  0.00  0.00    +0.116 C 
ATOM     11  C   UNL     1      10.851   7.557  21.208  0.00  0.00    +0.105 C 
BRANCH   8   1
ATOM      1  O   UNL     1      10.148  11.513  23.743  0.00  0.00    -0.390 OA
ATOM     20  H   UNL     1       9.869  11.326  24.656  0.00  0.00    +0.210 HD
ENDBRANCH   8   1
ENDBRANCH  10   6
TORSDOF 3
ENDMDL
MODEL 7
REMARK VINA RESULT:      -6.0      4.519      8.039
REMARK  Name = 26743878
REMARK  5 active torsions:
REMARK  status: ('A' for Active; 'I' for Inactive)
REMARK    1  A    between atoms: O_1  and  C_8
REMARK    2  A    between atoms: N_3  and  C_11
REMARK    3  A    between atoms: C_6  and  C_10
REMARK    4  A    between atoms: C_12  and  C_13
REMARK    5  A    between atoms: C_16  and  C_19
REMARK                            x       y       z     vdW  Elec       q    Type
REMARK                         _______ _______ _______ _____ _____    ______ ____
ROOT
ATOM      2  O   UNL     1      12.833  11.262  19.973  0.00  0.00    -0.336 OA
ATOM      4  N   UNL     1      11.317  10.785  21.551  0.00  0.00    -0.190 NA
ATOM      5  N   UNL     1      12.461  12.488  20.538  0.00  0.00    -0.056 NA
ATOM     10  C   UNL     1      12.113  10.312  20.627  0.00  0.00    +0.245 A 
ATOM     12  C   UNL     1      11.564  12.124  21.460  0.00  0.00    +0.202 A 
ENDROOT
BRANCH  12  13
ATOM     13  C   UNL     1      10.898  13.072  22.305  0.00  0.00    +0.023 A 
ATOM     14  C   UNL     1      11.060  13.009  23.689  0.00  0.00    +0.015 A 
ATOM     15  C   UNL     1      10.087  14.058  21.741  0.00  0.00    +0.012 A 
ATOM     16  C   UNL     1      10.413  13.933  24.510  0.00  0.00    -0.050 A 
ATOM     17  C   UNL     1       9.439  14.981  22.563  0.00  0.00    +0.001 A 
ATOM     18  C   UNL     1       9.602  14.919  23.947  0.00  0.00    +0.003 A 
ATOM     19  C   UNL     1      10.587  13.866  25.989  0.00  0.00    +0.044 C 
ENDBRANCH  12  13
BRANCH  10   6
ATOM      3  N   UNL     1      13.465   8.241  20.905  0.00  0.00    -0.292 NA
ATOM      6  C   UNL     1      12.339   8.878  20.195  0.00  0.00    +0.148 C 
ATOM      7  C   UNL     1      11.127   7.971  20.485  0.00  0.00    +0.061 C 
ATOM      8  C   UNL     1      11.683   6.829  21.326  0.00  0.00    +0.130 C 
ATOM      9  C   UNL     1      13.158   6.814  20.974  0.00  0.00    +0.116 C 
ATOM     11  C   UNL     1      14.756   8.494  20.279  0.00  0.00    +0.105 C 
BRANCH   8   1
ATOM      1  O   UNL     1      11.051   5.608  20.994  0.00  0.00    -0.390 OA
ATOM     20  H   UNL     1      10.432   5.788  20.265  0.00  0.00    +0.210 HD
ENDBRANCH   8   1
ENDBRANCH  10   6
TORSDOF 3
ENDMDL
MODEL 8
REMARK VINA RESULT:      -5.8     30.392     32.216
REMARK  Name = 26743878
REMARK  5 active torsions:
REMARK  status: ('A' for Active; 'I' for Inactive)
REMARK    1  A    between atoms: O_1  and  C_8
REMARK    2  A    between atoms: N_3  and  C_11
REMARK    3  A    between atoms: C_6  and  C_10
REMARK    4  A    between atoms: C_12  and  C_13
REMARK    5  A    between atoms: C_16  and  C_19
REMARK                            x       y       z     vdW  Elec       q    Type
REMARK                         _______ _______ _______ _____ _____    ______ ____
ROOT
ATOM      2  O   UNL     1     -15.113   3.167  33.564  0.00  0.00    -0.336 OA
ATOM      4  N   UNL     1     -14.351   4.589  32.010  0.00  0.00    -0.190 NA
ATOM      5  N   UNL     1     -14.619   4.277  34.261  0.00  0.00    -0.056 NA
ATOM     10  C   UNL     1     -14.915   3.432  32.245  0.00  0.00    +0.245 A 
ATOM     12  C   UNL     1     -14.187   5.071  33.277  0.00  0.00    +0.202 A 
ENDROOT
BRANCH  12  13
ATOM     13  C   UNL     1     -13.587   6.350  33.524  0.00  0.00    +0.023 A 
ATOM     14  C   UNL     1     -13.003   7.062  32.476  0.00  0.00    +0.015 A 
ATOM     15  C   UNL     1     -13.590   6.883  34.814  0.00  0.00    +0.012 A 
ATOM     16  C   UNL     1     -12.421   8.306  32.718  0.00  0.00    -0.050 A 
ATOM     17  C   UNL     1     -13.007   8.128  35.054  0.00  0.00    +0.001 A 
ATOM     18  C   UNL     1     -12.423   8.840  34.007  0.00  0.00    +0.003 A 
ATOM     19  C   UNL     1     -11.796   9.068  31.598  0.00  0.00    +0.044 C 
ENDBRANCH  12  13
BRANCH  10   6
ATOM      3  N   UNL     1     -14.761   2.524  29.933  0.00  0.00    -0.292 NA
ATOM      6  C   UNL     1     -15.373   2.370  31.268  0.00  0.00    +0.148 C 
ATOM      7  C   UNL     1     -14.991   0.946  31.715  0.00  0.00    +0.061 C 
ATOM      8  C   UNL     1     -14.205   0.365  30.547  0.00  0.00    +0.130 C 
ATOM      9  C   UNL     1     -14.676   1.182  29.360  0.00  0.00    +0.116 C 
ATOM     11  C   UNL     1     -15.488   3.444  29.070  0.00  0.00    +0.105 C 
BRANCH   8   1
ATOM      1  O   UNL     1     -14.492  -1.011  30.385  0.00  0.00    -0.390 OA
ATOM     20  H   UNL     1     -13.666  -1.454  30.124  0.00  0.00    +0.210 HD
ENDBRANCH   8   1
ENDBRANCH  10   6
TORSDOF 3
ENDMDL
MODEL 9
REMARK VINA RESULT:      -5.7     27.073     28.662
REMARK  Name = 26743878
REMARK  5 active torsions:
REMARK  status: ('A' for Active; 'I' for Inactive)
REMARK    1  A    between atoms: O_1  and  C_8
REMARK    2  A    between atoms: N_3  and  C_11
REMARK    3  A    between atoms: C_6  and  C_10
REMARK    4  A    between atoms: C_12  and  C_13
REMARK    5  A    between atoms: C_16  and  C_19
REMARK                            x       y       z     vdW  Elec       q    Type
REMARK                         _______ _______ _______ _____ _____    ______ ____
ROOT
ATOM      2  O   UNL     1      -1.664 -11.215  14.925  0.00  0.00    -0.336 OA
ATOM      4  N   UNL     1      -3.660 -12.215  15.099  0.00  0.00    -0.190 NA
ATOM      5  N   UNL     1      -2.249 -10.712  16.093  0.00  0.00    -0.056 NA
ATOM     10  C   UNL     1      -2.561 -12.093  14.401  0.00  0.00    +0.245 A 
ATOM     12  C   UNL     1      -3.425 -11.349  16.128  0.00  0.00    +0.202 A 
ENDROOT
BRANCH  12  13
ATOM     13  C   UNL     1      -4.383 -11.143  17.173  0.00  0.00    +0.023 A 
ATOM     14  C   UNL     1      -5.546 -10.414  16.922  0.00  0.00    +0.015 A 
ATOM     15  C   UNL     1      -4.153 -11.672  18.444  0.00  0.00    +0.012 A 
ATOM     16  C   UNL     1      -6.478 -10.215  17.940  0.00  0.00    -0.050 A 
ATOM     17  C   UNL     1      -5.086 -11.472  19.462  0.00  0.00    +0.001 A 
ATOM     18  C   UNL     1      -6.249 -10.744  19.210  0.00  0.00    +0.003 A 
ATOM     19  C   UNL     1      -7.722  -9.437  17.670  0.00  0.00    +0.044 C 
ENDBRANCH  12  13
BRANCH  10   6
ATOM      3  N   UNL     1      -2.496 -14.221  13.111  0.00  0.00    -0.292 NA
ATOM      6  C   UNL     1      -2.157 -12.783  13.115  0.00  0.00    +0.148 C 
ATOM      7  C   UNL     1      -2.874 -12.206  11.880  0.00  0.00    +0.061 C 
ATOM      8  C   UNL     1      -3.548 -13.403  11.222  0.00  0.00    +0.130 C 
ATOM      9  C   UNL     1      -2.737 -14.585  11.716  0.00  0.00    +0.116 C 
ATOM     11  C   UNL     1      -1.471 -15.054  13.726  0.00  0.00    +0.105 C 
BRANCH   8   1
ATOM      1  O   UNL     1      -3.506 -13.290   9.812  0.00  0.00    -0.390 OA
ATOM     20  H   UNL     1      -4.252 -13.802   9.455  0.00  0.00    +0.210 HD
ENDBRANCH   8   1
ENDBRANCH  10   6
TORSDOF 3
ENDMDL
MODEL 10
REMARK VINA RESULT:      -5.7     16.190     18.411
REMARK  Name = 26743878
REMARK  5 active torsions:
REMARK  status: ('A' for Active; 'I' for Inactive)
REMARK    1  A    between atoms: O_1  and  C_8
REMARK    2  A    between atoms: N_3  and  C_11
REMARK    3  A    between atoms: C_6  and  C_10
REMARK    4  A    between atoms: C_12  and  C_13
REMARK    5  A    between atoms: C_16  and  C_19
REMARK                            x       y       z     vdW  Elec       q    Type
REMARK                         _______ _______ _______ _____ _____    ______ ____
ROOT
ATOM      2  O   UNL     1      12.358   6.137   3.383  0.00  0.00    -0.336 OA
ATOM      4  N   UNL     1      10.544   5.024   4.082  0.00  0.00    -0.190 NA
ATOM      5  N   UNL     1      11.999   6.709   4.609  0.00  0.00    -0.056 NA
ATOM     10  C   UNL     1      11.450   5.153   3.146  0.00  0.00    +0.245 A 
ATOM     12  C   UNL     1      10.921   6.000   4.959  0.00  0.00    +0.202 A 
ENDROOT
BRANCH  12  13
ATOM     13  C   UNL     1      10.200   6.240   6.174  0.00  0.00    +0.023 A 
ATOM     14  C   UNL     1      10.171   5.267   7.173  0.00  0.00    +0.015 A 
ATOM     15  C   UNL     1       9.525   7.448   6.357  0.00  0.00    +0.012 A 
ATOM     16  C   UNL     1       9.469   5.503   8.356  0.00  0.00    -0.050 A 
ATOM     17  C   UNL     1       8.824   7.683   7.539  0.00  0.00    +0.001 A 
ATOM     18  C   UNL     1       8.796   6.711   8.539  0.00  0.00    +0.003 A 
ATOM     19  C   UNL     1       9.439   4.463   9.424  0.00  0.00    +0.044 C 
ENDBRANCH  12  13
BRANCH  10   6
ATOM      3  N   UNL     1      11.298   5.168   0.662  0.00  0.00    -0.292 NA
ATOM      6  C   UNL     1      11.622   4.371   1.861  0.00  0.00    +0.148 C 
ATOM      7  C   UNL     1      13.074   3.902   1.641  0.00  0.00    +0.061 C 
ATOM      8  C   UNL     1      13.460   4.447   0.272  0.00  0.00    +0.130 C 
ATOM      9  C   UNL     1      12.126   4.642  -0.422  0.00  0.00    +0.116 C 
ATOM     11  C   UNL     1       9.880   5.150   0.327  0.00  0.00    +0.105 C 
BRANCH   8   1
ATOM      1  O   UNL     1      14.282   3.527  -0.420  0.00  0.00    -0.390 OA
ATOM     20  H   UNL     1      14.932   3.180   0.215  0.00  0.00    +0.210 HD
ENDBRANCH   8   1
ENDBRANCH  10   6
TORSDOF 3
ENDMDL
