MODEL 1
REMARK VINA RESULT:      -7.1      0.000      0.000
REMARK  Name = 40780675
REMARK  11 active torsions:
REMARK  status: ('A' for Active; 'I' for Inactive)
REMARK    1  A    between atoms: S_1  and  N_11
REMARK    2  A    between atoms: S_1  and  C_26
REMARK    3  A    between atoms: O_3  and  C_13
REMARK    4  A    between atoms: O_4  and  C_14
REMARK    5  A    between atoms: O_8  and  C_24
REMARK    6  A    between atoms: O_8  and  C_30
REMARK    7  A    between atoms: N_10  and  C_23
REMARK    8  A    between atoms: N_11  and  C_17
REMARK    9  A    between atoms: C_12  and  C_16
REMARK   10  A    between atoms: C_15  and  C_17
REMARK   11  A    between atoms: C_16  and  C_18
REMARK                            x       y       z     vdW  Elec       q    Type
REMARK                         _______ _______ _______ _____ _____    ______ ____
ROOT
ATOM     16  C   UNL     1      14.918   6.877  20.065  0.00  0.00    +0.130 C 
ENDROOT
BRANCH  16  18
ATOM      5  O   UNL     1      15.664   8.160  21.913  0.00  0.00    -0.276 OA
ATOM      9  N   UNL     1      17.308   7.263  20.542  0.00  0.00    -0.298 N 
ATOM     10  N   UNL     1      19.791   5.922  20.619  0.00  0.00    -0.324 N 
ATOM     18  C   UNL     1      15.991   7.495  20.926  0.00  0.00    +0.218 C 
ATOM     19  C   UNL     1      17.737   6.481  19.380  0.00  0.00    +0.126 C 
ATOM     20  C   UNL     1      18.412   7.843  21.304  0.00  0.00    +0.126 C 
ATOM     21  C   UNL     1      18.700   5.371  19.801  0.00  0.00    +0.124 C 
ATOM     22  C   UNL     1      19.383   6.756  21.760  0.00  0.00    +0.124 C 
BRANCH  10  23
ATOM     23  C   UNL     1      20.997   5.220  20.724  0.00  0.00    +0.072 A 
ATOM     24  C   UNL     1      22.207   5.839  20.410  0.00  0.00    +0.141 A 
ATOM     25  C   UNL     1      20.982   3.892  21.150  0.00  0.00    +0.027 A 
ATOM     27  C   UNL     1      23.402   5.129  20.521  0.00  0.00    +0.047 A 
ATOM     28  C   UNL     1      22.177   3.182  21.261  0.00  0.00    +0.002 A 
ATOM     29  C   UNL     1      23.388   3.799  20.946  0.00  0.00    +0.004 A 
BRANCH  24   8
ATOM      8  O   UNL     1      22.243   7.135  19.992  0.00  0.00    -0.493 OA
ATOM     30  C   UNL     1      22.881   8.076  20.854  0.00  0.00    +0.277 C 
ENDBRANCH  24   8
ENDBRANCH  10  23
ENDBRANCH  16  18
BRANCH  16  12
ATOM      2  O   UNL     1      13.843   8.885  19.310  0.00  0.00    -0.366 OA
ATOM     12  C   UNL     1      14.645   7.767  18.860  0.00  0.00    +0.158 C 
ATOM     13  C   UNL     1      13.835   7.068  17.774  0.00  0.00    +0.175 C 
ATOM     14  C   UNL     1      12.412   7.382  18.188  0.00  0.00    +0.175 C 
ATOM     15  C   UNL     1      12.549   8.812  18.685  0.00  0.00    +0.165 C 
BRANCH  13   3
ATOM      3  O   UNL     1      14.138   7.692  16.526  0.00  0.00    -0.387 OA
ATOM     31  H   UNL     1      13.970   7.038  15.826  0.00  0.00    +0.210 HD
ENDBRANCH  13   3
BRANCH  14   4
ATOM      4  O   UNL     1      11.485   7.276  17.129  0.00  0.00    -0.387 OA
ATOM     32  H   UNL     1      11.267   8.179  16.841  0.00  0.00    +0.210 HD
ENDBRANCH  14   4
BRANCH  15  17
ATOM     17  C   UNL     1      11.477   9.207  19.684  0.00  0.00    +0.139 C 
BRANCH  17  11
ATOM     11  N   UNL     1      10.730   8.065  20.121  0.00  0.00    -0.192 NA
ATOM     33  H   UNL     1       9.749   8.055  19.812  0.00  0.00    +0.148 HD
BRANCH  11   1
ATOM      1  S   UNL     1      11.032   7.364  21.671  0.00  0.00    +0.027 S 
ATOM      6  O   UNL     1      11.745   6.114  21.493  0.00  0.00    -0.158 OA
ATOM      7  O   UNL     1       9.826   7.422  22.476  0.00  0.00    -0.158 OA
ATOM     26  C   UNL     1      12.172   8.556  22.335  0.00  0.00    +0.214 C 
ENDBRANCH  11   1
ENDBRANCH  17  11
ENDBRANCH  15  17
ENDBRANCH  16  12
TORSDOF 9
ENDMDL
MODEL 2
REMARK VINA RESULT:      -6.7      1.786      1.996
REMARK  Name = 40780675
REMARK  11 active torsions:
REMARK  status: ('A' for Active; 'I' for Inactive)
REMARK    1  A    between atoms: S_1  and  N_11
REMARK    2  A    between atoms: S_1  and  C_26
REMARK    3  A    between atoms: O_3  and  C_13
REMARK    4  A    between atoms: O_4  and  C_14
REMARK    5  A    between atoms: O_8  and  C_24
REMARK    6  A    between atoms: O_8  and  C_30
REMARK    7  A    between atoms: N_10  and  C_23
REMARK    8  A    between atoms: N_11  and  C_17
REMARK    9  A    between atoms: C_12  and  C_16
REMARK   10  A    between atoms: C_15  and  C_17
REMARK   11  A    between atoms: C_16  and  C_18
REMARK                            x       y       z     vdW  Elec       q    Type
REMARK                         _______ _______ _______ _____ _____    ______ ____
ROOT
ATOM     16  C   UNL     1      14.570   6.614  20.509  0.00  0.00    +0.130 C 
ENDROOT
BRANCH  16  18
ATOM      5  O   UNL     1      15.252   8.348  21.975  0.00  0.00    -0.276 OA
ATOM      9  N   UNL     1      16.892   7.444  20.602  0.00  0.00    -0.298 N 
ATOM     10  N   UNL     1      19.564   6.535  20.619  0.00  0.00    -0.324 N 
ATOM     18  C   UNL     1      15.595   7.550  21.098  0.00  0.00    +0.218 C 
ATOM     19  C   UNL     1      17.338   6.513  19.564  0.00  0.00    +0.126 C 
ATOM     20  C   UNL     1      17.945   8.327  21.097  0.00  0.00    +0.126 C 
ATOM     21  C   UNL     1      18.512   5.671  20.063  0.00  0.00    +0.124 C 
ATOM     22  C   UNL     1      19.126   7.516  21.624  0.00  0.00    +0.124 C 
BRANCH  10  23
ATOM     23  C   UNL     1      20.877   6.060  20.702  0.00  0.00    +0.072 A 
ATOM     24  C   UNL     1      21.955   6.903  20.437  0.00  0.00    +0.141 A 
ATOM     25  C   UNL     1      21.102   4.729  21.057  0.00  0.00    +0.027 A 
ATOM     27  C   UNL     1      23.260   6.417  20.526  0.00  0.00    +0.047 A 
ATOM     28  C   UNL     1      22.407   4.243  21.145  0.00  0.00    +0.002 A 
ATOM     29  C   UNL     1      23.486   5.085  20.879  0.00  0.00    +0.004 A 
BRANCH  24   8
ATOM      8  O   UNL     1      21.756   8.205  20.089  0.00  0.00    -0.493 OA
ATOM     30  C   UNL     1      22.609   9.175  20.695  0.00  0.00    +0.277 C 
ENDBRANCH  24   8
ENDBRANCH  10  23
ENDBRANCH  16  18
BRANCH  16  12
ATOM      2  O   UNL     1      14.211   8.637  19.270  0.00  0.00    -0.366 OA
ATOM     12  C   UNL     1      14.006   7.206  19.225  0.00  0.00    +0.158 C 
ATOM     13  C   UNL     1      12.503   6.993  19.080  0.00  0.00    +0.175 C 
ATOM     14  C   UNL     1      11.942   8.224  19.761  0.00  0.00    +0.175 C 
ATOM     15  C   UNL     1      12.931   9.292  19.322  0.00  0.00    +0.165 C 
BRANCH  13   3
ATOM      3  O   UNL     1      12.185   7.008  17.689  0.00  0.00    -0.387 OA
ATOM     31  H   UNL     1      11.930   6.103  17.438  0.00  0.00    +0.210 HD
ENDBRANCH  13   3
BRANCH  14   4
ATOM      4  O   UNL     1      10.622   8.530  19.365  0.00  0.00    -0.387 OA
ATOM     32  H   UNL     1      10.211   9.037  20.086  0.00  0.00    +0.210 HD
ENDBRANCH  14   4
BRANCH  15  17
ATOM     17  C   UNL     1      13.000  10.474  20.271  0.00  0.00    +0.139 C 
BRANCH  17  11
ATOM     11  N   UNL     1      12.646  10.089  21.605  0.00  0.00    -0.192 NA
ATOM     33  H   UNL     1      12.613   9.072  21.760  0.00  0.00    +0.148 HD
BRANCH  11   1
ATOM      1  S   UNL     1      11.505  11.018  22.510  0.00  0.00    +0.027 S 
ATOM      6  O   UNL     1      10.539  10.122  23.114  0.00  0.00    -0.158 OA
ATOM      7  O   UNL     1      11.070  12.157  21.723  0.00  0.00    -0.158 OA
ATOM     26  C   UNL     1      12.561  11.637  23.800  0.00  0.00    +0.214 C 
ENDBRANCH  11   1
ENDBRANCH  17  11
ENDBRANCH  15  17
ENDBRANCH  16  12
TORSDOF 9
ENDMDL
MODEL 3
REMARK VINA RESULT:      -6.6      3.406      9.833
REMARK  Name = 40780675
REMARK  11 active torsions:
REMARK  status: ('A' for Active; 'I' for Inactive)
REMARK    1  A    between atoms: S_1  and  N_11
REMARK    2  A    between atoms: S_1  and  C_26
REMARK    3  A    between atoms: O_3  and  C_13
REMARK    4  A    between atoms: O_4  and  C_14
REMARK    5  A    between atoms: O_8  and  C_24
REMARK    6  A    between atoms: O_8  and  C_30
REMARK    7  A    between atoms: N_10  and  C_23
REMARK    8  A    between atoms: N_11  and  C_17
REMARK    9  A    between atoms: C_12  and  C_16
REMARK   10  A    between atoms: C_15  and  C_17
REMARK   11  A    between atoms: C_16  and  C_18
REMARK                            x       y       z     vdW  Elec       q    Type
REMARK                         _______ _______ _______ _____ _____    ______ ____
ROOT
ATOM     16  C   UNL     1      18.544   7.142  21.057  0.00  0.00    +0.130 C 
ENDROOT
BRANCH  16  18
ATOM      5  O   UNL     1      17.924   9.246  21.956  0.00  0.00    -0.276 OA
ATOM      9  N   UNL     1      16.275   8.079  20.812  0.00  0.00    -0.298 N 
ATOM     10  N   UNL     1      14.217   8.414  18.909  0.00  0.00    -0.324 N 
ATOM     18  C   UNL     1      17.559   8.253  21.320  0.00  0.00    +0.218 C 
ATOM     19  C   UNL     1      15.803   6.918  20.054  0.00  0.00    +0.126 C 
ATOM     20  C   UNL     1      15.248   9.094  21.039  0.00  0.00    +0.126 C 
ATOM     21  C   UNL     1      15.214   7.352  18.712  0.00  0.00    +0.124 C 
ATOM     22  C   UNL     1      14.653   9.566  19.714  0.00  0.00    +0.124 C 
BRANCH  10  23
ATOM     23  C   UNL     1      13.241   8.636  17.931  0.00  0.00    +0.072 A 
ATOM     24  C   UNL     1      11.919   8.248  18.146  0.00  0.00    +0.141 A 
ATOM     25  C   UNL     1      13.601   9.255  16.733  0.00  0.00    +0.027 A 
ATOM     27  C   UNL     1      10.956   8.477  17.164  0.00  0.00    +0.047 A 
ATOM     28  C   UNL     1      12.637   9.484  15.751  0.00  0.00    +0.002 A 
ATOM     29  C   UNL     1      11.315   9.095  15.965  0.00  0.00    +0.004 A 
BRANCH  24   8
ATOM      8  O   UNL     1      11.548   7.642  19.309  0.00  0.00    -0.493 OA
ATOM     30  C   UNL     1      10.866   8.446  20.269  0.00  0.00    +0.277 C 
ENDBRANCH  24   8
ENDBRANCH  10  23
ENDBRANCH  16  18
BRANCH  16  12
ATOM      2  O   UNL     1      20.912   7.175  20.670  0.00  0.00    -0.366 OA
ATOM     12  C   UNL     1      19.899   7.500  21.651  0.00  0.00    +0.158 C 
ATOM     13  C   UNL     1      20.237   6.692  22.899  0.00  0.00    +0.175 C 
ATOM     14  C   UNL     1      20.938   5.484  22.313  0.00  0.00    +0.175 C 
ATOM     15  C   UNL     1      21.736   6.114  21.183  0.00  0.00    +0.165 C 
BRANCH  13   3
ATOM      3  O   UNL     1      21.144   7.457  23.690  0.00  0.00    -0.387 OA
ATOM     31  H   UNL     1      20.930   7.289  24.624  0.00  0.00    +0.210 HD
ENDBRANCH  13   3
BRANCH  14   4
ATOM      4  O   UNL     1      21.768   4.815  23.239  0.00  0.00    -0.387 OA
ATOM     32  H   UNL     1      22.605   5.307  23.288  0.00  0.00    +0.210 HD
ENDBRANCH  14   4
BRANCH  15  17
ATOM     17  C   UNL     1      22.070   5.141  20.067  0.00  0.00    +0.139 C 
BRANCH  17  11
ATOM     11  N   UNL     1      22.430   3.857  20.590  0.00  0.00    -0.192 NA
ATOM     33  H   UNL     1      21.756   3.468  21.264  0.00  0.00    +0.148 HD
BRANCH  11   1
ATOM      1  S   UNL     1      24.087   3.464  20.882  0.00  0.00    +0.027 S 
ATOM      6  O   UNL     1      24.484   4.014  22.163  0.00  0.00    -0.158 OA
ATOM      7  O   UNL     1      24.868   3.727  19.688  0.00  0.00    -0.158 OA
ATOM     26  C   UNL     1      23.962   1.699  21.057  0.00  0.00    +0.214 C 
ENDBRANCH  11   1
ENDBRANCH  17  11
ENDBRANCH  15  17
ENDBRANCH  16  12
TORSDOF 9
ENDMDL
MODEL 4
REMARK VINA RESULT:      -6.4      2.264      3.438
REMARK  Name = 40780675
REMARK  11 active torsions:
REMARK  status: ('A' for Active; 'I' for Inactive)
REMARK    1  A    between atoms: S_1  and  N_11
REMARK    2  A    between atoms: S_1  and  C_26
REMARK    3  A    between atoms: O_3  and  C_13
REMARK    4  A    between atoms: O_4  and  C_14
REMARK    5  A    between atoms: O_8  and  C_24
REMARK    6  A    between atoms: O_8  and  C_30
REMARK    7  A    between atoms: N_10  and  C_23
REMARK    8  A    between atoms: N_11  and  C_17
REMARK    9  A    between atoms: C_12  and  C_16
REMARK   10  A    between atoms: C_15  and  C_17
REMARK   11  A    between atoms: C_16  and  C_18
REMARK                            x       y       z     vdW  Elec       q    Type
REMARK                         _______ _______ _______ _____ _____    ______ ____
ROOT
ATOM     16  C   UNL     1      18.112   6.543  21.229  0.00  0.00    +0.130 C 
ENDROOT
BRANCH  16  18
ATOM      5  O   UNL     1      19.765   8.231  21.423  0.00  0.00    -0.276 OA
ATOM      9  N   UNL     1      20.482   6.159  20.659  0.00  0.00    -0.298 N 
ATOM     10  N   UNL     1      22.549   4.261  20.967  0.00  0.00    -0.324 N 
ATOM     18  C   UNL     1      19.524   7.061  21.113  0.00  0.00    +0.218 C 
ATOM     19  C   UNL     1      20.237   4.765  20.283  0.00  0.00    +0.126 C 
ATOM     20  C   UNL     1      21.871   6.580  20.494  0.00  0.00    +0.126 C 
ATOM     21  C   UNL     1      21.149   3.824  21.071  0.00  0.00    +0.124 C 
ATOM     22  C   UNL     1      22.809   5.673  21.288  0.00  0.00    +0.124 C 
BRANCH  10  23
ATOM     23  C   UNL     1      23.578   3.341  21.195  0.00  0.00    +0.072 A 
ATOM     24  C   UNL     1      24.722   3.344  20.399  0.00  0.00    +0.141 A 
ATOM     25  C   UNL     1      23.452   2.418  22.234  0.00  0.00    +0.027 A 
ATOM     27  C   UNL     1      25.742   2.423  20.639  0.00  0.00    +0.047 A 
ATOM     28  C   UNL     1      24.472   1.496  22.474  0.00  0.00    +0.002 A 
ATOM     29  C   UNL     1      25.617   1.498  21.677  0.00  0.00    +0.004 A 
BRANCH  24   8
ATOM      8  O   UNL     1      24.864   4.237  19.380  0.00  0.00    -0.493 OA
ATOM     30  C   UNL     1      26.130   4.881  19.255  0.00  0.00    +0.277 C 
ENDBRANCH  24   8
ENDBRANCH  10  23
ENDBRANCH  16  18
BRANCH  16  12
ATOM      2  O   UNL     1      16.675   8.374  20.647  0.00  0.00    -0.366 OA
ATOM     12  C   UNL     1      17.248   7.149  20.132  0.00  0.00    +0.158 C 
ATOM     13  C   UNL     1      16.073   6.260  19.738  0.00  0.00    +0.175 C 
ATOM     14  C   UNL     1      14.992   6.723  20.692  0.00  0.00    +0.175 C 
ATOM     15  C   UNL     1      15.247   8.221  20.738  0.00  0.00    +0.165 C 
BRANCH  13   3
ATOM      3  O   UNL     1      15.714   6.571  18.393  0.00  0.00    -0.387 OA
ATOM     31  H   UNL     1      15.851   7.525  18.268  0.00  0.00    +0.210 HD
ENDBRANCH  13   3
BRANCH  14   4
ATOM      4  O   UNL     1      13.687   6.422  20.247  0.00  0.00    -0.387 OA
ATOM     32  H   UNL     1      13.771   5.878  19.445  0.00  0.00    +0.210 HD
ENDBRANCH  14   4
BRANCH  15  17
ATOM     17  C   UNL     1      14.743   8.879  22.009  0.00  0.00    +0.139 C 
BRANCH  17  11
ATOM     11  N   UNL     1      13.425   8.425  22.339  0.00  0.00    -0.192 NA
ATOM     33  H   UNL     1      13.293   7.407  22.260  0.00  0.00    +0.148 HD
BRANCH  11   1
ATOM      1  S   UNL     1      12.045   9.388  21.950  0.00  0.00    +0.027 S 
ATOM      6  O   UNL     1      12.019   9.619  20.519  0.00  0.00    -0.158 OA
ATOM      7  O   UNL     1      11.943  10.495  22.882  0.00  0.00    -0.158 OA
ATOM     26  C   UNL     1      10.744   8.241  22.343  0.00  0.00    +0.214 C 
ENDBRANCH  11   1
ENDBRANCH  17  11
ENDBRANCH  15  17
ENDBRANCH  16  12
TORSDOF 9
ENDMDL
MODEL 5
REMARK VINA RESULT:      -6.3      2.705      3.761
REMARK  Name = 40780675
REMARK  11 active torsions:
REMARK  status: ('A' for Active; 'I' for Inactive)
REMARK    1  A    between atoms: S_1  and  N_11
REMARK    2  A    between atoms: S_1  and  C_26
REMARK    3  A    between atoms: O_3  and  C_13
REMARK    4  A    between atoms: O_4  and  C_14
REMARK    5  A    between atoms: O_8  and  C_24
REMARK    6  A    between atoms: O_8  and  C_30
REMARK    7  A    between atoms: N_10  and  C_23
REMARK    8  A    between atoms: N_11  and  C_17
REMARK    9  A    between atoms: C_12  and  C_16
REMARK   10  A    between atoms: C_15  and  C_17
REMARK   11  A    between atoms: C_16  and  C_18
REMARK                            x       y       z     vdW  Elec       q    Type
REMARK                         _______ _______ _______ _____ _____    ______ ____
ROOT
ATOM     16  C   UNL     1      14.577   8.989  19.913  0.00  0.00    +0.130 C 
ENDROOT
BRANCH  16  18
ATOM      5  O   UNL     1      14.885   6.939  18.764  0.00  0.00    -0.276 OA
ATOM      9  N   UNL     1      16.373   7.397  20.487  0.00  0.00    -0.298 N 
ATOM     10  N   UNL     1      19.115   7.304  21.149  0.00  0.00    -0.324 N 
ATOM     18  C   UNL     1      15.286   7.681  19.665  0.00  0.00    +0.218 C 
ATOM     19  C   UNL     1      16.879   8.250  21.564  0.00  0.00    +0.126 C 
ATOM     20  C   UNL     1      17.105   6.141  20.333  0.00  0.00    +0.126 C 
ATOM     21  C   UNL     1      18.364   8.550  21.363  0.00  0.00    +0.124 C 
ATOM     22  C   UNL     1      18.592   6.407  20.108  0.00  0.00    +0.124 C 
BRANCH  10  23
ATOM     23  C   UNL     1      20.491   7.275  21.402  0.00  0.00    +0.072 A 
ATOM     24  C   UNL     1      20.974   6.914  22.659  0.00  0.00    +0.141 A 
ATOM     25  C   UNL     1      21.382   7.608  20.381  0.00  0.00    +0.027 A 
ATOM     27  C   UNL     1      22.349   6.887  22.897  0.00  0.00    +0.047 A 
ATOM     28  C   UNL     1      22.756   7.581  20.618  0.00  0.00    +0.002 A 
ATOM     29  C   UNL     1      23.240   7.221  21.876  0.00  0.00    +0.004 A 
BRANCH  24   8
ATOM      8  O   UNL     1      20.121   6.585  23.669  0.00  0.00    -0.493 OA
ATOM     30  C   UNL     1      20.400   7.132  24.956  0.00  0.00    +0.277 C 
ENDBRANCH  24   8
ENDBRANCH  10  23
ENDBRANCH  16  18
BRANCH  16  12
ATOM      2  O   UNL     1      12.443  10.084  19.969  0.00  0.00    -0.366 OA
ATOM     12  C   UNL     1      13.072   8.793  19.796  0.00  0.00    +0.158 C 
ATOM     13  C   UNL     1      12.502   7.888  20.883  0.00  0.00    +0.175 C 
ATOM     14  C   UNL     1      12.174   8.880  21.980  0.00  0.00    +0.175 C 
ATOM     15  C   UNL     1      11.660  10.063  21.176  0.00  0.00    +0.165 C 
BRANCH  13   3
ATOM      3  O   UNL     1      11.307   7.292  20.380  0.00  0.00    -0.387 OA
ATOM     31  H   UNL     1      11.329   6.350  20.621  0.00  0.00    +0.210 HD
ENDBRANCH  13   3
BRANCH  14   4
ATOM      4  O   UNL     1      11.212   8.403  22.895  0.00  0.00    -0.387 OA
ATOM     32  H   UNL     1      10.342   8.713  22.591  0.00  0.00    +0.210 HD
ENDBRANCH  14   4
BRANCH  15  17
ATOM     17  C   UNL     1      11.801  11.390  21.900  0.00  0.00    +0.139 C 
BRANCH  17  11
ATOM     11  N   UNL     1      10.717  11.601  22.812  0.00  0.00    -0.192 NA
ATOM     33  H   UNL     1       9.875  12.010  22.384  0.00  0.00    +0.148 HD
BRANCH  11   1
ATOM      1  S   UNL     1      11.027  12.069  24.446  0.00  0.00    +0.027 S 
ATOM      6  O   UNL     1      11.237  10.879  25.246  0.00  0.00    -0.158 OA
ATOM      7  O   UNL     1      10.068  13.078  24.855  0.00  0.00    -0.158 OA
ATOM     26  C   UNL     1      12.597  12.879  24.244  0.00  0.00    +0.214 C 
ENDBRANCH  11   1
ENDBRANCH  17  11
ENDBRANCH  15  17
ENDBRANCH  16  12
TORSDOF 9
ENDMDL
MODEL 6
REMARK VINA RESULT:      -6.2      3.496      9.131
REMARK  Name = 40780675
REMARK  11 active torsions:
REMARK  status: ('A' for Active; 'I' for Inactive)
REMARK    1  A    between atoms: S_1  and  N_11
REMARK    2  A    between atoms: S_1  and  C_26
REMARK    3  A    between atoms: O_3  and  C_13
REMARK    4  A    between atoms: O_4  and  C_14
REMARK    5  A    between atoms: O_8  and  C_24
REMARK    6  A    between atoms: O_8  and  C_30
REMARK    7  A    between atoms: N_10  and  C_23
REMARK    8  A    between atoms: N_11  and  C_17
REMARK    9  A    between atoms: C_12  and  C_16
REMARK   10  A    between atoms: C_15  and  C_17
REMARK   11  A    between atoms: C_16  and  C_18
REMARK                            x       y       z     vdW  Elec       q    Type
REMARK                         _______ _______ _______ _____ _____    ______ ____
ROOT
ATOM     16  C   UNL     1      19.204   6.769  21.181  0.00  0.00    +0.130 C 
ENDROOT
BRANCH  16  18
ATOM      5  O   UNL     1      18.302   5.425  19.450  0.00  0.00    -0.276 OA
ATOM      9  N   UNL     1      16.976   7.176  20.203  0.00  0.00    -0.298 N 
ATOM     10  N   UNL     1      14.325   7.812  20.934  0.00  0.00    -0.324 N 
ATOM     18  C   UNL     1      18.126   6.391  20.198  0.00  0.00    +0.218 C 
ATOM     19  C   UNL     1      16.729   8.328  21.072  0.00  0.00    +0.126 C 
ATOM     20  C   UNL     1      15.889   6.897  19.267  0.00  0.00    +0.126 C 
ATOM     21  C   UNL     1      15.425   8.150  21.849  0.00  0.00    +0.124 C 
ATOM     22  C   UNL     1      14.573   6.691  20.014  0.00  0.00    +0.124 C 
BRANCH  10  23
ATOM     23  C   UNL     1      13.003   8.054  21.324  0.00  0.00    +0.072 A 
ATOM     24  C   UNL     1      12.547   9.357  21.520  0.00  0.00    +0.141 A 
ATOM     25  C   UNL     1      12.137   6.976  21.514  0.00  0.00    +0.027 A 
ATOM     27  C   UNL     1      11.226   9.584  21.906  0.00  0.00    +0.047 A 
ATOM     28  C   UNL     1      10.816   7.202  21.900  0.00  0.00    +0.002 A 
ATOM     29  C   UNL     1      10.360   8.506  22.097  0.00  0.00    +0.004 A 
BRANCH  24   8
ATOM      8  O   UNL     1      13.377  10.423  21.340  0.00  0.00    -0.493 OA
ATOM     30  C   UNL     1      13.156  11.227  20.183  0.00  0.00    +0.277 C 
ENDBRANCH  24   8
ENDBRANCH  10  23
ENDBRANCH  16  18
BRANCH  16  12
ATOM      2  O   UNL     1      20.639   5.439  22.569  0.00  0.00    -0.366 OA
ATOM     12  C   UNL     1      20.293   5.705  21.190  0.00  0.00    +0.158 C 
ATOM     13  C   UNL     1      21.578   6.161  20.506  0.00  0.00    +0.175 C 
ATOM     14  C   UNL     1      22.340   6.791  21.653  0.00  0.00    +0.175 C 
ATOM     15  C   UNL     1      21.998   5.852  22.799  0.00  0.00    +0.165 C 
BRANCH  13   3
ATOM      3  O   UNL     1      22.262   5.002  20.033  0.00  0.00    -0.387 OA
ATOM     31  H   UNL     1      21.727   4.227  20.277  0.00  0.00    +0.210 HD
ENDBRANCH  13   3
BRANCH  14   4
ATOM      4  O   UNL     1      23.732   6.865  21.426  0.00  0.00    -0.387 OA
ATOM     32  H   UNL     1      23.862   7.100  20.492  0.00  0.00    +0.210 HD
ENDBRANCH  14   4
BRANCH  15  17
ATOM     17  C   UNL     1      22.111   6.503  24.165  0.00  0.00    +0.139 C 
BRANCH  17  11
ATOM     11  N   UNL     1      20.818   6.822  24.695  0.00  0.00    -0.192 NA
ATOM     33  H   UNL     1      20.276   7.483  24.124  0.00  0.00    +0.148 HD
BRANCH  11   1
ATOM      1  S   UNL     1      20.578   6.938  26.402  0.00  0.00    +0.027 S 
ATOM      6  O   UNL     1      20.040   5.683  26.889  0.00  0.00    -0.158 OA
ATOM      7  O   UNL     1      19.930   8.196  26.719  0.00  0.00    -0.158 OA
ATOM     26  C   UNL     1      22.266   7.057  26.946  0.00  0.00    +0.214 C 
ENDBRANCH  11   1
ENDBRANCH  17  11
ENDBRANCH  15  17
ENDBRANCH  16  12
TORSDOF 9
ENDMDL
MODEL 7
REMARK VINA RESULT:      -6.2     26.585     29.607
REMARK  Name = 40780675
REMARK  11 active torsions:
REMARK  status: ('A' for Active; 'I' for Inactive)
REMARK    1  A    between atoms: S_1  and  N_11
REMARK    2  A    between atoms: S_1  and  C_26
REMARK    3  A    between atoms: O_3  and  C_13
REMARK    4  A    between atoms: O_4  and  C_14
REMARK    5  A    between atoms: O_8  and  C_24
REMARK    6  A    between atoms: O_8  and  C_30
REMARK    7  A    between atoms: N_10  and  C_23
REMARK    8  A    between atoms: N_11  and  C_17
REMARK    9  A    between atoms: C_12  and  C_16
REMARK   10  A    between atoms: C_15  and  C_17
REMARK   11  A    between atoms: C_16  and  C_18
REMARK                            x       y       z     vdW  Elec       q    Type
REMARK                         _______ _______ _______ _____ _____    ______ ____
ROOT
ATOM     16  C   UNL     1      -5.281 -12.642  17.791  0.00  0.00    +0.130 C 
ENDROOT
BRANCH  16  18
ATOM      5  O   UNL     1      -4.855 -14.530  16.423  0.00  0.00    -0.276 OA
ATOM      9  N   UNL     1      -4.237 -12.464  15.563  0.00  0.00    -0.298 N 
ATOM     10  N   UNL     1      -4.315 -10.916  13.204  0.00  0.00    -0.324 N 
ATOM     18  C   UNL     1      -4.773 -13.304  16.535  0.00  0.00    +0.218 C 
ATOM     19  C   UNL     1      -4.122 -11.007  15.658  0.00  0.00    +0.126 C 
ATOM     20  C   UNL     1      -3.699 -13.020  14.324  0.00  0.00    +0.126 C 
ATOM     21  C   UNL     1      -4.799 -10.333  14.464  0.00  0.00    +0.124 C 
ATOM     22  C   UNL     1      -4.371 -12.383  13.109  0.00  0.00    +0.124 C 
BRANCH  10  23
ATOM     23  C   UNL     1      -4.423 -10.182  12.017  0.00  0.00    +0.072 A 
ATOM     24  C   UNL     1      -3.289  -9.877  11.266  0.00  0.00    +0.141 A 
ATOM     25  C   UNL     1      -5.681  -9.758  11.587  0.00  0.00    +0.027 A 
ATOM     27  C   UNL     1      -3.411  -9.147  10.083  0.00  0.00    +0.047 A 
ATOM     28  C   UNL     1      -5.803  -9.028  10.405  0.00  0.00    +0.002 A 
ATOM     29  C   UNL     1      -4.669  -8.722   9.653  0.00  0.00    +0.004 A 
BRANCH  24   8
ATOM      8  O   UNL     1      -2.052 -10.282  11.669  0.00  0.00    -0.493 OA
ATOM     30  C   UNL     1      -0.965  -9.394  11.416  0.00  0.00    +0.277 C 
ENDBRANCH  24   8
ENDBRANCH  10  23
ENDBRANCH  16  18
BRANCH  16  12
ATOM      2  O   UNL     1      -7.375 -11.812  16.963  0.00  0.00    -0.366 OA
ATOM     12  C   UNL     1      -6.796 -12.778  17.872  0.00  0.00    +0.158 C 
ATOM     13  C   UNL     1      -7.351 -12.452  19.254  0.00  0.00    +0.175 C 
ATOM     14  C   UNL     1      -7.602 -10.962  19.151  0.00  0.00    +0.175 C 
ATOM     15  C   UNL     1      -8.110 -10.837  17.724  0.00  0.00    +0.165 C 
BRANCH  13   3
ATOM      3  O   UNL     1      -8.584 -13.153  19.413  0.00  0.00    -0.387 OA
ATOM     31  H   UNL     1      -8.956 -12.898  20.274  0.00  0.00    +0.210 HD
ENDBRANCH  13   3
BRANCH  14   4
ATOM      4  O   UNL     1      -8.542 -10.487  20.091  0.00  0.00    -0.387 OA
ATOM     32  H   UNL     1      -8.089 -10.423  20.950  0.00  0.00    +0.210 HD
ENDBRANCH  14   4
BRANCH  15  17
ATOM     17  C   UNL     1      -7.896  -9.458  17.128  0.00  0.00    +0.139 C 
BRANCH  17  11
ATOM     11  N   UNL     1      -8.816  -8.507  17.679  0.00  0.00    -0.192 NA
ATOM     33  H   UNL     1      -8.753  -8.397  18.700  0.00  0.00    +0.148 HD
BRANCH  11   1
ATOM      1  S   UNL     1     -10.397  -8.328  17.005  0.00  0.00    +0.027 S 
ATOM      6  O   UNL     1     -10.772  -6.929  17.047  0.00  0.00    -0.158 OA
ATOM      7  O   UNL     1     -11.275  -9.349  17.544  0.00  0.00    -0.158 OA
ATOM     26  C   UNL     1     -10.063  -8.756  15.312  0.00  0.00    +0.214 C 
ENDBRANCH  11   1
ENDBRANCH  17  11
ENDBRANCH  15  17
ENDBRANCH  16  12
TORSDOF 9
ENDMDL
MODEL 8
REMARK VINA RESULT:      -6.1      3.678      9.567
REMARK  Name = 40780675
REMARK  11 active torsions:
REMARK  status: ('A' for Active; 'I' for Inactive)
REMARK    1  A    between atoms: S_1  and  N_11
REMARK    2  A    between atoms: S_1  and  C_26
REMARK    3  A    between atoms: O_3  and  C_13
REMARK    4  A    between atoms: O_4  and  C_14
REMARK    5  A    between atoms: O_8  and  C_24
REMARK    6  A    between atoms: O_8  and  C_30
REMARK    7  A    between atoms: N_10  and  C_23
REMARK    8  A    between atoms: N_11  and  C_17
REMARK    9  A    between atoms: C_12  and  C_16
REMARK   10  A    between atoms: C_15  and  C_17
REMARK   11  A    between atoms: C_16  and  C_18
REMARK                            x       y       z     vdW  Elec       q    Type
REMARK                         _______ _______ _______ _____ _____    ______ ____
ROOT
ATOM     16  C   UNL     1      18.000   7.167  21.179  0.00  0.00    +0.130 C 
ENDROOT
BRANCH  16  18
ATOM      5  O   UNL     1      17.612   9.432  21.763  0.00  0.00    -0.276 OA
ATOM      9  N   UNL     1      15.851   8.304  20.755  0.00  0.00    -0.298 N 
ATOM     10  N   UNL     1      13.858   8.592  18.777  0.00  0.00    -0.324 N 
ATOM     18  C   UNL     1      17.143   8.406  21.263  0.00  0.00    +0.218 C 
ATOM     19  C   UNL     1      15.259   7.107  20.154  0.00  0.00    +0.126 C 
ATOM     20  C   UNL     1      14.943   9.447  20.816  0.00  0.00    +0.126 C 
ATOM     21  C   UNL     1      14.731   7.410  18.752  0.00  0.00    +0.124 C 
ATOM     22  C   UNL     1      14.414   9.791  19.425  0.00  0.00    +0.124 C 
BRANCH  10  23
ATOM     23  C   UNL     1      12.920   8.781  17.756  0.00  0.00    +0.072 A 
ATOM     24  C   UNL     1      13.303   9.332  16.534  0.00  0.00    +0.141 A 
ATOM     25  C   UNL     1      11.592   8.408  17.969  0.00  0.00    +0.027 A 
ATOM     27  C   UNL     1      12.358   9.512  15.523  0.00  0.00    +0.047 A 
ATOM     28  C   UNL     1      10.647   8.588  16.958  0.00  0.00    +0.002 A 
ATOM     29  C   UNL     1      11.029   9.140  15.736  0.00  0.00    +0.004 A 
BRANCH  24   8
ATOM      8  O   UNL     1      14.594   9.703  16.307  0.00  0.00    -0.493 OA
ATOM     30  C   UNL     1      14.847  10.486  15.143  0.00  0.00    +0.277 C 
ENDBRANCH  24   8
ENDBRANCH  10  23
ENDBRANCH  16  18
BRANCH  16  12
ATOM      2  O   UNL     1      20.228   6.793  20.371  0.00  0.00    -0.366 OA
ATOM     12  C   UNL     1      19.467   7.540  21.348  0.00  0.00    +0.158 C 
ATOM     13  C   UNL     1      20.026   7.155  22.713  0.00  0.00    +0.175 C 
ATOM     14  C   UNL     1      20.529   5.748  22.464  0.00  0.00    +0.175 C 
ATOM     15  C   UNL     1      21.094   5.872  21.058  0.00  0.00    +0.165 C 
BRANCH  13   3
ATOM      3  O   UNL     1      21.118   8.027  23.006  0.00  0.00    -0.387 OA
ATOM     31  H   UNL     1      20.870   8.552  23.786  0.00  0.00    +0.210 HD
ENDBRANCH  13   3
BRANCH  14   4
ATOM      4  O   UNL     1      21.506   5.330  23.392  0.00  0.00    -0.387 OA
ATOM     32  H   UNL     1      22.355   5.713  23.114  0.00  0.00    +0.210 HD
ENDBRANCH  14   4
BRANCH  15  17
ATOM     17  C   UNL     1      21.134   4.553  20.308  0.00  0.00    +0.139 C 
BRANCH  17  11
ATOM     11  N   UNL     1      21.951   3.594  20.990  0.00  0.00    -0.192 NA
ATOM     33  H   UNL     1      21.540   3.226  21.859  0.00  0.00    +0.148 HD
BRANCH  11   1
ATOM      1  S   UNL     1      23.672   3.752  20.988  0.00  0.00    +0.027 S 
ATOM      6  O   UNL     1      24.103   4.232  22.286  0.00  0.00    -0.158 OA
ATOM      7  O   UNL     1      24.099   4.416  19.771  0.00  0.00    -0.158 OA
ATOM     26  C   UNL     1      24.141   2.042  20.853  0.00  0.00    +0.214 C 
ENDBRANCH  11   1
ENDBRANCH  17  11
ENDBRANCH  15  17
ENDBRANCH  16  12
TORSDOF 9
ENDMDL
MODEL 9
REMARK VINA RESULT:      -6.1     26.975     29.378
REMARK  Name = 40780675
REMARK  11 active torsions:
REMARK  status: ('A' for Active; 'I' for Inactive)
REMARK    1  A    between atoms: S_1  and  N_11
REMARK    2  A    between atoms: S_1  and  C_26
REMARK    3  A    between atoms: O_3  and  C_13
REMARK    4  A    between atoms: O_4  and  C_14
REMARK    5  A    between atoms: O_8  and  C_24
REMARK    6  A    between atoms: O_8  and  C_30
REMARK    7  A    between atoms: N_10  and  C_23
REMARK    8  A    between atoms: N_11  and  C_17
REMARK    9  A    between atoms: C_12  and  C_16
REMARK   10  A    between atoms: C_15  and  C_17
REMARK   11  A    between atoms: C_16  and  C_18
REMARK                            x       y       z     vdW  Elec       q    Type
REMARK                         _______ _______ _______ _____ _____    ______ ____
ROOT
ATOM     16  C   UNL     1      -4.217 -10.732  16.581  0.00  0.00    +0.130 C 
ENDROOT
BRANCH  16  18
ATOM      5  O   UNL     1      -1.904 -10.955  16.113  0.00  0.00    -0.276 OA
ATOM      9  N   UNL     1      -3.300 -10.580  14.296  0.00  0.00    -0.298 N 
ATOM     10  N   UNL     1      -3.800 -11.435  11.653  0.00  0.00    -0.324 N 
ATOM     18  C   UNL     1      -3.032 -10.766  15.649  0.00  0.00    +0.218 C 
ATOM     19  C   UNL     1      -4.621 -10.353  13.707  0.00  0.00    +0.126 C 
ATOM     20  C   UNL     1      -2.210 -10.573  13.323  0.00  0.00    +0.126 C 
ATOM     21  C   UNL     1      -4.910 -11.383  12.615  0.00  0.00    +0.124 C 
ATOM     22  C   UNL     1      -2.457 -11.609  12.228  0.00  0.00    +0.124 C 
BRANCH  10  23
ATOM     23  C   UNL     1      -4.025 -11.933  10.364  0.00  0.00    +0.072 A 
ATOM     24  C   UNL     1      -4.225 -11.063   9.293  0.00  0.00    +0.141 A 
ATOM     25  C   UNL     1      -4.045 -13.312  10.157  0.00  0.00    +0.027 A 
ATOM     27  C   UNL     1      -4.446 -11.572   8.013  0.00  0.00    +0.047 A 
ATOM     28  C   UNL     1      -4.267 -13.821   8.877  0.00  0.00    +0.002 A 
ATOM     29  C   UNL     1      -4.468 -12.952   7.805  0.00  0.00    +0.004 A 
BRANCH  24   8
ATOM      8  O   UNL     1      -4.209  -9.713   9.475  0.00  0.00    -0.493 OA
ATOM     30  C   UNL     1      -5.427  -9.012   9.230  0.00  0.00    +0.277 C 
ENDBRANCH  24   8
ENDBRANCH  10  23
ENDBRANCH  16  18
BRANCH  16  12
ATOM      2  O   UNL     1      -5.329 -12.672  17.451  0.00  0.00    -0.366 OA
ATOM     12  C   UNL     1      -4.125 -11.879  17.577  0.00  0.00    +0.158 C 
ATOM     13  C   UNL     1      -4.072 -11.408  19.027  0.00  0.00    +0.175 C 
ATOM     14  C   UNL     1      -5.541 -11.354  19.395  0.00  0.00    +0.175 C 
ATOM     15  C   UNL     1      -6.081 -12.579  18.674  0.00  0.00    +0.165 C 
BRANCH  13   3
ATOM      3  O   UNL     1      -3.405 -12.410  19.794  0.00  0.00    -0.387 OA
ATOM     31  H   UNL     1      -2.515 -12.075  19.998  0.00  0.00    +0.210 HD
ENDBRANCH  13   3
BRANCH  14   4
ATOM      4  O   UNL     1      -5.770 -11.415  20.787  0.00  0.00    -0.387 OA
ATOM     32  H   UNL     1      -5.386 -12.248  21.109  0.00  0.00    +0.210 HD
ENDBRANCH  14   4
BRANCH  15  17
ATOM     17  C   UNL     1      -7.562 -12.485  18.358  0.00  0.00    +0.139 C 
BRANCH  17  11
ATOM     11  N   UNL     1      -8.048 -11.150  18.540  0.00  0.00    -0.192 NA
ATOM     33  H   UNL     1      -8.685 -11.035  19.340  0.00  0.00    +0.148 HD
BRANCH  11   1
ATOM      1  S   UNL     1      -8.377 -10.145  17.174  0.00  0.00    +0.027 S 
ATOM      6  O   UNL     1      -8.730 -10.983  16.045  0.00  0.00    -0.158 OA
ATOM      7  O   UNL     1      -7.344  -9.133  17.052  0.00  0.00    -0.158 OA
ATOM     26  C   UNL     1      -9.855  -9.331  17.735  0.00  0.00    +0.214 C 
ENDBRANCH  11   1
ENDBRANCH  17  11
ENDBRANCH  15  17
ENDBRANCH  16  12
TORSDOF 9
ENDMDL
MODEL 10
REMARK VINA RESULT:      -6.0     26.456     29.895
REMARK  Name = 40780675
REMARK  11 active torsions:
REMARK  status: ('A' for Active; 'I' for Inactive)
REMARK    1  A    between atoms: S_1  and  N_11
REMARK    2  A    between atoms: S_1  and  C_26
REMARK    3  A    between atoms: O_3  and  C_13
REMARK    4  A    between atoms: O_4  and  C_14
REMARK    5  A    between atoms: O_8  and  C_24
REMARK    6  A    between atoms: O_8  and  C_30
REMARK    7  A    between atoms: N_10  and  C_23
REMARK    8  A    between atoms: N_11  and  C_17
REMARK    9  A    between atoms: C_12  and  C_16
REMARK   10  A    between atoms: C_15  and  C_17
REMARK   11  A    between atoms: C_16  and  C_18
REMARK                            x       y       z     vdW  Elec       q    Type
REMARK                         _______ _______ _______ _____ _____    ______ ____
ROOT
ATOM     16  C   UNL     1      -8.121 -10.749  18.496  0.00  0.00    +0.130 C 
ENDROOT
BRANCH  16  18
ATOM      5  O   UNL     1      -6.897 -12.758  18.783  0.00  0.00    -0.276 OA
ATOM      9  N   UNL     1      -5.916 -11.125  17.456  0.00  0.00    -0.298 N 
ATOM     10  N   UNL     1      -4.530 -10.764  15.024  0.00  0.00    -0.324 N 
ATOM     18  C   UNL     1      -6.926 -11.639  18.264  0.00  0.00    +0.218 C 
ATOM     19  C   UNL     1      -5.913  -9.805  16.822  0.00  0.00    +0.126 C 
ATOM     20  C   UNL     1      -4.710 -11.909  17.196  0.00  0.00    +0.126 C 
ATOM     21  C   UNL     1      -5.707  -9.931  15.313  0.00  0.00    +0.124 C 
ATOM     22  C   UNL     1      -4.486 -12.073  15.694  0.00  0.00    +0.124 C 
BRANCH  10  23
ATOM     23  C   UNL     1      -3.885 -10.644  13.787  0.00  0.00    +0.072 A 
ATOM     24  C   UNL     1      -2.503 -10.793  13.690  0.00  0.00    +0.141 A 
ATOM     25  C   UNL     1      -4.641 -10.376  12.645  0.00  0.00    +0.027 A 
ATOM     27  C   UNL     1      -1.873 -10.673  12.451  0.00  0.00    +0.047 A 
ATOM     28  C   UNL     1      -4.011 -10.256  11.406  0.00  0.00    +0.002 A 
ATOM     29  C   UNL     1      -2.628 -10.404  11.308  0.00  0.00    +0.004 A 
BRANCH  24   8
ATOM      8  O   UNL     1      -1.748 -11.055  14.794  0.00  0.00    -0.493 OA
ATOM     30  C   UNL     1      -1.068  -9.952  15.391  0.00  0.00    +0.277 C 
ENDBRANCH  24   8
ENDBRANCH  10  23
ENDBRANCH  16  18
BRANCH  16  12
ATOM      2  O   UNL     1     -10.269 -11.546  17.785  0.00  0.00    -0.366 OA
ATOM     12  C   UNL     1      -9.328 -11.592  18.883  0.00  0.00    +0.158 C 
ATOM     13  C   UNL     1     -10.067 -11.053  20.103  0.00  0.00    +0.175 C 
ATOM     14  C   UNL     1     -11.069 -10.108  19.475  0.00  0.00    +0.175 C 
ATOM     15  C   UNL     1     -11.464 -10.872  18.221  0.00  0.00    +0.165 C 
BRANCH  13   3
ATOM      3  O   UNL     1     -10.739 -12.144  20.731  0.00  0.00    -0.387 OA
ATOM     31  H   UNL     1     -10.743 -11.972  21.688  0.00  0.00    +0.210 HD
ENDBRANCH  13   3
BRANCH  14   4
ATOM      4  O   UNL     1     -12.180  -9.840  20.303  0.00  0.00    -0.387 OA
ATOM     32  H   UNL     1     -12.099  -8.920  20.611  0.00  0.00    +0.210 HD
ENDBRANCH  14   4
BRANCH  15  17
ATOM     17  C   UNL     1     -11.981  -9.979  17.110  0.00  0.00    +0.139 C 
BRANCH  17  11
ATOM     11  N   UNL     1     -11.847  -8.594  17.453  0.00  0.00    -0.192 NA
ATOM     33  H   UNL     1     -12.725  -8.137  17.731  0.00  0.00    +0.148 HD
BRANCH  11   1
ATOM      1  S   UNL     1     -10.718  -7.591  16.612  0.00  0.00    +0.027 S 
ATOM      6  O   UNL     1      -9.380  -7.890  17.082  0.00  0.00    -0.158 OA
ATOM      7  O   UNL     1     -11.207  -6.226  16.582  0.00  0.00    -0.158 OA
ATOM     26  C   UNL     1     -10.881  -8.250  14.969  0.00  0.00    +0.214 C 
ENDBRANCH  11   1
ENDBRANCH  17  11
ENDBRANCH  15  17
ENDBRANCH  16  12
TORSDOF 9
ENDMDL
