MODEL 1
REMARK VINA RESULT:      -8.0      0.000      0.000
REMARK  Name = 45360886
REMARK  9 active torsions:
REMARK  status: ('A' for Active; 'I' for Inactive)
REMARK    1  A    between atoms: N_3  and  C_17
REMARK    2  A    between atoms: N_4  and  C_16
REMARK    3  A    between atoms: N_7  and  C_29
REMARK    4  A    between atoms: N_7  and  C_34
REMARK    5  A    between atoms: N_7  and  C_35
REMARK    6  A    between atoms: C_12  and  C_15
REMARK    7  A    between atoms: C_15  and  C_18
REMARK    8  A    between atoms: C_16  and  C_19
REMARK    9  A    between atoms: C_18  and  C_20
REMARK                            x       y       z     vdW  Elec       q    Type
REMARK                         _______ _______ _______ _____ _____    ______ ____
ROOT
ATOM      1  O   UNL     1     -13.066   4.793  22.541  0.00  0.00    -0.274 OA
ATOM      3  N   UNL     1     -16.845   3.956  22.448  0.00  0.00    -0.296 NA
ATOM      4  N   UNL     1     -14.579   6.475  21.066  0.00  0.00    -0.286 NA
ATOM      5  N   UNL     1     -14.622   4.523  24.197  0.00  0.00    -0.312 N 
ATOM      8  C   UNL     1     -16.528   5.292  21.897  0.00  0.00    +0.084 C 
ATOM      9  C   UNL     1     -15.186   5.965  22.309  0.00  0.00    +0.161 C 
ATOM     10  C   UNL     1     -16.449   5.331  20.360  0.00  0.00    +0.036 C 
ATOM     11  C   UNL     1     -15.649   6.586  20.081  0.00  0.00    +0.087 C 
ATOM     12  C   UNL     1     -17.010   3.923  23.929  0.00  0.00    +0.074 C 
ATOM     13  C   UNL     1     -14.183   5.040  22.993  0.00  0.00    +0.232 C 
ATOM     14  C   UNL     1     -15.958   4.730  24.716  0.00  0.00    +0.123 C 
ATOM     17  C   UNL     1     -18.032   3.386  21.790  0.00  0.00    +0.105 C 
ATOM     36  H   UNL     1     -13.971   3.963  24.740  0.00  0.00    +0.149 HD
ENDROOT
BRANCH  12  15
ATOM     15  C   UNL     1     -16.962   2.469  24.444  0.00  0.00    +0.029 C 
BRANCH  15  18
ATOM     18  C   UNL     1     -17.762   2.293  25.720  0.00  0.00    +0.098 C 
BRANCH  18  20
ATOM      2  O   UNL     1     -16.854   0.297  26.621  0.00  0.00    -0.275 OA
ATOM      6  N   UNL     1     -16.461   2.280  27.789  0.00  0.00    -0.271 N 
ATOM     20  C   UNL     1     -16.981   1.515  26.752  0.00  0.00    +0.220 C 
ATOM     23  C   UNL     1     -16.614   3.742  27.944  0.00  0.00    +0.118 C 
ATOM     24  C   UNL     1     -15.699   1.795  28.872  0.00  0.00    +0.039 A 
ATOM     25  C   UNL     1     -15.875   4.156  29.221  0.00  0.00    +0.056 C 
ATOM     26  C   UNL     1     -15.347   2.850  29.717  0.00  0.00    -0.024 A 
ATOM     30  C   UNL     1     -15.301   0.498  29.158  0.00  0.00    +0.024 A 
ATOM     31  C   UNL     1     -14.591   2.636  30.861  0.00  0.00    +0.005 A 
ATOM     32  C   UNL     1     -14.540   0.274  30.310  0.00  0.00    +0.002 A 
ATOM     33  C   UNL     1     -14.187   1.334  31.155  0.00  0.00    +0.000 A 
ENDBRANCH  18  20
ENDBRANCH  15  18
ENDBRANCH  12  15
BRANCH   4  16
ATOM     16  C   UNL     1     -13.864   7.732  21.244  0.00  0.00    +0.120 C 
BRANCH  16  19
ATOM     19  C   UNL     1     -13.040   8.086  20.035  0.00  0.00    -0.033 A 
ATOM     21  C   UNL     1     -13.320   9.250  19.318  0.00  0.00    +0.007 A 
ATOM     22  C   UNL     1     -11.998   7.252  19.631  0.00  0.00    +0.007 A 
ATOM     27  C   UNL     1     -12.558   9.578  18.198  0.00  0.00    +0.023 A 
ATOM     28  C   UNL     1     -11.235   7.580  18.511  0.00  0.00    +0.023 A 
ATOM     29  C   UNL     1     -11.515   8.744  17.794  0.00  0.00    +0.029 A 
BRANCH  29   7
ATOM      7  N   UNL     1     -10.744   9.077  16.661  0.00  0.00    -0.336 N 
ATOM     34  C   UNL     1     -10.544   8.110  15.599  0.00  0.00    +0.129 C 
ATOM     35  C   UNL     1     -10.146  10.392  16.541  0.00  0.00    +0.129 C 
ENDBRANCH  29   7
ENDBRANCH  16  19
ENDBRANCH   4  16
TORSDOF 6
ENDMDL
MODEL 2
REMARK VINA RESULT:      -7.5      1.566      2.504
REMARK  Name = 45360886
REMARK  9 active torsions:
REMARK  status: ('A' for Active; 'I' for Inactive)
REMARK    1  A    between atoms: N_3  and  C_17
REMARK    2  A    between atoms: N_4  and  C_16
REMARK    3  A    between atoms: N_7  and  C_29
REMARK    4  A    between atoms: N_7  and  C_34
REMARK    5  A    between atoms: N_7  and  C_35
REMARK    6  A    between atoms: C_12  and  C_15
REMARK    7  A    between atoms: C_15  and  C_18
REMARK    8  A    between atoms: C_16  and  C_19
REMARK    9  A    between atoms: C_18  and  C_20
REMARK                            x       y       z     vdW  Elec       q    Type
REMARK                         _______ _______ _______ _____ _____    ______ ____
ROOT
ATOM      1  O   UNL     1     -14.257   4.376  23.767  0.00  0.00    -0.274 OA
ATOM      3  N   UNL     1     -17.470   2.276  24.267  0.00  0.00    -0.296 NA
ATOM      4  N   UNL     1     -16.397   5.194  22.337  0.00  0.00    -0.286 NA
ATOM      5  N   UNL     1     -15.460   3.829  25.634  0.00  0.00    -0.312 N 
ATOM      8  C   UNL     1     -17.707   3.543  23.541  0.00  0.00    +0.084 C 
ATOM      9  C   UNL     1     -16.669   4.693  23.697  0.00  0.00    +0.161 C 
ATOM     10  C   UNL     1     -17.780   3.383  22.011  0.00  0.00    +0.036 C 
ATOM     11  C   UNL     1     -17.515   4.782  21.497  0.00  0.00    +0.087 C 
ATOM     12  C   UNL     1     -17.483   2.404  25.752  0.00  0.00    +0.074 C 
ATOM     13  C   UNL     1     -15.343   4.284  24.335  0.00  0.00    +0.232 C 
ATOM     14  C   UNL     1     -16.730   3.632  26.303  0.00  0.00    +0.123 C 
ATOM     17  C   UNL     1     -18.423   1.240  23.837  0.00  0.00    +0.105 C 
ATOM     36  H   UNL     1     -14.606   3.615  26.142  0.00  0.00    +0.149 HD
ENDROOT
BRANCH  12  15
ATOM     15  C   UNL     1     -16.868   1.150  26.407  0.00  0.00    +0.029 C 
BRANCH  15  18
ATOM     18  C   UNL     1     -17.361   0.952  27.827  0.00  0.00    +0.098 C 
BRANCH  18  20
ATOM      2  O   UNL     1     -15.323   0.203  28.777  0.00  0.00    -0.275 OA
ATOM      6  N   UNL     1     -16.312   2.100  29.712  0.00  0.00    -0.271 N 
ATOM     20  C   UNL     1     -16.225   1.041  28.818  0.00  0.00    +0.220 C 
ATOM     23  C   UNL     1     -17.396   3.104  29.758  0.00  0.00    +0.118 C 
ATOM     24  C   UNL     1     -15.384   2.401  30.730  0.00  0.00    +0.039 A 
ATOM     25  C   UNL     1     -17.078   4.084  30.893  0.00  0.00    +0.056 C 
ATOM     26  C   UNL     1     -15.796   3.537  31.430  0.00  0.00    -0.024 A 
ATOM     30  C   UNL     1     -14.212   1.745  31.075  0.00  0.00    +0.024 A 
ATOM     31  C   UNL     1     -15.051   4.043  32.486  0.00  0.00    +0.005 A 
ATOM     32  C   UNL     1     -13.456   2.248  32.139  0.00  0.00    +0.002 A 
ATOM     33  C   UNL     1     -13.872   3.388  32.839  0.00  0.00    +0.000 A 
ENDBRANCH  18  20
ENDBRANCH  15  18
ENDBRANCH  12  15
BRANCH   4  16
ATOM     16  C   UNL     1     -16.172   6.633  22.286  0.00  0.00    +0.120 C 
BRANCH  16  19
ATOM     19  C   UNL     1     -15.179   7.007  21.218  0.00  0.00    -0.033 A 
ATOM     21  C   UNL     1     -15.626   7.388  19.952  0.00  0.00    +0.007 A 
ATOM     22  C   UNL     1     -13.812   6.976  21.493  0.00  0.00    +0.007 A 
ATOM     27  C   UNL     1     -14.707   7.735  18.963  0.00  0.00    +0.023 A 
ATOM     28  C   UNL     1     -12.892   7.324  20.504  0.00  0.00    +0.023 A 
ATOM     29  C   UNL     1     -13.340   7.703  19.239  0.00  0.00    +0.029 A 
BRANCH  29   7
ATOM      7  N   UNL     1     -12.410   8.055  18.238  0.00  0.00    -0.336 N 
ATOM     34  C   UNL     1     -11.039   7.592  18.315  0.00  0.00    +0.129 C 
ATOM     35  C   UNL     1     -12.816   8.879  17.116  0.00  0.00    +0.129 C 
ENDBRANCH  29   7
ENDBRANCH  16  19
ENDBRANCH   4  16
TORSDOF 6
ENDMDL
MODEL 3
REMARK VINA RESULT:      -7.4     17.489     19.542
REMARK  Name = 45360886
REMARK  9 active torsions:
REMARK  status: ('A' for Active; 'I' for Inactive)
REMARK    1  A    between atoms: N_3  and  C_17
REMARK    2  A    between atoms: N_4  and  C_16
REMARK    3  A    between atoms: N_7  and  C_29
REMARK    4  A    between atoms: N_7  and  C_34
REMARK    5  A    between atoms: N_7  and  C_35
REMARK    6  A    between atoms: C_12  and  C_15
REMARK    7  A    between atoms: C_15  and  C_18
REMARK    8  A    between atoms: C_16  and  C_19
REMARK    9  A    between atoms: C_18  and  C_20
REMARK                            x       y       z     vdW  Elec       q    Type
REMARK                         _______ _______ _______ _____ _____    ______ ____
ROOT
ATOM      1  O   UNL     1      -8.365  -8.892  16.693  0.00  0.00    -0.274 OA
ATOM      3  N   UNL     1      -7.771 -12.507  17.944  0.00  0.00    -0.296 NA
ATOM      4  N   UNL     1     -10.566 -10.172  17.594  0.00  0.00    -0.286 NA
ATOM      5  N   UNL     1      -6.965  -9.758  18.282  0.00  0.00    -0.312 N 
ATOM      8  C   UNL     1      -9.106 -11.978  18.299  0.00  0.00    +0.084 C 
ATOM      9  C   UNL     1      -9.311 -10.435  18.321  0.00  0.00    +0.161 C 
ATOM     10  C   UNL     1     -10.231 -12.438  17.353  0.00  0.00    +0.036 C 
ATOM     11  C   UNL     1     -11.325 -11.417  17.587  0.00  0.00    +0.087 C 
ATOM     12  C   UNL     1      -6.688 -12.140  18.901  0.00  0.00    +0.074 C 
ATOM     13  C   UNL     1      -8.194  -9.626  17.665  0.00  0.00    +0.232 C 
ATOM     14  C   UNL     1      -6.713 -10.674  19.376  0.00  0.00    +0.123 C 
ATOM     17  C   UNL     1      -7.817 -13.968  17.763  0.00  0.00    +0.105 C 
ATOM     36  H   UNL     1      -6.198  -9.185  17.942  0.00  0.00    +0.149 HD
ENDROOT
BRANCH  12  15
ATOM     15  C   UNL     1      -5.303 -12.402  18.273  0.00  0.00    +0.029 C 
BRANCH  15  18
ATOM     18  C   UNL     1      -4.651 -11.124  17.783  0.00  0.00    +0.098 C 
BRANCH  18  20
ATOM      2  O   UNL     1      -5.803 -11.131  15.711  0.00  0.00    -0.275 OA
ATOM      6  N   UNL     1      -3.492 -10.803  15.656  0.00  0.00    -0.271 N 
ATOM     20  C   UNL     1      -4.715 -11.021  16.278  0.00  0.00    +0.220 C 
ATOM     23  C   UNL     1      -2.188 -10.672  16.339  0.00  0.00    +0.118 C 
ATOM     24  C   UNL     1      -3.283 -10.671  14.267  0.00  0.00    +0.039 A 
ATOM     25  C   UNL     1      -1.120 -10.435  15.265  0.00  0.00    +0.056 C 
ATOM     26  C   UNL     1      -1.927 -10.460  14.008  0.00  0.00    -0.024 A 
ATOM     30  C   UNL     1      -4.201 -10.725  13.229  0.00  0.00    +0.024 A 
ATOM     31  C   UNL     1      -1.458 -10.297  12.712  0.00  0.00    +0.005 A 
ATOM     32  C   UNL     1      -3.735 -10.563  11.920  0.00  0.00    +0.002 A 
ATOM     33  C   UNL     1      -2.375 -10.350  11.663  0.00  0.00    +0.000 A 
ENDBRANCH  18  20
ENDBRANCH  15  18
ENDBRANCH  12  15
BRANCH   4  16
ATOM     16  C   UNL     1     -11.334  -9.064  18.147  0.00  0.00    +0.120 C 
BRANCH  16  19
ATOM     19  C   UNL     1     -11.839  -8.139  17.072  0.00  0.00    -0.033 A 
ATOM     21  C   UNL     1     -11.083  -7.029  16.697  0.00  0.00    +0.007 A 
ATOM     22  C   UNL     1     -13.062  -8.392  16.451  0.00  0.00    +0.007 A 
ATOM     27  C   UNL     1     -11.551  -6.171  15.701  0.00  0.00    +0.023 A 
ATOM     28  C   UNL     1     -13.530  -7.536  15.455  0.00  0.00    +0.023 A 
ATOM     29  C   UNL     1     -12.774  -6.424  15.080  0.00  0.00    +0.029 A 
BRANCH  29   7
ATOM      7  N   UNL     1     -13.247  -5.557  14.073  0.00  0.00    -0.336 N 
ATOM     34  C   UNL     1     -14.653  -5.537  13.724  0.00  0.00    +0.129 C 
ATOM     35  C   UNL     1     -12.333  -4.672  13.379  0.00  0.00    +0.129 C 
ENDBRANCH  29   7
ENDBRANCH  16  19
ENDBRANCH   4  16
TORSDOF 6
ENDMDL
MODEL 4
REMARK VINA RESULT:      -7.4     18.455     21.491
REMARK  Name = 45360886
REMARK  9 active torsions:
REMARK  status: ('A' for Active; 'I' for Inactive)
REMARK    1  A    between atoms: N_3  and  C_17
REMARK    2  A    between atoms: N_4  and  C_16
REMARK    3  A    between atoms: N_7  and  C_29
REMARK    4  A    between atoms: N_7  and  C_34
REMARK    5  A    between atoms: N_7  and  C_35
REMARK    6  A    between atoms: C_12  and  C_15
REMARK    7  A    between atoms: C_15  and  C_18
REMARK    8  A    between atoms: C_16  and  C_19
REMARK    9  A    between atoms: C_18  and  C_20
REMARK                            x       y       z     vdW  Elec       q    Type
REMARK                         _______ _______ _______ _____ _____    ______ ____
ROOT
ATOM      1  O   UNL     1      -7.161  -8.818  10.580  0.00  0.00    -0.274 OA
ATOM      3  N   UNL     1      -8.523  -9.766   7.083  0.00  0.00    -0.296 NA
ATOM      4  N   UNL     1      -5.309  -9.716   8.831  0.00  0.00    -0.286 NA
ATOM      5  N   UNL     1      -8.352  -7.638   9.023  0.00  0.00    -0.312 N 
ATOM      8  C   UNL     1      -7.046  -9.699   7.136  0.00  0.00    +0.084 C 
ATOM      9  C   UNL     1      -6.382  -8.871   8.275  0.00  0.00    +0.161 C 
ATOM     10  C   UNL     1      -6.364 -11.070   7.297  0.00  0.00    +0.036 C 
ATOM     11  C   UNL     1      -4.989 -10.720   7.824  0.00  0.00    +0.087 C 
ATOM     12  C   UNL     1      -9.191  -8.456   6.841  0.00  0.00    +0.074 C 
ATOM     13  C   UNL     1      -7.318  -8.468   9.411  0.00  0.00    +0.232 C 
ATOM     14  C   UNL     1      -8.612  -7.275   7.645  0.00  0.00    +0.123 C 
ATOM     17  C   UNL     1      -8.967 -10.756   6.087  0.00  0.00    +0.105 C 
ATOM     36  H   UNL     1      -8.965  -7.271   9.746  0.00  0.00    +0.149 HD
ENDROOT
BRANCH  12  15
ATOM     15  C   UNL     1     -10.696  -8.549   7.170  0.00  0.00    +0.029 C 
BRANCH  15  18
ATOM     18  C   UNL     1     -11.323  -7.180   7.349  0.00  0.00    +0.098 C 
BRANCH  18  20
ATOM      2  O   UNL     1     -12.458  -7.984   9.267  0.00  0.00    -0.275 OA
ATOM      6  N   UNL     1     -11.756  -5.758   9.288  0.00  0.00    -0.271 N 
ATOM     20  C   UNL     1     -11.906  -7.022   8.733  0.00  0.00    +0.220 C 
ATOM     23  C   UNL     1     -11.092  -4.605   8.643  0.00  0.00    +0.118 C 
ATOM     24  C   UNL     1     -12.211  -5.354  10.560  0.00  0.00    +0.039 A 
ATOM     25  C   UNL     1     -11.154  -3.425   9.619  0.00  0.00    +0.056 C 
ATOM     26  C   UNL     1     -11.881  -4.015  10.782  0.00  0.00    -0.024 A 
ATOM     30  C   UNL     1     -12.889  -6.084  11.525  0.00  0.00    +0.024 A 
ATOM     31  C   UNL     1     -12.219  -3.376  11.967  0.00  0.00    +0.005 A 
ATOM     32  C   UNL     1     -13.233  -5.447  12.722  0.00  0.00    +0.002 A 
ATOM     33  C   UNL     1     -12.901  -4.104  12.942  0.00  0.00    +0.000 A 
ENDBRANCH  18  20
ENDBRANCH  15  18
ENDBRANCH  12  15
BRANCH   4  16
ATOM     16  C   UNL     1      -4.135  -8.960   9.247  0.00  0.00    +0.120 C 
BRANCH  16  19
ATOM     19  C   UNL     1      -3.525  -9.517  10.505  0.00  0.00    -0.033 A 
ATOM     21  C   UNL     1      -4.332 -10.153  11.449  0.00  0.00    +0.007 A 
ATOM     22  C   UNL     1      -2.153  -9.398  10.729  0.00  0.00    +0.007 A 
ATOM     27  C   UNL     1      -3.768 -10.669  12.615  0.00  0.00    +0.023 A 
ATOM     28  C   UNL     1      -1.588  -9.915  11.895  0.00  0.00    +0.023 A 
ATOM     29  C   UNL     1      -2.396 -10.550  12.838  0.00  0.00    +0.029 A 
BRANCH  29   7
ATOM      7  N   UNL     1      -1.826 -11.073  14.018  0.00  0.00    -0.336 N 
ATOM     34  C   UNL     1      -1.453 -10.191  15.105  0.00  0.00    +0.129 C 
ATOM     35  C   UNL     1      -1.611 -12.499  14.159  0.00  0.00    +0.129 C 
ENDBRANCH  29   7
ENDBRANCH  16  19
ENDBRANCH   4  16
TORSDOF 6
ENDMDL
MODEL 5
REMARK VINA RESULT:      -7.4     19.406     20.658
REMARK  Name = 45360886
REMARK  9 active torsions:
REMARK  status: ('A' for Active; 'I' for Inactive)
REMARK    1  A    between atoms: N_3  and  C_17
REMARK    2  A    between atoms: N_4  and  C_16
REMARK    3  A    between atoms: N_7  and  C_29
REMARK    4  A    between atoms: N_7  and  C_34
REMARK    5  A    between atoms: N_7  and  C_35
REMARK    6  A    between atoms: C_12  and  C_15
REMARK    7  A    between atoms: C_15  and  C_18
REMARK    8  A    between atoms: C_16  and  C_19
REMARK    9  A    between atoms: C_18  and  C_20
REMARK                            x       y       z     vdW  Elec       q    Type
REMARK                         _______ _______ _______ _____ _____    ______ ____
ROOT
ATOM      1  O   UNL     1      -1.205 -10.902  15.406  0.00  0.00    -0.274 OA
ATOM      3  N   UNL     1      -4.416 -12.961  16.061  0.00  0.00    -0.296 NA
ATOM      4  N   UNL     1      -2.171 -12.233  13.265  0.00  0.00    -0.286 NA
ATOM      5  N   UNL     1      -3.260 -10.324  16.229  0.00  0.00    -0.312 N 
ATOM      8  C   UNL     1      -4.094 -12.823  14.624  0.00  0.00    +0.084 C 
ATOM      9  C   UNL     1      -3.169 -11.651  14.181  0.00  0.00    +0.161 C 
ATOM     10  C   UNL     1      -3.372 -14.044  14.024  0.00  0.00    +0.036 C 
ATOM     11  C   UNL     1      -2.722 -13.491  12.774  0.00  0.00    +0.087 C 
ATOM     12  C   UNL     1      -5.190 -11.823  16.632  0.00  0.00    +0.074 C 
ATOM     13  C   UNL     1      -2.430 -10.946  15.316  0.00  0.00    +0.232 C 
ATOM     14  C   UNL     1      -4.705 -10.426  16.196  0.00  0.00    +0.123 C 
ATOM     17  C   UNL     1      -5.113 -14.233  16.321  0.00  0.00    +0.105 C 
ATOM     36  H   UNL     1      -2.829  -9.772  16.965  0.00  0.00    +0.149 HD
ENDROOT
BRANCH  12  15
ATOM     15  C   UNL     1      -5.155 -11.867  18.174  0.00  0.00    +0.029 C 
BRANCH  15  18
ATOM     18  C   UNL     1      -5.761 -10.622  18.791  0.00  0.00    +0.098 C 
BRANCH  18  20
ATOM      2  O   UNL     1      -7.372 -11.673  20.175  0.00  0.00    -0.275 OA
ATOM      6  N   UNL     1      -8.151 -10.157  18.581  0.00  0.00    -0.271 N 
ATOM     20  C   UNL     1      -7.175 -10.876  19.258  0.00  0.00    +0.220 C 
ATOM     23  C   UNL     1      -7.910  -9.200  17.480  0.00  0.00    +0.118 C 
ATOM     24  C   UNL     1      -9.539 -10.215  18.824  0.00  0.00    +0.039 A 
ATOM     25  C   UNL     1      -9.269  -8.641  17.042  0.00  0.00    +0.056 C 
ATOM     26  C   UNL     1     -10.212  -9.355  17.954  0.00  0.00    -0.024 A 
ATOM     30  C   UNL     1     -10.239 -10.969  19.754  0.00  0.00    +0.024 A 
ATOM     31  C   UNL     1     -11.593  -9.227  17.991  0.00  0.00    +0.005 A 
ATOM     32  C   UNL     1     -11.632 -10.847  19.797  0.00  0.00    +0.002 A 
ATOM     33  C   UNL     1     -12.304  -9.982  18.923  0.00  0.00    +0.000 A 
ENDBRANCH  18  20
ENDBRANCH  15  18
ENDBRANCH  12  15
BRANCH   4  16
ATOM     16  C   UNL     1      -1.793 -11.338  12.179  0.00  0.00    +0.120 C 
BRANCH  16  19
ATOM     19  C   UNL     1      -2.974 -10.960  11.325  0.00  0.00    -0.033 A 
ATOM     21  C   UNL     1      -3.513 -11.886  10.432  0.00  0.00    +0.007 A 
ATOM     22  C   UNL     1      -3.530  -9.685  11.428  0.00  0.00    +0.007 A 
ATOM     27  C   UNL     1      -4.607 -11.536   9.641  0.00  0.00    +0.023 A 
ATOM     28  C   UNL     1      -4.625  -9.335  10.638  0.00  0.00    +0.023 A 
ATOM     29  C   UNL     1      -5.163 -10.261   9.744  0.00  0.00    +0.029 A 
BRANCH  29   7
ATOM      7  N   UNL     1      -6.270  -9.907   8.944  0.00  0.00    -0.336 N 
ATOM     34  C   UNL     1      -6.249 -10.147   7.515  0.00  0.00    +0.129 C 
ATOM     35  C   UNL     1      -7.445  -9.306   9.543  0.00  0.00    +0.129 C 
ENDBRANCH  29   7
ENDBRANCH  16  19
ENDBRANCH   4  16
TORSDOF 6
ENDMDL
MODEL 6
REMARK VINA RESULT:      -7.2     19.134     20.846
REMARK  Name = 45360886
REMARK  9 active torsions:
REMARK  status: ('A' for Active; 'I' for Inactive)
REMARK    1  A    between atoms: N_3  and  C_17
REMARK    2  A    between atoms: N_4  and  C_16
REMARK    3  A    between atoms: N_7  and  C_29
REMARK    4  A    between atoms: N_7  and  C_34
REMARK    5  A    between atoms: N_7  and  C_35
REMARK    6  A    between atoms: C_12  and  C_15
REMARK    7  A    between atoms: C_15  and  C_18
REMARK    8  A    between atoms: C_16  and  C_19
REMARK    9  A    between atoms: C_18  and  C_20
REMARK                            x       y       z     vdW  Elec       q    Type
REMARK                         _______ _______ _______ _____ _____    ______ ____
ROOT
ATOM      1  O   UNL     1      -6.510  -8.999  12.259  0.00  0.00    -0.274 OA
ATOM      3  N   UNL     1      -2.840 -10.103  11.712  0.00  0.00    -0.296 NA
ATOM      4  N   UNL     1      -5.776  -9.311   9.678  0.00  0.00    -0.286 NA
ATOM      5  N   UNL     1      -5.314 -10.792  13.026  0.00  0.00    -0.312 N 
ATOM      8  C   UNL     1      -3.665 -10.194  10.488  0.00  0.00    +0.084 C 
ATOM      9  C   UNL     1      -5.213 -10.274  10.642  0.00  0.00    +0.161 C 
ATOM     10  C   UNL     1      -3.500  -8.997   9.533  0.00  0.00    +0.036 C 
ATOM     11  C   UNL     1      -4.748  -9.055   8.677  0.00  0.00    +0.087 C 
ATOM     12  C   UNL     1      -2.926 -11.294  12.604  0.00  0.00    +0.074 C 
ATOM     13  C   UNL     1      -5.743  -9.933  12.032  0.00  0.00    +0.232 C 
ATOM     14  C   UNL     1      -4.349 -11.850  12.807  0.00  0.00    +0.123 C 
ATOM     17  C   UNL     1      -1.435  -9.818  11.377  0.00  0.00    +0.105 C 
ATOM     36  H   UNL     1      -5.693 -10.667  13.960  0.00  0.00    +0.149 HD
ENDROOT
BRANCH  12  15
ATOM     15  C   UNL     1      -2.351 -10.968  13.998  0.00  0.00    +0.029 C 
BRANCH  15  18
ATOM     18  C   UNL     1      -2.713 -12.025  15.023  0.00  0.00    +0.098 C 
BRANCH  18  20
ATOM      2  O   UNL     1      -3.069 -10.342  16.654  0.00  0.00    -0.275 OA
ATOM      6  N   UNL     1      -4.523 -12.169  16.659  0.00  0.00    -0.271 N 
ATOM     20  C   UNL     1      -3.448 -11.420  16.195  0.00  0.00    +0.220 C 
ATOM     23  C   UNL     1      -4.975 -13.463  16.106  0.00  0.00    +0.118 C 
ATOM     24  C   UNL     1      -5.366 -11.826  17.736  0.00  0.00    +0.039 A 
ATOM     25  C   UNL     1      -6.192 -13.918  16.919  0.00  0.00    +0.056 C 
ATOM     26  C   UNL     1      -6.337 -12.814  17.914  0.00  0.00    -0.024 A 
ATOM     30  C   UNL     1      -5.332 -10.712  18.560  0.00  0.00    +0.024 A 
ATOM     31  C   UNL     1      -7.294 -12.712  18.914  0.00  0.00    +0.005 A 
ATOM     32  C   UNL     1      -6.292 -10.602  19.572  0.00  0.00    +0.002 A 
ATOM     33  C   UNL     1      -7.266 -11.594  19.747  0.00  0.00    +0.000 A 
ENDBRANCH  18  20
ENDBRANCH  15  18
ENDBRANCH  12  15
BRANCH   4  16
ATOM     16  C   UNL     1      -7.027  -9.758   9.079  0.00  0.00    +0.120 C 
BRANCH  16  19
ATOM     19  C   UNL     1      -8.049  -8.653   9.024  0.00  0.00    -0.033 A 
ATOM     21  C   UNL     1      -7.774  -7.484   8.314  0.00  0.00    +0.007 A 
ATOM     22  C   UNL     1      -9.271  -8.799   9.681  0.00  0.00    +0.007 A 
ATOM     27  C   UNL     1      -8.720  -6.461   8.263  0.00  0.00    +0.023 A 
ATOM     28  C   UNL     1     -10.217  -7.776   9.629  0.00  0.00    +0.023 A 
ATOM     29  C   UNL     1      -9.942  -6.606   8.920  0.00  0.00    +0.029 A 
BRANCH  29   7
ATOM      7  N   UNL     1     -10.899  -5.572   8.868  0.00  0.00    -0.336 N 
ATOM     34  C   UNL     1     -10.495  -4.190   9.035  0.00  0.00    +0.129 C 
ATOM     35  C   UNL     1     -12.297  -5.877   8.640  0.00  0.00    +0.129 C 
ENDBRANCH  29   7
ENDBRANCH  16  19
ENDBRANCH   4  16
TORSDOF 6
ENDMDL
MODEL 7
REMARK VINA RESULT:      -7.1     14.607     15.751
REMARK  Name = 45360886
REMARK  9 active torsions:
REMARK  status: ('A' for Active; 'I' for Inactive)
REMARK    1  A    between atoms: N_3  and  C_17
REMARK    2  A    between atoms: N_4  and  C_16
REMARK    3  A    between atoms: N_7  and  C_29
REMARK    4  A    between atoms: N_7  and  C_34
REMARK    5  A    between atoms: N_7  and  C_35
REMARK    6  A    between atoms: C_12  and  C_15
REMARK    7  A    between atoms: C_15  and  C_18
REMARK    8  A    between atoms: C_16  and  C_19
REMARK    9  A    between atoms: C_18  and  C_20
REMARK                            x       y       z     vdW  Elec       q    Type
REMARK                         _______ _______ _______ _____ _____    ______ ____
ROOT
ATOM      1  O   UNL     1     -11.898  -4.941  12.530  0.00  0.00    -0.274 OA
ATOM      3  N   UNL     1     -13.632  -7.769  14.524  0.00  0.00    -0.296 NA
ATOM      4  N   UNL     1     -14.598  -4.880  12.498  0.00  0.00    -0.286 NA
ATOM      5  N   UNL     1     -11.738  -5.602  14.714  0.00  0.00    -0.312 N 
ATOM      8  C   UNL     1     -14.559  -6.694  14.111  0.00  0.00    +0.084 C 
ATOM      9  C   UNL     1     -13.966  -5.297  13.764  0.00  0.00    +0.161 C 
ATOM     10  C   UNL     1     -15.371  -7.021  12.844  0.00  0.00    +0.036 C 
ATOM     11  C   UNL     1     -15.821  -5.662  12.353  0.00  0.00    +0.087 C 
ATOM     12  C   UNL     1     -12.903  -7.501  15.796  0.00  0.00    +0.074 C 
ATOM     13  C   UNL     1     -12.451  -5.265  13.580  0.00  0.00    +0.232 C 
ATOM     14  C   UNL     1     -12.356  -6.067  15.939  0.00  0.00    +0.123 C 
ATOM     17  C   UNL     1     -14.331  -9.063  14.602  0.00  0.00    +0.105 C 
ATOM     36  H   UNL     1     -10.725  -5.525  14.681  0.00  0.00    +0.149 HD
ENDROOT
BRANCH  12  15
ATOM     15  C   UNL     1     -11.712  -8.470  15.951  0.00  0.00    +0.029 C 
BRANCH  15  18
ATOM     18  C   UNL     1     -11.175  -8.486  17.369  0.00  0.00    +0.098 C 
BRANCH  18  20
ATOM      2  O   UNL     1      -8.920  -8.217  16.691  0.00  0.00    -0.275 OA
ATOM      6  N   UNL     1      -9.383  -9.902  18.239  0.00  0.00    -0.271 N 
ATOM     20  C   UNL     1      -9.709  -8.850  17.394  0.00  0.00    +0.220 C 
ATOM     23  C   UNL     1     -10.333 -10.659  19.081  0.00  0.00    +0.118 C 
ATOM     24  C   UNL     1      -8.092 -10.431  18.441  0.00  0.00    +0.039 A 
ATOM     25  C   UNL     1      -9.535 -11.718  19.850  0.00  0.00    +0.056 C 
ATOM     26  C   UNL     1      -8.144 -11.480  19.361  0.00  0.00    -0.024 A 
ATOM     30  C   UNL     1      -6.886 -10.051  17.870  0.00  0.00    +0.024 A 
ATOM     31  C   UNL     1      -7.000 -12.171  19.734  0.00  0.00    +0.005 A 
ATOM     32  C   UNL     1      -5.727 -10.743  18.240  0.00  0.00    +0.002 A 
ATOM     33  C   UNL     1      -5.783 -11.795  19.165  0.00  0.00    +0.000 A 
ENDBRANCH  18  20
ENDBRANCH  15  18
ENDBRANCH  12  15
BRANCH   4  16
ATOM     16  C   UNL     1     -14.850  -3.447  12.422  0.00  0.00    +0.120 C 
BRANCH  16  19
ATOM     19  C   UNL     1     -14.843  -2.951  11.001  0.00  0.00    -0.033 A 
ATOM     21  C   UNL     1     -15.786  -2.009  10.587  0.00  0.00    +0.007 A 
ATOM     22  C   UNL     1     -13.894  -3.430  10.098  0.00  0.00    +0.007 A 
ATOM     27  C   UNL     1     -15.780  -1.549   9.271  0.00  0.00    +0.023 A 
ATOM     28  C   UNL     1     -13.887  -2.970   8.782  0.00  0.00    +0.023 A 
ATOM     29  C   UNL     1     -14.831  -2.029   8.368  0.00  0.00    +0.029 A 
BRANCH  29   7
ATOM      7  N   UNL     1     -14.825  -1.563   7.036  0.00  0.00    -0.336 N 
ATOM     34  C   UNL     1     -13.883  -0.544   6.620  0.00  0.00    +0.129 C 
ATOM     35  C   UNL     1     -15.756  -2.104   6.066  0.00  0.00    +0.129 C 
ENDBRANCH  29   7
ENDBRANCH  16  19
ENDBRANCH   4  16
TORSDOF 6
ENDMDL
MODEL 8
REMARK VINA RESULT:      -7.0     17.096     19.142
REMARK  Name = 45360886
REMARK  9 active torsions:
REMARK  status: ('A' for Active; 'I' for Inactive)
REMARK    1  A    between atoms: N_3  and  C_17
REMARK    2  A    between atoms: N_4  and  C_16
REMARK    3  A    between atoms: N_7  and  C_29
REMARK    4  A    between atoms: N_7  and  C_34
REMARK    5  A    between atoms: N_7  and  C_35
REMARK    6  A    between atoms: C_12  and  C_15
REMARK    7  A    between atoms: C_15  and  C_18
REMARK    8  A    between atoms: C_16  and  C_19
REMARK    9  A    between atoms: C_18  and  C_20
REMARK                            x       y       z     vdW  Elec       q    Type
REMARK                         _______ _______ _______ _____ _____    ______ ____
ROOT
ATOM      1  O   UNL     1      -9.477  -8.703  14.809  0.00  0.00    -0.274 OA
ATOM      3  N   UNL     1      -8.997 -11.316  17.623  0.00  0.00    -0.296 NA
ATOM      4  N   UNL     1     -11.092  -8.393  16.951  0.00  0.00    -0.286 NA
ATOM      5  N   UNL     1      -7.646  -9.330  16.027  0.00  0.00    -0.312 N 
ATOM      8  C   UNL     1      -9.837 -10.169  18.029  0.00  0.00    +0.084 C 
ATOM      9  C   UNL     1      -9.715  -8.840  17.227  0.00  0.00    +0.161 C 
ATOM     10  C   UNL     1     -11.350 -10.446  17.962  0.00  0.00    +0.036 C 
ATOM     11  C   UNL     1     -11.960  -9.061  17.914  0.00  0.00    +0.087 C 
ATOM     12  C   UNL     1      -7.531 -11.090  17.767  0.00  0.00    +0.074 C 
ATOM     13  C   UNL     1      -8.968  -8.953  15.900  0.00  0.00    +0.232 C 
ATOM     14  C   UNL     1      -7.039  -9.710  17.287  0.00  0.00    +0.123 C 
ATOM     17  C   UNL     1      -9.396 -12.538  18.342  0.00  0.00    +0.105 C 
ATOM     36  H   UNL     1      -7.073  -9.348  15.188  0.00  0.00    +0.149 HD
ENDROOT
BRANCH  12  15
ATOM     15  C   UNL     1      -6.741 -12.162  16.987  0.00  0.00    +0.029 C 
BRANCH  15  18
ATOM     18  C   UNL     1      -5.325 -11.713  16.683  0.00  0.00    +0.098 C 
BRANCH  18  20
ATOM      2  O   UNL     1      -6.085 -11.626  14.440  0.00  0.00    -0.275 OA
ATOM      6  N   UNL     1      -3.869 -11.019  14.848  0.00  0.00    -0.271 N 
ATOM     20  C   UNL     1      -5.139 -11.450  15.208  0.00  0.00    +0.220 C 
ATOM     23  C   UNL     1      -2.734 -10.809  15.772  0.00  0.00    +0.118 C 
ATOM     24  C   UNL     1      -3.440 -10.708  13.541  0.00  0.00    +0.039 A 
ATOM     25  C   UNL     1      -1.539 -10.326  14.943  0.00  0.00    +0.056 C 
ATOM     26  C   UNL     1      -2.103 -10.307  13.560  0.00  0.00    -0.024 A 
ATOM     30  C   UNL     1      -4.147 -10.755  12.348  0.00  0.00    +0.024 A 
ATOM     31  C   UNL     1      -1.442  -9.944  12.394  0.00  0.00    +0.005 A 
ATOM     32  C   UNL     1      -3.488 -10.392  11.169  0.00  0.00    +0.002 A 
ATOM     33  C   UNL     1      -2.146  -9.990  11.191  0.00  0.00    +0.000 A 
ENDBRANCH  18  20
ENDBRANCH  15  18
ENDBRANCH  12  15
BRANCH   4  16
ATOM     16  C   UNL     1     -11.248  -6.945  16.984  0.00  0.00    +0.120 C 
BRANCH  16  19
ATOM     19  C   UNL     1     -12.123  -6.449  15.863  0.00  0.00    -0.033 A 
ATOM     21  C   UNL     1     -13.488  -6.739  15.864  0.00  0.00    +0.007 A 
ATOM     22  C   UNL     1     -11.570  -5.699  14.825  0.00  0.00    +0.007 A 
ATOM     27  C   UNL     1     -14.298  -6.280  14.826  0.00  0.00    +0.023 A 
ATOM     28  C   UNL     1     -12.381  -5.239  13.788  0.00  0.00    +0.023 A 
ATOM     29  C   UNL     1     -13.746  -5.530  13.788  0.00  0.00    +0.029 A 
BRANCH  29   7
ATOM      7  N   UNL     1     -14.566  -5.066  12.739  0.00  0.00    -0.336 N 
ATOM     34  C   UNL     1     -15.155  -5.999  11.800  0.00  0.00    +0.129 C 
ATOM     35  C   UNL     1     -14.836  -3.649  12.591  0.00  0.00    +0.129 C 
ENDBRANCH  29   7
ENDBRANCH  16  19
ENDBRANCH   4  16
TORSDOF 6
ENDMDL
MODEL 9
REMARK VINA RESULT:      -7.0     16.761     18.818
REMARK  Name = 45360886
REMARK  9 active torsions:
REMARK  status: ('A' for Active; 'I' for Inactive)
REMARK    1  A    between atoms: N_3  and  C_17
REMARK    2  A    between atoms: N_4  and  C_16
REMARK    3  A    between atoms: N_7  and  C_29
REMARK    4  A    between atoms: N_7  and  C_34
REMARK    5  A    between atoms: N_7  and  C_35
REMARK    6  A    between atoms: C_12  and  C_15
REMARK    7  A    between atoms: C_15  and  C_18
REMARK    8  A    between atoms: C_16  and  C_19
REMARK    9  A    between atoms: C_18  and  C_20
REMARK                            x       y       z     vdW  Elec       q    Type
REMARK                         _______ _______ _______ _____ _____    ______ ____
ROOT
ATOM      1  O   UNL     1      -7.028  -9.649  16.519  0.00  0.00    -0.274 OA
ATOM      3  N   UNL     1     -10.362  -9.978  18.457  0.00  0.00    -0.296 NA
ATOM      4  N   UNL     1      -7.327 -11.945  17.908  0.00  0.00    -0.286 NA
ATOM      5  N   UNL     1      -9.213  -9.533  15.850  0.00  0.00    -0.312 N 
ATOM      8  C   UNL     1      -9.600 -11.244  18.387  0.00  0.00    +0.084 C 
ATOM      9  C   UNL     1      -8.538 -11.408  17.261  0.00  0.00    +0.161 C 
ATOM     10  C   UNL     1      -8.777 -11.549  19.652  0.00  0.00    +0.036 C 
ATOM     11  C   UNL     1      -7.746 -12.547  19.169  0.00  0.00    +0.087 C 
ATOM     12  C   UNL     1     -11.230  -9.714  17.275  0.00  0.00    +0.074 C 
ATOM     13  C   UNL     1      -8.165 -10.119  16.532  0.00  0.00    +0.232 C 
ATOM     14  C   UNL     1     -10.578 -10.016  15.912  0.00  0.00    +0.123 C 
ATOM     17  C   UNL     1     -11.156  -9.912  19.696  0.00  0.00    +0.105 C 
ATOM     36  H   UNL     1      -9.013  -8.716  15.280  0.00  0.00    +0.149 HD
ENDROOT
BRANCH  12  15
ATOM     15  C   UNL     1     -11.682  -8.238  17.257  0.00  0.00    +0.029 C 
BRANCH  15  18
ATOM     18  C   UNL     1     -12.761  -7.988  16.221  0.00  0.00    +0.098 C 
BRANCH  18  20
ATOM      2  O   UNL     1     -11.192  -6.518  15.223  0.00  0.00    -0.275 OA
ATOM      6  N   UNL     1     -13.422  -6.321  14.561  0.00  0.00    -0.271 N 
ATOM     20  C   UNL     1     -12.371  -6.868  15.286  0.00  0.00    +0.220 C 
ATOM     23  C   UNL     1     -14.837  -6.743  14.640  0.00  0.00    +0.118 C 
ATOM     24  C   UNL     1     -13.324  -5.269  13.628  0.00  0.00    +0.039 A 
ATOM     25  C   UNL     1     -15.639  -5.873  13.666  0.00  0.00    +0.056 C 
ATOM     26  C   UNL     1     -14.583  -4.985  13.094  0.00  0.00    -0.024 A 
ATOM     30  C   UNL     1     -12.207  -4.553  13.222  0.00  0.00    +0.024 A 
ATOM     31  C   UNL     1     -14.756  -3.985  12.147  0.00  0.00    +0.005 A 
ATOM     32  C   UNL     1     -12.373  -3.543  12.269  0.00  0.00    +0.002 A 
ATOM     33  C   UNL     1     -13.638  -3.261  11.735  0.00  0.00    +0.000 A 
ENDBRANCH  18  20
ENDBRANCH  15  18
ENDBRANCH  12  15
BRANCH   4  16
ATOM     16  C   UNL     1      -6.591 -12.883  17.070  0.00  0.00    +0.120 C 
BRANCH  16  19
ATOM     19  C   UNL     1      -5.364 -12.254  16.467  0.00  0.00    -0.033 A 
ATOM     21  C   UNL     1      -4.445 -11.595  17.284  0.00  0.00    +0.007 A 
ATOM     22  C   UNL     1      -5.144 -12.330  15.091  0.00  0.00    +0.007 A 
ATOM     27  C   UNL     1      -3.309 -11.011  16.726  0.00  0.00    +0.023 A 
ATOM     28  C   UNL     1      -4.007 -11.747  14.533  0.00  0.00    +0.023 A 
ATOM     29  C   UNL     1      -3.089 -11.087  15.350  0.00  0.00    +0.029 A 
BRANCH  29   7
ATOM      7  N   UNL     1      -1.938 -10.498  14.786  0.00  0.00    -0.336 N 
ATOM     34  C   UNL     1      -0.842 -10.071  15.633  0.00  0.00    +0.129 C 
ATOM     35  C   UNL     1      -1.835 -10.318  13.351  0.00  0.00    +0.129 C 
ENDBRANCH  29   7
ENDBRANCH  16  19
ENDBRANCH   4  16
TORSDOF 6
ENDMDL
MODEL 10
REMARK VINA RESULT:      -7.0     18.691     20.089
REMARK  Name = 45360886
REMARK  9 active torsions:
REMARK  status: ('A' for Active; 'I' for Inactive)
REMARK    1  A    between atoms: N_3  and  C_17
REMARK    2  A    between atoms: N_4  and  C_16
REMARK    3  A    between atoms: N_7  and  C_29
REMARK    4  A    between atoms: N_7  and  C_34
REMARK    5  A    between atoms: N_7  and  C_35
REMARK    6  A    between atoms: C_12  and  C_15
REMARK    7  A    between atoms: C_15  and  C_18
REMARK    8  A    between atoms: C_16  and  C_19
REMARK    9  A    between atoms: C_18  and  C_20
REMARK                            x       y       z     vdW  Elec       q    Type
REMARK                         _______ _______ _______ _____ _____    ______ ____
ROOT
ATOM      1  O   UNL     1      -5.888  -9.779  13.278  0.00  0.00    -0.274 OA
ATOM      3  N   UNL     1      -2.920 -10.937  15.477  0.00  0.00    -0.296 NA
ATOM      4  N   UNL     1      -3.654 -10.461  11.924  0.00  0.00    -0.286 NA
ATOM      5  N   UNL     1      -5.689 -11.437  14.842  0.00  0.00    -0.312 N 
ATOM      8  C   UNL     1      -2.721 -11.208  14.036  0.00  0.00    +0.084 C 
ATOM      9  C   UNL     1      -3.973 -11.272  13.113  0.00  0.00    +0.161 C 
ATOM     10  C   UNL     1      -1.846 -10.163  13.319  0.00  0.00    +0.036 C 
ATOM     11  C   UNL     1      -2.201 -10.349  11.859  0.00  0.00    +0.087 C 
ATOM     12  C   UNL     1      -3.692 -11.987  16.201  0.00  0.00    +0.074 C 
ATOM     13  C   UNL     1      -5.260 -10.734  13.733  0.00  0.00    +0.232 C 
ATOM     14  C   UNL     1      -4.932 -12.512  15.450  0.00  0.00    +0.123 C 
ATOM     17  C   UNL     1      -1.632 -10.699  16.149  0.00  0.00    +0.105 C 
ATOM     36  H   UNL     1      -6.581 -11.179  15.254  0.00  0.00    +0.149 HD
ENDROOT
BRANCH  12  15
ATOM     15  C   UNL     1      -4.168 -11.458  17.570  0.00  0.00    +0.029 C 
BRANCH  15  18
ATOM     18  C   UNL     1      -5.236 -10.391  17.426  0.00  0.00    +0.098 C 
BRANCH  18  20
ATOM      2  O   UNL     1      -6.331 -11.484  19.221  0.00  0.00    -0.275 OA
ATOM      6  N   UNL     1      -7.618 -10.080  17.871  0.00  0.00    -0.271 N 
ATOM     20  C   UNL     1      -6.447 -10.712  18.269  0.00  0.00    +0.220 C 
ATOM     23  C   UNL     1      -7.754  -9.154  16.727  0.00  0.00    +0.118 C 
ATOM     24  C   UNL     1      -8.880 -10.213  18.487  0.00  0.00    +0.039 A 
ATOM     25  C   UNL     1      -9.215  -8.696  16.667  0.00  0.00    +0.056 C 
ATOM     26  C   UNL     1      -9.823  -9.430  17.818  0.00  0.00    -0.024 A 
ATOM     30  C   UNL     1      -9.246 -10.972  19.589  0.00  0.00    +0.024 A 
ATOM     31  C   UNL     1     -11.147  -9.385  18.230  0.00  0.00    +0.005 A 
ATOM     32  C   UNL     1     -10.579 -10.933  20.011  0.00  0.00    +0.002 A 
ATOM     33  C   UNL     1     -11.523 -10.146  19.337  0.00  0.00    +0.000 A 
ENDBRANCH  18  20
ENDBRANCH  15  18
ENDBRANCH  12  15
BRANCH   4  16
ATOM     16  C   UNL     1      -4.219 -10.995  10.692  0.00  0.00    +0.120 C 
BRANCH  16  19
ATOM     19  C   UNL     1      -5.307 -10.111  10.144  0.00  0.00    -0.033 A 
ATOM     21  C   UNL     1      -5.035  -8.777   9.840  0.00  0.00    +0.007 A 
ATOM     22  C   UNL     1      -6.588 -10.625   9.941  0.00  0.00    +0.007 A 
ATOM     27  C   UNL     1      -6.043  -7.958   9.333  0.00  0.00    +0.023 A 
ATOM     28  C   UNL     1      -7.597  -9.806   9.433  0.00  0.00    +0.023 A 
ATOM     29  C   UNL     1      -7.324  -8.472   9.130  0.00  0.00    +0.029 A 
BRANCH  29   7
ATOM      7  N   UNL     1      -8.344  -7.643   8.616  0.00  0.00    -0.336 N 
ATOM     34  C   UNL     1      -9.723  -8.088   8.621  0.00  0.00    +0.129 C 
ATOM     35  C   UNL     1      -8.026  -6.333   8.084  0.00  0.00    +0.129 C 
ENDBRANCH  29   7
ENDBRANCH  16  19
ENDBRANCH   4  16
TORSDOF 6
ENDMDL
