MODEL 1
REMARK VINA RESULT:      -5.9      0.000      0.000
REMARK  Name = 26763134
REMARK  9 active torsions:
REMARK  status: ('A' for Active; 'I' for Inactive)
REMARK    1  A    between atoms: S_1  and  C_19
REMARK    2  A    between atoms: S_1  and  C_25
REMARK    3  A    between atoms: N_9  and  C_13
REMARK    4  A    between atoms: N_10  and  C_21
REMARK    5  A    between atoms: N_10  and  C_22
REMARK    6  A    between atoms: N_11  and  C_24
REMARK    7  A    between atoms: C_14  and  C_17
REMARK    8  A    between atoms: C_18  and  C_19
REMARK    9  A    between atoms: C_21  and  C_23
REMARK                            x       y       z     vdW  Elec       q    Type
REMARK                         _______ _______ _______ _____ _____    ______ ____
ROOT
ATOM      5  O   UNL     1     -12.723  11.801  14.917  0.00  0.00    -0.275 OA
ATOM      8  N   UNL     1     -11.896  10.660  16.753  0.00  0.00    -0.287 N 
ATOM     13  C   UNL     1     -11.034   9.148  18.370  0.00  0.00    +0.094 C 
ATOM     14  C   UNL     1     -11.300   9.563  16.005  0.00  0.00    +0.164 C 
ATOM     15  C   UNL     1     -10.408   8.835  17.009  0.00  0.00    +0.056 C 
ATOM     16  C   UNL     1     -11.610  10.549  18.184  0.00  0.00    +0.131 C 
ATOM     18  C   UNL     1     -12.496  11.741  16.127  0.00  0.00    +0.226 C 
ENDROOT
BRANCH  13   9
ATOM      6  O   UNL     1     -11.949   8.521  21.011  0.00  0.00    -0.252 OA
ATOM      9  N   UNL     1     -12.053   8.193  18.725  0.00  0.00    -0.295 N 
ATOM     11  N   UNL     1     -13.447   6.971  20.082  0.00  0.00    -0.267 N 
ATOM     20  C   UNL     1     -12.444   7.944  20.046  0.00  0.00    +0.304 C 
ATOM     31  H   UNL     1     -12.467   7.631  17.987  0.00  0.00    +0.151 HD
ATOM     32  H   UNL     1     -13.749   6.589  19.189  0.00  0.00    +0.156 HD
BRANCH  11  24
ATOM      2  F   UNL     1     -12.126   5.321  21.899  0.00  0.00    -0.203 F 
ATOM      3  F   UNL     1     -16.036   4.911  24.530  0.00  0.00    -0.205 F 
ATOM     24  C   UNL     1     -14.105   6.443  21.218  0.00  0.00    +0.070 A 
ATOM     26  C   UNL     1     -13.415   5.621  22.108  0.00  0.00    +0.147 A 
ATOM     27  C   UNL     1     -15.447   6.748  21.446  0.00  0.00    +0.029 A 
ATOM     28  C   UNL     1     -14.067   5.104  23.227  0.00  0.00    +0.078 A 
ATOM     29  C   UNL     1     -16.099   6.231  22.565  0.00  0.00    +0.040 A 
ATOM     30  C   UNL     1     -15.409   5.408  23.456  0.00  0.00    +0.126 A 
ENDBRANCH  11  24
ENDBRANCH  13   9
BRANCH  14  17
ATOM      4  O   UNL     1     -13.318   8.362  16.257  0.00  0.00    -0.274 OA
ATOM     10  N   UNL     1     -12.294   8.248  14.173  0.00  0.00    -0.294 N 
ATOM     17  C   UNL     1     -12.395   8.673  15.499  0.00  0.00    +0.236 C 
ATOM     22  C   UNL     1     -13.289   7.382  13.554  0.00  0.00    +0.132 C 
BRANCH  10  21
ATOM     21  C   UNL     1     -11.184   8.642  13.309  0.00  0.00    +0.202 C 
BRANCH  21  23
ATOM      7  O   UNL     1     -10.009   6.705  14.164  0.00  0.00    -0.274 OA
ATOM     12  N   UNL     1      -9.344   7.613  12.159  0.00  0.00    -0.328 N 
ATOM     23  C   UNL     1     -10.149   7.541  13.276  0.00  0.00    +0.228 C 
ATOM     33  H   UNL     1      -9.470   8.323  11.445  0.00  0.00    +0.145 HD
ATOM     34  H   UNL     1      -8.594   6.945  12.012  0.00  0.00    +0.145 HD
ENDBRANCH  21  23
ENDBRANCH  10  21
ENDBRANCH  14  17
BRANCH  18  19
ATOM     19  C   UNL     1     -12.887  12.883  17.032  0.00  0.00    +0.164 C 
BRANCH  19   1
ATOM      1  S   UNL     1     -14.678  13.036  16.978  0.00  0.00    -0.155 S 
ATOM     25  C   UNL     1     -15.090  11.995  18.401  0.00  0.00    +0.085 C 
ENDBRANCH  19   1
ENDBRANCH  18  19
TORSDOF 7
ENDMDL
MODEL 2
REMARK VINA RESULT:      -5.7     25.893     29.770
REMARK  Name = 26763134
REMARK  9 active torsions:
REMARK  status: ('A' for Active; 'I' for Inactive)
REMARK    1  A    between atoms: S_1  and  C_19
REMARK    2  A    between atoms: S_1  and  C_25
REMARK    3  A    between atoms: N_9  and  C_13
REMARK    4  A    between atoms: N_10  and  C_21
REMARK    5  A    between atoms: N_10  and  C_22
REMARK    6  A    between atoms: N_11  and  C_24
REMARK    7  A    between atoms: C_14  and  C_17
REMARK    8  A    between atoms: C_18  and  C_19
REMARK    9  A    between atoms: C_21  and  C_23
REMARK                            x       y       z     vdW  Elec       q    Type
REMARK                         _______ _______ _______ _____ _____    ______ ____
ROOT
ATOM      5  O   UNL     1       9.080   8.771   5.456  0.00  0.00    -0.275 OA
ATOM      8  N   UNL     1       9.652   6.986   4.098  0.00  0.00    -0.287 N 
ATOM     13  C   UNL     1      10.415   4.989   3.063  0.00  0.00    +0.094 C 
ATOM     14  C   UNL     1       9.859   6.027   5.172  0.00  0.00    +0.164 C 
ATOM     15  C   UNL     1       9.938   4.666   4.481  0.00  0.00    +0.056 C 
ATOM     16  C   UNL     1       9.806   6.359   2.785  0.00  0.00    +0.131 C 
ATOM     18  C   UNL     1       9.197   8.274   4.335  0.00  0.00    +0.226 C 
ENDROOT
BRANCH  13   9
ATOM      6  O   UNL     1      11.980   5.171   0.671  0.00  0.00    -0.252 OA
ATOM      9  N   UNL     1      11.854   5.014   2.974  0.00  0.00    -0.295 N 
ATOM     11  N   UNL     1      13.925   5.108   1.983  0.00  0.00    -0.267 N 
ATOM     20  C   UNL     1      12.545   5.106   1.759  0.00  0.00    +0.304 C 
ATOM     31  H   UNL     1      12.393   4.902   3.827  0.00  0.00    +0.151 HD
ATOM     32  H   UNL     1      14.233   5.047   2.950  0.00  0.00    +0.156 HD
BRANCH  11  24
ATOM      2  F   UNL     1      15.114   7.538   1.316  0.00  0.00    -0.203 F 
ATOM      3  F   UNL     1      17.982   5.404  -1.783  0.00  0.00    -0.205 F 
ATOM     24  C   UNL     1      14.960   5.186   1.022  0.00  0.00    +0.070 A 
ATOM     26  C   UNL     1      15.535   6.418   0.711  0.00  0.00    +0.147 A 
ATOM     27  C   UNL     1      15.406   4.028   0.385  0.00  0.00    +0.029 A 
ATOM     28  C   UNL     1      16.556   6.492  -0.236  0.00  0.00    +0.078 A 
ATOM     29  C   UNL     1      16.427   4.101  -0.562  0.00  0.00    +0.040 A 
ATOM     30  C   UNL     1      17.002   5.334  -0.873  0.00  0.00    +0.126 A 
ENDBRANCH  11  24
ENDBRANCH  13   9
BRANCH  14  17
ATOM      4  O   UNL     1      12.149   6.599   5.211  0.00  0.00    -0.274 OA
ATOM     10  N   UNL     1      11.098   6.377   7.273  0.00  0.00    -0.294 N 
ATOM     17  C   UNL     1      11.139   6.359   5.878  0.00  0.00    +0.236 C 
ATOM     22  C   UNL     1      12.270   6.686   8.083  0.00  0.00    +0.132 C 
BRANCH  10  21
ATOM     21  C   UNL     1       9.879   6.089   8.023  0.00  0.00    +0.202 C 
BRANCH  21  23
ATOM      7  O   UNL     1      10.169   4.854  10.085  0.00  0.00    -0.274 OA
ATOM     12  N   UNL     1      10.194   3.709   8.092  0.00  0.00    -0.328 N 
ATOM     23  C   UNL     1      10.077   4.846   8.861  0.00  0.00    +0.228 C 
ATOM     33  H   UNL     1      10.128   3.729   7.080  0.00  0.00    +0.145 HD
ATOM     34  H   UNL     1      10.345   2.802   8.521  0.00  0.00    +0.145 HD
ENDBRANCH  21  23
ENDBRANCH  10  21
ENDBRANCH  14  17
BRANCH  18  19
ATOM     19  C   UNL     1       8.848   9.076   3.106  0.00  0.00    +0.164 C 
BRANCH  19   1
ATOM      1  S   UNL     1       7.130   9.590   3.258  0.00  0.00    -0.155 S 
ATOM     25  C   UNL     1       6.696   9.635   1.501  0.00  0.00    +0.085 C 
ENDBRANCH  19   1
ENDBRANCH  18  19
TORSDOF 7
ENDMDL
MODEL 3
REMARK VINA RESULT:      -5.7     26.677     30.734
REMARK  Name = 26763134
REMARK  9 active torsions:
REMARK  status: ('A' for Active; 'I' for Inactive)
REMARK    1  A    between atoms: S_1  and  C_19
REMARK    2  A    between atoms: S_1  and  C_25
REMARK    3  A    between atoms: N_9  and  C_13
REMARK    4  A    between atoms: N_10  and  C_21
REMARK    5  A    between atoms: N_10  and  C_22
REMARK    6  A    between atoms: N_11  and  C_24
REMARK    7  A    between atoms: C_14  and  C_17
REMARK    8  A    between atoms: C_18  and  C_19
REMARK    9  A    between atoms: C_21  and  C_23
REMARK                            x       y       z     vdW  Elec       q    Type
REMARK                         _______ _______ _______ _____ _____    ______ ____
ROOT
ATOM      5  O   UNL     1      15.282   5.067  -2.821  0.00  0.00    -0.275 OA
ATOM      8  N   UNL     1      14.618   4.230  -0.768  0.00  0.00    -0.287 N 
ATOM     13  C   UNL     1      13.541   3.501   1.220  0.00  0.00    +0.094 C 
ATOM     14  C   UNL     1      13.206   4.103  -1.095  0.00  0.00    +0.164 C 
ATOM     15  C   UNL     1      12.611   3.257   0.029  0.00  0.00    +0.056 C 
ATOM     16  C   UNL     1      14.905   3.712   0.570  0.00  0.00    +0.131 C 
ATOM     18  C   UNL     1      15.559   4.633  -1.701  0.00  0.00    +0.226 C 
ENDROOT
BRANCH  13   9
ATOM      6  O   UNL     1      11.222   3.706   2.888  0.00  0.00    -0.252 OA
ATOM      9  N   UNL     1      13.134   4.648   1.993  0.00  0.00    -0.295 N 
ATOM     11  N   UNL     1      11.841   5.908   3.415  0.00  0.00    -0.267 N 
ATOM     20  C   UNL     1      11.980   4.667   2.787  0.00  0.00    +0.304 C 
ATOM     31  H   UNL     1      13.676   5.503   1.913  0.00  0.00    +0.151 HD
ATOM     32  H   UNL     1      12.560   6.601   3.225  0.00  0.00    +0.156 HD
BRANCH  11  24
ATOM      2  F   UNL     1      12.302   6.235   6.144  0.00  0.00    -0.203 F 
ATOM      3  F   UNL     1       7.812   7.548   6.852  0.00  0.00    -0.205 F 
ATOM     24  C   UNL     1      10.815   6.326   4.295  0.00  0.00    +0.070 A 
ATOM     26  C   UNL     1      11.079   6.481   5.655  0.00  0.00    +0.147 A 
ATOM     27  C   UNL     1       9.537   6.584   3.797  0.00  0.00    +0.029 A 
ATOM     28  C   UNL     1      10.065   6.894   6.519  0.00  0.00    +0.078 A 
ATOM     29  C   UNL     1       8.523   6.997   4.661  0.00  0.00    +0.040 A 
ATOM     30  C   UNL     1       8.787   7.152   6.023  0.00  0.00    +0.126 A 
ENDBRANCH  11  24
ENDBRANCH  13   9
BRANCH  14  17
ATOM      4  O   UNL     1      12.887   6.288  -0.257  0.00  0.00    -0.274 OA
ATOM     10  N   UNL     1      11.716   5.734  -2.188  0.00  0.00    -0.294 N 
ATOM     17  C   UNL     1      12.594   5.471  -1.135  0.00  0.00    +0.236 C 
ATOM     22  C   UNL     1      11.053   7.022  -2.346  0.00  0.00    +0.132 C 
BRANCH  10  21
ATOM     21  C   UNL     1      11.398   4.738  -3.207  0.00  0.00    +0.202 C 
BRANCH  21  23
ATOM      7  O   UNL     1       9.091   4.546  -2.500  0.00  0.00    -0.274 OA
ATOM     12  N   UNL     1      10.319   2.628  -2.817  0.00  0.00    -0.328 N 
ATOM     23  C   UNL     1      10.140   3.995  -2.820  0.00  0.00    +0.228 C 
ATOM     33  H   UNL     1      11.201   2.196  -3.072  0.00  0.00    +0.145 HD
ATOM     34  H   UNL     1       9.561   2.004  -2.563  0.00  0.00    +0.145 HD
ENDBRANCH  21  23
ENDBRANCH  10  21
ENDBRANCH  14  17
BRANCH  18  19
ATOM     19  C   UNL     1      16.999   4.524  -1.263  0.00  0.00    +0.164 C 
BRANCH  19   1
ATOM      1  S   UNL     1      17.724   6.168  -1.353  0.00  0.00    -0.155 S 
ATOM     25  C   UNL     1      16.934   6.902   0.100  0.00  0.00    +0.085 C 
ENDBRANCH  19   1
ENDBRANCH  18  19
TORSDOF 7
ENDMDL
MODEL 4
REMARK VINA RESULT:      -5.7     20.593     23.441
REMARK  Name = 26763134
REMARK  9 active torsions:
REMARK  status: ('A' for Active; 'I' for Inactive)
REMARK    1  A    between atoms: S_1  and  C_19
REMARK    2  A    between atoms: S_1  and  C_25
REMARK    3  A    between atoms: N_9  and  C_13
REMARK    4  A    between atoms: N_10  and  C_21
REMARK    5  A    between atoms: N_10  and  C_22
REMARK    6  A    between atoms: N_11  and  C_24
REMARK    7  A    between atoms: C_14  and  C_17
REMARK    8  A    between atoms: C_18  and  C_19
REMARK    9  A    between atoms: C_21  and  C_23
REMARK                            x       y       z     vdW  Elec       q    Type
REMARK                         _______ _______ _______ _____ _____    ______ ____
ROOT
ATOM      5  O   UNL     1      -5.261 -14.160  16.602  0.00  0.00    -0.275 OA
ATOM      8  N   UNL     1      -3.898 -12.867  15.249  0.00  0.00    -0.287 N 
ATOM     13  C   UNL     1      -2.664 -11.206  14.083  0.00  0.00    +0.094 C 
ATOM     14  C   UNL     1      -3.889 -11.692  16.107  0.00  0.00    +0.164 C 
ATOM     15  C   UNL     1      -2.774 -10.805  15.556  0.00  0.00    +0.056 C 
ATOM     16  C   UNL     1      -3.025 -12.688  14.089  0.00  0.00    +0.131 C 
ATOM     18  C   UNL     1      -4.530 -14.045  15.616  0.00  0.00    +0.226 C 
ENDROOT
BRANCH  13   9
ATOM      6  O   UNL     1      -3.472 -11.835  11.408  0.00  0.00    -0.252 OA
ATOM      9  N   UNL     1      -3.558 -10.441  13.250  0.00  0.00    -0.295 N 
ATOM     11  N   UNL     1      -4.782  -9.887  11.386  0.00  0.00    -0.267 N 
ATOM     20  C   UNL     1      -3.904 -10.819  11.947  0.00  0.00    +0.304 C 
ATOM     31  H   UNL     1      -3.908  -9.555  13.603  0.00  0.00    +0.151 HD
ATOM     32  H   UNL     1      -5.044  -9.096  11.968  0.00  0.00    +0.156 HD
BRANCH  11  24
ATOM      2  F   UNL     1      -3.416  -8.920   9.158  0.00  0.00    -0.203 F 
ATOM      3  F   UNL     1      -7.063  -9.971   6.334  0.00  0.00    -0.205 F 
ATOM     24  C   UNL     1      -5.362  -9.907  10.096  0.00  0.00    +0.070 A 
ATOM     26  C   UNL     1      -4.651  -9.416   9.001  0.00  0.00    +0.147 A 
ATOM     27  C   UNL     1      -6.647 -10.420   9.920  0.00  0.00    +0.029 A 
ATOM     28  C   UNL     1      -5.225  -9.437   7.731  0.00  0.00    +0.078 A 
ATOM     29  C   UNL     1      -7.221 -10.442   8.649  0.00  0.00    +0.040 A 
ATOM     30  C   UNL     1      -6.511  -9.950   7.554  0.00  0.00    +0.126 A 
ENDBRANCH  11  24
ENDBRANCH  13   9
BRANCH  14  17
ATOM      4  O   UNL     1      -5.765 -10.898  14.912  0.00  0.00    -0.274 OA
ATOM     10  N   UNL     1      -5.777 -10.558  17.212  0.00  0.00    -0.294 N 
ATOM     17  C   UNL     1      -5.224 -11.016  16.015  0.00  0.00    +0.236 C 
ATOM     22  C   UNL     1      -7.069  -9.884  17.266  0.00  0.00    +0.132 C 
BRANCH  10  21
ATOM     21  C   UNL     1      -5.103 -10.720  18.497  0.00  0.00    +0.202 C 
BRANCH  21  23
ATOM      7  O   UNL     1      -6.392 -11.144  20.502  0.00  0.00    -0.274 OA
ATOM     12  N   UNL     1      -6.172 -12.823  18.947  0.00  0.00    -0.328 N 
ATOM     23  C   UNL     1      -5.964 -11.547  19.424  0.00  0.00    +0.228 C 
ATOM     33  H   UNL     1      -5.796 -13.138  18.059  0.00  0.00    +0.145 HD
ATOM     34  H   UNL     1      -6.722 -13.494  19.474  0.00  0.00    +0.145 HD
ENDBRANCH  21  23
ENDBRANCH  10  21
ENDBRANCH  14  17
BRANCH  18  19
ATOM     19  C   UNL     1      -4.281 -15.226  14.711  0.00  0.00    +0.164 C 
BRANCH  19   1
ATOM      1  S   UNL     1      -3.409 -16.475  15.669  0.00  0.00    -0.155 S 
ATOM     25  C   UNL     1      -1.813 -16.414  14.819  0.00  0.00    +0.085 C 
ENDBRANCH  19   1
ENDBRANCH  18  19
TORSDOF 7
ENDMDL
MODEL 5
REMARK VINA RESULT:      -5.6      2.432      2.904
REMARK  Name = 26763134
REMARK  9 active torsions:
REMARK  status: ('A' for Active; 'I' for Inactive)
REMARK    1  A    between atoms: S_1  and  C_19
REMARK    2  A    between atoms: S_1  and  C_25
REMARK    3  A    between atoms: N_9  and  C_13
REMARK    4  A    between atoms: N_10  and  C_21
REMARK    5  A    between atoms: N_10  and  C_22
REMARK    6  A    between atoms: N_11  and  C_24
REMARK    7  A    between atoms: C_14  and  C_17
REMARK    8  A    between atoms: C_18  and  C_19
REMARK    9  A    between atoms: C_21  and  C_23
REMARK                            x       y       z     vdW  Elec       q    Type
REMARK                         _______ _______ _______ _____ _____    ______ ____
ROOT
ATOM      5  O   UNL     1     -11.116  12.405  14.550  0.00  0.00    -0.275 OA
ATOM      8  N   UNL     1     -10.485  10.878  16.171  0.00  0.00    -0.287 N 
ATOM     13  C   UNL     1     -10.144   9.059  17.661  0.00  0.00    +0.094 C 
ATOM     14  C   UNL     1     -11.053   9.708  15.519  0.00  0.00    +0.164 C 
ATOM     15  C   UNL     1     -10.470   8.511  16.270  0.00  0.00    +0.056 C 
ATOM     16  C   UNL     1      -9.766  10.513  17.392  0.00  0.00    +0.131 C 
ATOM     18  C   UNL     1     -10.498  12.132  15.581  0.00  0.00    +0.226 C 
ENDROOT
BRANCH  13   9
ATOM      6  O   UNL     1     -11.191   6.661  18.826  0.00  0.00    -0.252 OA
ATOM      9  N   UNL     1     -11.269   8.956  18.556  0.00  0.00    -0.295 N 
ATOM     11  N   UNL     1     -12.824   7.948  19.915  0.00  0.00    -0.267 N 
ATOM     20  C   UNL     1     -11.719   7.739  19.084  0.00  0.00    +0.304 C 
ATOM     31  H   UNL     1     -11.797   9.797  18.769  0.00  0.00    +0.151 HD
ATOM     32  H   UNL     1     -13.141   8.908  20.025  0.00  0.00    +0.156 HD
BRANCH  11  24
ATOM      2  F   UNL     1     -15.555   7.592  19.493  0.00  0.00    -0.203 F 
ATOM      3  F   UNL     1     -15.716   4.153  22.739  0.00  0.00    -0.205 F 
ATOM     24  C   UNL     1     -13.565   6.980  20.635  0.00  0.00    +0.070 A 
ATOM     26  C   UNL     1     -14.930   6.827  20.399  0.00  0.00    +0.147 A 
ATOM     27  C   UNL     1     -12.925   6.179  21.581  0.00  0.00    +0.029 A 
ATOM     28  C   UNL     1     -15.657   5.872  21.110  0.00  0.00    +0.078 A 
ATOM     29  C   UNL     1     -13.652   5.224  22.291  0.00  0.00    +0.040 A 
ATOM     30  C   UNL     1     -15.019   5.070  22.056  0.00  0.00    +0.126 A 
ENDBRANCH  11  24
ENDBRANCH  13   9
BRANCH  14  17
ATOM      4  O   UNL     1     -13.047  10.207  16.681  0.00  0.00    -0.274 OA
ATOM     10  N   UNL     1     -13.283   9.293  14.556  0.00  0.00    -0.294 N 
ATOM     17  C   UNL     1     -12.545   9.761  15.645  0.00  0.00    +0.236 C 
ATOM     22  C   UNL     1     -14.740   9.289  14.546  0.00  0.00    +0.132 C 
BRANCH  10  21
ATOM     21  C   UNL     1     -12.648   8.775  13.348  0.00  0.00    +0.202 C 
BRANCH  21  23
ATOM      7  O   UNL     1     -13.727   6.607  13.314  0.00  0.00    -0.274 OA
ATOM     12  N   UNL     1     -11.435   6.705  13.472  0.00  0.00    -0.328 N 
ATOM     23  C   UNL     1     -12.690   7.264  13.357  0.00  0.00    +0.228 C 
ATOM     33  H   UNL     1     -10.593   7.269  13.520  0.00  0.00    +0.145 HD
ATOM     34  H   UNL     1     -11.313   5.699  13.505  0.00  0.00    +0.145 HD
ENDBRANCH  21  23
ENDBRANCH  10  21
ENDBRANCH  14  17
BRANCH  18  19
ATOM     19  C   UNL     1      -9.699  13.194  16.293  0.00  0.00    +0.164 C 
BRANCH  19   1
ATOM      1  S   UNL     1      -8.325  13.653  15.226  0.00  0.00    -0.155 S 
ATOM     25  C   UNL     1      -8.034  15.327  15.850  0.00  0.00    +0.085 C 
ENDBRANCH  19   1
ENDBRANCH  18  19
TORSDOF 7
ENDMDL
MODEL 6
REMARK VINA RESULT:      -5.5     18.925     21.526
REMARK  Name = 26763134
REMARK  9 active torsions:
REMARK  status: ('A' for Active; 'I' for Inactive)
REMARK    1  A    between atoms: S_1  and  C_19
REMARK    2  A    between atoms: S_1  and  C_25
REMARK    3  A    between atoms: N_9  and  C_13
REMARK    4  A    between atoms: N_10  and  C_21
REMARK    5  A    between atoms: N_10  and  C_22
REMARK    6  A    between atoms: N_11  and  C_24
REMARK    7  A    between atoms: C_14  and  C_17
REMARK    8  A    between atoms: C_18  and  C_19
REMARK    9  A    between atoms: C_21  and  C_23
REMARK                            x       y       z     vdW  Elec       q    Type
REMARK                         _______ _______ _______ _____ _____    ______ ____
ROOT
ATOM      5  O   UNL     1     -10.497 -11.971  18.952  0.00  0.00    -0.275 OA
ATOM      8  N   UNL     1      -8.189 -11.820  18.874  0.00  0.00    -0.287 N 
ATOM     13  C   UNL     1      -5.890 -11.343  18.513  0.00  0.00    +0.094 C 
ATOM     14  C   UNL     1      -8.135 -10.467  18.341  0.00  0.00    +0.164 C 
ATOM     15  C   UNL     1      -6.680 -10.032  18.506  0.00  0.00    +0.056 C 
ATOM     16  C   UNL     1      -6.850 -12.334  19.164  0.00  0.00    +0.131 C 
ATOM     18  C   UNL     1      -9.385 -12.433  19.213  0.00  0.00    +0.226 C 
ENDROOT
BRANCH  13   9
ATOM      6  O   UNL     1      -4.518  -9.765  16.555  0.00  0.00    -0.252 OA
ATOM      9  N   UNL     1      -5.519 -11.752  17.182  0.00  0.00    -0.295 N 
ATOM     11  N   UNL     1      -4.622 -11.581  15.073  0.00  0.00    -0.267 N 
ATOM     20  C   UNL     1      -4.846 -10.916  16.282  0.00  0.00    +0.304 C 
ATOM     31  H   UNL     1      -5.811 -12.670  16.859  0.00  0.00    +0.151 HD
ATOM     32  H   UNL     1      -4.959 -12.539  15.006  0.00  0.00    +0.156 HD
BRANCH  11  24
ATOM      2  F   UNL     1      -1.851 -11.319  14.947  0.00  0.00    -0.203 F 
ATOM      3  F   UNL     1      -2.104  -9.639  10.532  0.00  0.00    -0.205 F 
ATOM     24  C   UNL     1      -3.977 -11.086  13.915  0.00  0.00    +0.070 A 
ATOM     26  C   UNL     1      -2.588 -10.967  13.885  0.00  0.00    +0.147 A 
ATOM     27  C   UNL     1      -4.734 -10.715  12.803  0.00  0.00    +0.029 A 
ATOM     28  C   UNL     1      -1.955 -10.479  12.742  0.00  0.00    +0.078 A 
ATOM     29  C   UNL     1      -4.101 -10.227  11.660  0.00  0.00    +0.040 A 
ATOM     30  C   UNL     1      -2.711 -10.108  11.630  0.00  0.00    +0.126 A 
ENDBRANCH  11  24
ENDBRANCH  13   9
BRANCH  14  17
ATOM      4  O   UNL     1      -8.384 -11.543  16.253  0.00  0.00    -0.274 OA
ATOM     10  N   UNL     1      -9.069  -9.324  16.367  0.00  0.00    -0.294 N 
ATOM     17  C   UNL     1      -8.537 -10.502  16.897  0.00  0.00    +0.236 C 
ATOM     22  C   UNL     1      -9.501  -9.220  14.979  0.00  0.00    +0.132 C 
BRANCH  10  21
ATOM     21  C   UNL     1      -9.234  -8.113  17.165  0.00  0.00    +0.202 C 
BRANCH  21  23
ATOM      7  O   UNL     1     -11.599  -8.489  17.521  0.00  0.00    -0.274 OA
ATOM     12  N   UNL     1     -10.899  -6.422  16.798  0.00  0.00    -0.328 N 
ATOM     23  C   UNL     1     -10.693  -7.722  17.206  0.00  0.00    +0.228 C 
ATOM     33  H   UNL     1     -10.134  -5.810  16.529  0.00  0.00    +0.145 HD
ATOM     34  H   UNL     1     -11.833  -6.028  16.762  0.00  0.00    +0.145 HD
ENDBRANCH  21  23
ENDBRANCH  10  21
ENDBRANCH  14  17
BRANCH  18  19
ATOM     19  C   UNL     1      -9.258 -13.752  19.934  0.00  0.00    +0.164 C 
BRANCH  19   1
ATOM      1  S   UNL     1     -10.910 -14.445  20.102  0.00  0.00    -0.155 S 
ATOM     25  C   UNL     1     -11.182 -14.093  21.857  0.00  0.00    +0.085 C 
ENDBRANCH  19   1
ENDBRANCH  18  19
TORSDOF 7
ENDMDL
MODEL 7
REMARK VINA RESULT:      -5.5     20.499     23.369
REMARK  Name = 26763134
REMARK  9 active torsions:
REMARK  status: ('A' for Active; 'I' for Inactive)
REMARK    1  A    between atoms: S_1  and  C_19
REMARK    2  A    between atoms: S_1  and  C_25
REMARK    3  A    between atoms: N_9  and  C_13
REMARK    4  A    between atoms: N_10  and  C_21
REMARK    5  A    between atoms: N_10  and  C_22
REMARK    6  A    between atoms: N_11  and  C_24
REMARK    7  A    between atoms: C_14  and  C_17
REMARK    8  A    between atoms: C_18  and  C_19
REMARK    9  A    between atoms: C_21  and  C_23
REMARK                            x       y       z     vdW  Elec       q    Type
REMARK                         _______ _______ _______ _____ _____    ______ ____
ROOT
ATOM      5  O   UNL     1      -3.628 -13.981  14.945  0.00  0.00    -0.275 OA
ATOM      8  N   UNL     1      -3.291 -12.634  13.093  0.00  0.00    -0.287 N 
ATOM     13  C   UNL     1      -3.159 -10.951  11.422  0.00  0.00    +0.094 C 
ATOM     14  C   UNL     1      -3.506 -11.366  13.776  0.00  0.00    +0.164 C 
ATOM     15  C   UNL     1      -3.014 -10.300  12.799  0.00  0.00    +0.056 C 
ATOM     16  C   UNL     1      -2.903 -12.429  11.698  0.00  0.00    +0.131 C 
ATOM     18  C   UNL     1      -3.294 -13.845  13.767  0.00  0.00    +0.226 C 
ENDROOT
BRANCH  13   9
ATOM      6  O   UNL     1      -3.815  -9.213   9.242  0.00  0.00    -0.252 OA
ATOM      9  N   UNL     1      -4.468 -10.730  10.860  0.00  0.00    -0.295 N 
ATOM     11  N   UNL     1      -6.064  -9.848   9.461  0.00  0.00    -0.267 N 
ATOM     20  C   UNL     1      -4.705  -9.859   9.788  0.00  0.00    +0.304 C 
ATOM     31  H   UNL     1      -5.265 -11.182  11.297  0.00  0.00    +0.151 HD
ATOM     32  H   UNL     1      -6.674 -10.445  10.015  0.00  0.00    +0.156 HD
BRANCH  11  24
ATOM      2  F   UNL     1      -5.901 -10.598   6.782  0.00  0.00    -0.203 F 
ATOM      3  F   UNL     1      -8.586  -6.926   5.483  0.00  0.00    -0.205 F 
ATOM     24  C   UNL     1      -6.706  -9.104   8.444  0.00  0.00    +0.070 A 
ATOM     26  C   UNL     1      -6.605  -9.506   7.112  0.00  0.00    +0.147 A 
ATOM     27  C   UNL     1      -7.442  -7.966   8.775  0.00  0.00    +0.029 A 
ATOM     28  C   UNL     1      -7.240  -8.771   6.112  0.00  0.00    +0.078 A 
ATOM     29  C   UNL     1      -8.077  -7.230   7.775  0.00  0.00    +0.040 A 
ATOM     30  C   UNL     1      -7.976  -7.632   6.443  0.00  0.00    +0.126 A 
ENDBRANCH  11  24
ENDBRANCH  13   9
BRANCH  14  17
ATOM      4  O   UNL     1      -5.790 -11.557  13.208  0.00  0.00    -0.274 OA
ATOM     10  N   UNL     1      -5.311 -10.685  15.309  0.00  0.00    -0.294 N 
ATOM     17  C   UNL     1      -4.969 -11.215  14.063  0.00  0.00    +0.236 C 
ATOM     22  C   UNL     1      -6.695 -10.484  15.718  0.00  0.00    +0.132 C 
BRANCH  10  21
ATOM     21  C   UNL     1      -4.306 -10.294  16.294  0.00  0.00    +0.202 C 
BRANCH  21  23
ATOM      7  O   UNL     1      -4.854 -10.673  18.622  0.00  0.00    -0.274 OA
ATOM     12  N   UNL     1      -4.085 -12.435  17.360  0.00  0.00    -0.328 N 
ATOM     23  C   UNL     1      -4.468 -11.124  17.547  0.00  0.00    +0.228 C 
ATOM     33  H   UNL     1      -3.757 -12.781  16.464  0.00  0.00    +0.145 HD
ATOM     34  H   UNL     1      -4.128 -13.105  18.121  0.00  0.00    +0.145 HD
ENDBRANCH  21  23
ENDBRANCH  10  21
ENDBRANCH  14  17
BRANCH  18  19
ATOM     19  C   UNL     1      -2.862 -15.041  12.955  0.00  0.00    +0.164 C 
BRANCH  19   1
ATOM      1  S   UNL     1      -1.151 -15.401  13.379  0.00  0.00    -0.155 S 
ATOM     25  C   UNL     1      -1.434 -16.738  14.566  0.00  0.00    +0.085 C 
ENDBRANCH  19   1
ENDBRANCH  18  19
TORSDOF 7
ENDMDL
MODEL 8
REMARK VINA RESULT:      -5.5     30.584     32.713
REMARK  Name = 26763134
REMARK  9 active torsions:
REMARK  status: ('A' for Active; 'I' for Inactive)
REMARK    1  A    between atoms: S_1  and  C_19
REMARK    2  A    between atoms: S_1  and  C_25
REMARK    3  A    between atoms: N_9  and  C_13
REMARK    4  A    between atoms: N_10  and  C_21
REMARK    5  A    between atoms: N_10  and  C_22
REMARK    6  A    between atoms: N_11  and  C_24
REMARK    7  A    between atoms: C_14  and  C_17
REMARK    8  A    between atoms: C_18  and  C_19
REMARK    9  A    between atoms: C_21  and  C_23
REMARK                            x       y       z     vdW  Elec       q    Type
REMARK                         _______ _______ _______ _____ _____    ______ ____
ROOT
ATOM      5  O   UNL     1      23.449   7.396  20.315  0.00  0.00    -0.275 OA
ATOM      8  N   UNL     1      21.441   7.987  21.304  0.00  0.00    -0.287 N 
ATOM     13  C   UNL     1      19.368   8.179  22.448  0.00  0.00    +0.094 C 
ATOM     14  C   UNL     1      21.391   6.873  22.240  0.00  0.00    +0.164 C 
ATOM     15  C   UNL     1      20.287   7.237  23.231  0.00  0.00    +0.056 C 
ATOM     16  C   UNL     1      20.324   8.908  21.509  0.00  0.00    +0.131 C 
ATOM     18  C   UNL     1      22.524   8.197  20.464  0.00  0.00    +0.226 C 
ENDROOT
BRANCH  13   9
ATOM      6  O   UNL     1      16.920   9.245  21.414  0.00  0.00    -0.252 OA
ATOM      9  N   UNL     1      18.353   7.457  21.724  0.00  0.00    -0.295 N 
ATOM     11  N   UNL     1      16.384   7.114  20.589  0.00  0.00    -0.267 N 
ATOM     20  C   UNL     1      17.178   8.056  21.250  0.00  0.00    +0.304 C 
ATOM     31  H   UNL     1      18.464   6.456  21.602  0.00  0.00    +0.151 HD
ATOM     32  H   UNL     1      16.743   6.164  20.540  0.00  0.00    +0.156 HD
BRANCH  11  24
ATOM      2  F   UNL     1      14.042   7.338  22.084  0.00  0.00    -0.203 F 
ATOM      3  F   UNL     1      11.467   7.914  18.157  0.00  0.00    -0.205 F 
ATOM     24  C   UNL     1      15.127   7.318  19.971  0.00  0.00    +0.070 A 
ATOM     26  C   UNL     1      13.974   7.426  20.748  0.00  0.00    +0.147 A 
ATOM     27  C   UNL     1      15.045   7.411  18.582  0.00  0.00    +0.029 A 
ATOM     28  C   UNL     1      12.738   7.628  20.135  0.00  0.00    +0.078 A 
ATOM     29  C   UNL     1      13.808   7.613  17.969  0.00  0.00    +0.040 A 
ATOM     30  C   UNL     1      12.654   7.720  18.746  0.00  0.00    +0.126 A 
ENDBRANCH  11  24
ENDBRANCH  13   9
BRANCH  14  17
ATOM      4  O   UNL     1      20.221   5.668  20.580  0.00  0.00    -0.274 OA
ATOM     10  N   UNL     1      21.739   4.463  21.864  0.00  0.00    -0.294 N 
ATOM     17  C   UNL     1      21.059   5.622  21.484  0.00  0.00    +0.236 C 
ATOM     22  C   UNL     1      21.513   3.179  21.213  0.00  0.00    +0.132 C 
BRANCH  10  21
ATOM     21  C   UNL     1      22.726   4.453  22.940  0.00  0.00    +0.202 C 
BRANCH  21  23
ATOM      7  O   UNL     1      24.646   2.998  22.700  0.00  0.00    -0.274 OA
ATOM     12  N   UNL     1      24.610   4.989  21.551  0.00  0.00    -0.328 N 
ATOM     23  C   UNL     1      24.073   4.040  22.393  0.00  0.00    +0.228 C 
ATOM     33  H   UNL     1      24.123   5.850  21.323  0.00  0.00    +0.145 HD
ATOM     34  H   UNL     1      25.519   4.851  21.121  0.00  0.00    +0.145 HD
ENDBRANCH  21  23
ENDBRANCH  10  21
ENDBRANCH  14  17
BRANCH  18  19
ATOM     19  C   UNL     1      22.511   9.497  19.700  0.00  0.00    +0.164 C 
BRANCH  19   1
ATOM      1  S   UNL     1      24.213   9.900  19.278  0.00  0.00    -0.155 S 
ATOM     25  C   UNL     1      24.001  10.181  17.502  0.00  0.00    +0.085 C 
ENDBRANCH  19   1
ENDBRANCH  18  19
TORSDOF 7
ENDMDL
MODEL 9
REMARK VINA RESULT:      -5.4     21.285     23.278
REMARK  Name = 26763134
REMARK  9 active torsions:
REMARK  status: ('A' for Active; 'I' for Inactive)
REMARK    1  A    between atoms: S_1  and  C_19
REMARK    2  A    between atoms: S_1  and  C_25
REMARK    3  A    between atoms: N_9  and  C_13
REMARK    4  A    between atoms: N_10  and  C_21
REMARK    5  A    between atoms: N_10  and  C_22
REMARK    6  A    between atoms: N_11  and  C_24
REMARK    7  A    between atoms: C_14  and  C_17
REMARK    8  A    between atoms: C_18  and  C_19
REMARK    9  A    between atoms: C_21  and  C_23
REMARK                            x       y       z     vdW  Elec       q    Type
REMARK                         _______ _______ _______ _____ _____    ______ ____
ROOT
ATOM      5  O   UNL     1      -4.252 -12.475  10.476  0.00  0.00    -0.275 OA
ATOM      8  N   UNL     1      -3.098 -11.897  12.398  0.00  0.00    -0.287 N 
ATOM     13  C   UNL     1      -1.861 -11.731  14.419  0.00  0.00    +0.094 C 
ATOM     14  C   UNL     1      -2.376 -13.153  12.536  0.00  0.00    +0.164 C 
ATOM     15  C   UNL     1      -1.295 -12.878  13.579  0.00  0.00    +0.056 C 
ATOM     16  C   UNL     1      -2.688 -10.931  13.417  0.00  0.00    +0.131 C 
ATOM     18  C   UNL     1      -3.926 -11.636  11.317  0.00  0.00    +0.226 C 
ENDROOT
BRANCH  13   9
ATOM      6  O   UNL     1      -4.168 -10.456  15.538  0.00  0.00    -0.252 OA
ATOM      9  N   UNL     1      -2.665 -12.212  15.514  0.00  0.00    -0.295 N 
ATOM     11  N   UNL     1      -4.360 -12.229  17.065  0.00  0.00    -0.267 N 
ATOM     20  C   UNL     1      -3.783 -11.525  16.003  0.00  0.00    +0.304 C 
ATOM     31  H   UNL     1      -2.374 -13.059  15.992  0.00  0.00    +0.151 HD
ATOM     32  H   UNL     1      -3.917 -13.105  17.330  0.00  0.00    +0.156 HD
BRANCH  11  24
ATOM      2  F   UNL     1      -6.904 -13.154  16.402  0.00  0.00    -0.203 F 
ATOM      3  F   UNL     1      -8.815 -10.828  20.053  0.00  0.00    -0.205 F 
ATOM     24  C   UNL     1      -5.499 -11.873  17.825  0.00  0.00    +0.070 A 
ATOM     26  C   UNL     1      -6.758 -12.353  17.467  0.00  0.00    +0.147 A 
ATOM     27  C   UNL     1      -5.359 -11.039  18.936  0.00  0.00    +0.029 A 
ATOM     28  C   UNL     1      -7.878 -12.001  18.220  0.00  0.00    +0.078 A 
ATOM     29  C   UNL     1      -6.479 -10.687  19.688  0.00  0.00    +0.040 A 
ATOM     30  C   UNL     1      -7.740 -11.167  19.330  0.00  0.00    +0.126 A 
ENDBRANCH  11  24
ENDBRANCH  13   9
BRANCH  14  17
ATOM      4  O   UNL     1      -4.156 -13.934  13.877  0.00  0.00    -0.274 OA
ATOM     10  N   UNL     1      -3.223 -15.463  12.396  0.00  0.00    -0.294 N 
ATOM     17  C   UNL     1      -3.332 -14.210  13.001  0.00  0.00    +0.236 C 
ATOM     22  C   UNL     1      -4.089 -16.580  12.753  0.00  0.00    +0.132 C 
BRANCH  10  21
ATOM     21  C   UNL     1      -2.233 -15.747  11.360  0.00  0.00    +0.202 C 
BRANCH  21  23
ATOM      7  O   UNL     1      -0.834 -16.465  13.201  0.00  0.00    -0.274 OA
ATOM     12  N   UNL     1       0.028 -16.501  11.070  0.00  0.00    -0.328 N 
ATOM     23  C   UNL     1      -0.971 -16.285  11.994  0.00  0.00    +0.228 C 
ATOM     33  H   UNL     1      -0.104 -16.331  10.078  0.00  0.00    +0.145 HD
ATOM     34  H   UNL     1       0.938 -16.849  11.356  0.00  0.00    +0.145 HD
ENDBRANCH  21  23
ENDBRANCH  10  21
ENDBRANCH  14  17
BRANCH  18  19
ATOM     19  C   UNL     1      -4.442 -10.222  11.220  0.00  0.00    +0.164 C 
BRANCH  19   1
ATOM      1  S   UNL     1      -3.484  -9.375   9.955  0.00  0.00    -0.155 S 
ATOM     25  C   UNL     1      -4.685  -9.444   8.602  0.00  0.00    +0.085 C 
ENDBRANCH  19   1
ENDBRANCH  18  19
TORSDOF 7
ENDMDL
MODEL 10
REMARK VINA RESULT:      -5.3     19.177     22.303
REMARK  Name = 26763134
REMARK  9 active torsions:
REMARK  status: ('A' for Active; 'I' for Inactive)
REMARK    1  A    between atoms: S_1  and  C_19
REMARK    2  A    between atoms: S_1  and  C_25
REMARK    3  A    between atoms: N_9  and  C_13
REMARK    4  A    between atoms: N_10  and  C_21
REMARK    5  A    between atoms: N_10  and  C_22
REMARK    6  A    between atoms: N_11  and  C_24
REMARK    7  A    between atoms: C_14  and  C_17
REMARK    8  A    between atoms: C_18  and  C_19
REMARK    9  A    between atoms: C_21  and  C_23
REMARK                            x       y       z     vdW  Elec       q    Type
REMARK                         _______ _______ _______ _____ _____    ______ ____
ROOT
ATOM      5  O   UNL     1      -3.746 -13.422  10.391  0.00  0.00    -0.275 OA
ATOM      8  N   UNL     1      -4.275 -11.418   9.361  0.00  0.00    -0.287 N 
ATOM     13  C   UNL     1      -4.750  -9.188   8.694  0.00  0.00    +0.094 C 
ATOM     14  C   UNL     1      -3.656 -10.557  10.357  0.00  0.00    +0.164 C 
ATOM     15  C   UNL     1      -3.607  -9.173   9.712  0.00  0.00    +0.056 C 
ATOM     16  C   UNL     1      -4.801 -10.642   8.237  0.00  0.00    +0.131 C 
ATOM     18  C   UNL     1      -4.195 -12.800   9.426  0.00  0.00    +0.226 C 
ENDROOT
BRANCH  13   9
ATOM      6  O   UNL     1      -7.101  -8.339   7.296  0.00  0.00    -0.252 OA
ATOM      9  N   UNL     1      -5.997  -8.767   9.282  0.00  0.00    -0.295 N 
ATOM     11  N   UNL     1      -8.166  -8.013   9.362  0.00  0.00    -0.267 N 
ATOM     20  C   UNL     1      -7.104  -8.365   8.524  0.00  0.00    +0.304 C 
ATOM     31  H   UNL     1      -6.058  -8.703  10.293  0.00  0.00    +0.151 HD
ATOM     32  H   UNL     1      -8.006  -8.091  10.364  0.00  0.00    +0.156 HD
BRANCH  11  24
ATOM      2  F   UNL     1      -8.591  -5.402   8.485  0.00  0.00    -0.203 F 
ATOM      3  F   UNL     1     -13.211  -6.238   7.904  0.00  0.00    -0.205 F 
ATOM     24  C   UNL     1      -9.452  -7.557   8.989  0.00  0.00    +0.070 A 
ATOM     26  C   UNL     1      -9.631  -6.244   8.555  0.00  0.00    +0.147 A 
ATOM     27  C   UNL     1     -10.543  -8.424   9.059  0.00  0.00    +0.029 A 
ATOM     28  C   UNL     1     -10.900  -5.799   8.187  0.00  0.00    +0.078 A 
ATOM     29  C   UNL     1     -11.812  -7.979   8.691  0.00  0.00    +0.040 A 
ATOM     30  C   UNL     1     -11.992  -6.665   8.256  0.00  0.00    +0.126 A 
ENDBRANCH  11  24
ENDBRANCH  13   9
BRANCH  14  17
ATOM      4  O   UNL     1      -5.737 -10.556  11.475  0.00  0.00    -0.274 OA
ATOM     10  N   UNL     1      -3.837 -10.560  12.815  0.00  0.00    -0.294 N 
ATOM     17  C   UNL     1      -4.508 -10.557  11.591  0.00  0.00    +0.236 C 
ATOM     22  C   UNL     1      -4.542 -10.561  14.091  0.00  0.00    +0.132 C 
BRANCH  10  21
ATOM     21  C   UNL     1      -2.380 -10.563  12.907  0.00  0.00    +0.202 C 
BRANCH  21  23
ATOM      7  O   UNL     1      -1.475 -11.930  14.688  0.00  0.00    -0.274 OA
ATOM     12  N   UNL     1      -1.979 -12.919  12.676  0.00  0.00    -0.328 N 
ATOM     23  C   UNL     1      -1.911 -11.851  13.543  0.00  0.00    +0.228 C 
ATOM     33  H   UNL     1      -2.331 -12.827  11.728  0.00  0.00    +0.145 HD
ATOM     34  H   UNL     1      -1.683 -13.846  12.964  0.00  0.00    +0.145 HD
ENDBRANCH  21  23
ENDBRANCH  10  21
ENDBRANCH  14  17
BRANCH  18  19
ATOM     19  C   UNL     1      -4.715 -13.540   8.219  0.00  0.00    +0.164 C 
BRANCH  19   1
ATOM      1  S   UNL     1      -6.267 -14.322   8.683  0.00  0.00    -0.155 S 
ATOM     25  C   UNL     1      -6.164 -15.793   7.634  0.00  0.00    +0.085 C 
ENDBRANCH  19   1
ENDBRANCH  18  19
TORSDOF 7
ENDMDL
