MODEL 1
REMARK VINA RESULT:      -7.8      0.000      0.000
REMARK  Name = 40780140
REMARK  7 active torsions:
REMARK  status: ('A' for Active; 'I' for Inactive)
REMARK    1  A    between atoms: N_3  and  C_24
REMARK    2  A    between atoms: N_4  and  C_16
REMARK    3  A    between atoms: N_6  and  C_26
REMARK    4  A    between atoms: C_9  and  C_15
REMARK    5  A    between atoms: C_10  and  C_16
REMARK    6  A    between atoms: C_18  and  C_19
REMARK    7  A    between atoms: C_29  and  C_32
REMARK                            x       y       z     vdW  Elec       q    Type
REMARK                         _______ _______ _______ _____ _____    ______ ____
ROOT
ATOM      2  N   UNL     1      12.228  11.395  24.413  0.00  0.00    -0.297 NA
ATOM      8  C   UNL     1      11.286  12.185  22.117  0.00  0.00    +0.002 C 
ATOM      9  C   UNL     1      11.159  10.643  22.255  0.00  0.00    +0.055 C 
ATOM     10  C   UNL     1      13.211  12.282  23.739  0.00  0.00    +0.074 C 
ATOM     11  C   UNL     1      12.764  12.593  22.294  0.00  0.00    +0.024 C 
ATOM     12  C   UNL     1      11.918  10.229  23.548  0.00  0.00    +0.094 C 
ATOM     13  C   UNL     1      10.502  12.804  23.294  0.00  0.00    +0.019 C 
ATOM     14  C   UNL     1      10.979  12.168  24.612  0.00  0.00    +0.085 C 
ENDROOT
BRANCH   9  15
ATOM      3  N   UNL     1      11.205   8.462  20.956  0.00  0.00    -0.271 N 
ATOM      5  N   UNL     1      11.636   7.881  19.824  0.00  0.00    -0.176 NA
ATOM     15  C   UNL     1      11.541   9.781  21.060  0.00  0.00    +0.044 A 
ATOM     17  C   UNL     1      12.239  10.082  19.917  0.00  0.00    +0.048 A 
ATOM     19  C   UNL     1      12.267   8.874  19.193  0.00  0.00    +0.066 A 
ATOM     24  C   UNL     1      10.464   7.677  21.915  0.00  0.00    +0.172 C 
BRANCH  19  18
ATOM     18  C   UNL     1      12.908   8.622  17.847  0.00  0.00    +0.040 C 
ATOM     20  C   UNL     1      12.010   9.057  16.675  0.00  0.00    +0.010 C 
ATOM     21  C   UNL     1      14.253   9.348  17.632  0.00  0.00    +0.010 C 
ATOM     22  C   UNL     1      12.974   9.585  15.624  0.00  0.00    +0.001 C 
ATOM     23  C   UNL     1      14.033  10.289  16.454  0.00  0.00    +0.001 C 
ENDBRANCH  19  18
ENDBRANCH   9  15
BRANCH  10  16
ATOM     16  C   UNL     1      14.634  11.719  23.786  0.00  0.00    +0.124 C 
BRANCH  16   4
ATOM      1  O   UNL     1      16.362  10.619  21.784  0.00  0.00    -0.253 OA
ATOM      4  N   UNL     1      14.661  10.363  23.332  0.00  0.00    -0.298 N 
ATOM      6  N   UNL     1      15.340   8.531  22.104  0.00  0.00    -0.269 N 
ATOM     25  C   UNL     1      15.541   9.893  22.340  0.00  0.00    +0.304 C 
ATOM     33  H   UNL     1      13.979   9.715  23.713  0.00  0.00    +0.150 HD
ATOM     34  H   UNL     1      14.616   8.074  22.654  0.00  0.00    +0.156 HD
BRANCH   6  26
ATOM     26  C   UNL     1      16.023   7.697  21.187  0.00  0.00    +0.036 A 
ATOM     27  C   UNL     1      17.391   7.467  21.339  0.00  0.00    +0.042 A 
ATOM     28  C   UNL     1      15.330   7.107  20.132  0.00  0.00    +0.023 A 
ATOM     29  C   UNL     1      18.065   6.645  20.436  0.00  0.00    +0.054 A 
ATOM     30  C   UNL     1      16.004   6.285  19.228  0.00  0.00    +0.003 A 
ATOM     31  C   UNL     1      17.371   6.054  19.380  0.00  0.00    +0.019 A 
BRANCH  29  32
ATOM      7  N   UNL     1      20.603   6.216  20.715  0.00  0.00    -0.191 NA
ATOM     32  C   UNL     1      19.465   6.409  20.591  0.00  0.00    +0.099 C 
ENDBRANCH  29  32
ENDBRANCH   6  26
ENDBRANCH  16   4
ENDBRANCH  10  16
TORSDOF 6
ENDMDL
MODEL 2
REMARK VINA RESULT:      -7.7     26.253     29.716
REMARK  Name = 40780140
REMARK  7 active torsions:
REMARK  status: ('A' for Active; 'I' for Inactive)
REMARK    1  A    between atoms: N_3  and  C_24
REMARK    2  A    between atoms: N_4  and  C_16
REMARK    3  A    between atoms: N_6  and  C_26
REMARK    4  A    between atoms: C_9  and  C_15
REMARK    5  A    between atoms: C_10  and  C_16
REMARK    6  A    between atoms: C_18  and  C_19
REMARK    7  A    between atoms: C_29  and  C_32
REMARK                            x       y       z     vdW  Elec       q    Type
REMARK                         _______ _______ _______ _____ _____    ______ ____
ROOT
ATOM      2  N   UNL     1      -6.315 -10.581  17.470  0.00  0.00    -0.297 NA
ATOM      8  C   UNL     1      -4.109 -11.937  17.186  0.00  0.00    +0.002 C 
ATOM      9  C   UNL     1      -4.018 -10.584  16.427  0.00  0.00    +0.055 C 
ATOM     10  C   UNL     1      -6.624 -11.972  17.046  0.00  0.00    +0.074 C 
ATOM     11  C   UNL     1      -5.331 -12.728  16.673  0.00  0.00    +0.024 C 
ATOM     12  C   UNL     1      -5.429  -9.930  16.474  0.00  0.00    +0.094 C 
ATOM     13  C   UNL     1      -4.379 -11.598  18.668  0.00  0.00    +0.019 C 
ATOM     14  C   UNL     1      -5.588 -10.650  18.761  0.00  0.00    +0.085 C 
ENDROOT
BRANCH   9  15
ATOM      3  N   UNL     1      -2.095 -10.434  14.776  0.00  0.00    -0.271 N 
ATOM      5  N   UNL     1      -1.779 -10.465  13.471  0.00  0.00    -0.176 NA
ATOM     15  C   UNL     1      -3.429 -10.586  15.024  0.00  0.00    +0.044 A 
ATOM     17  C   UNL     1      -4.025 -10.728  13.795  0.00  0.00    +0.048 A 
ATOM     19  C   UNL     1      -2.961 -10.645  12.876  0.00  0.00    +0.066 A 
ATOM     24  C   UNL     1      -1.047 -10.248  15.752  0.00  0.00    +0.172 C 
BRANCH  19  18
ATOM     18  C   UNL     1      -3.037 -10.738  11.369  0.00  0.00    +0.040 C 
ATOM     20  C   UNL     1      -4.466 -11.012  10.866  0.00  0.00    +0.010 C 
ATOM     21  C   UNL     1      -2.570  -9.470  10.624  0.00  0.00    +0.010 C 
ATOM     22  C   UNL     1      -4.574 -10.235   9.563  0.00  0.00    +0.001 C 
ATOM     23  C   UNL     1      -3.786  -8.970   9.854  0.00  0.00    +0.001 C 
ENDBRANCH  19  18
ENDBRANCH   9  15
BRANCH  10  16
ATOM     16  C   UNL     1      -7.658 -12.021  15.919  0.00  0.00    +0.124 C 
BRANCH  16   4
ATOM      1  O   UNL     1      -8.397  -9.547  14.677  0.00  0.00    -0.253 OA
ATOM      4  N   UNL     1      -8.795 -11.212  16.233  0.00  0.00    -0.298 N 
ATOM      6  N   UNL     1     -10.263  -9.437  16.096  0.00  0.00    -0.269 N 
ATOM     25  C   UNL     1      -9.096 -10.004  15.578  0.00  0.00    +0.304 C 
ATOM     33  H   UNL     1      -9.393 -11.503  17.000  0.00  0.00    +0.150 HD
ATOM     34  H   UNL     1     -10.725  -9.947  16.845  0.00  0.00    +0.156 HD
BRANCH   6  26
ATOM     26  C   UNL     1     -10.891  -8.231  15.704  0.00  0.00    +0.036 A 
ATOM     27  C   UNL     1     -11.627  -8.179  14.520  0.00  0.00    +0.042 A 
ATOM     28  C   UNL     1     -10.772  -7.093  16.501  0.00  0.00    +0.023 A 
ATOM     29  C   UNL     1     -12.246  -6.991  14.134  0.00  0.00    +0.054 A 
ATOM     30  C   UNL     1     -11.391  -5.903  16.115  0.00  0.00    +0.003 A 
ATOM     31  C   UNL     1     -12.128  -5.852  14.932  0.00  0.00    +0.019 A 
BRANCH  29  32
ATOM      7  N   UNL     1     -13.611  -6.893  11.936  0.00  0.00    -0.191 NA
ATOM     32  C   UNL     1     -13.000  -6.937  12.922  0.00  0.00    +0.099 C 
ENDBRANCH  29  32
ENDBRANCH   6  26
ENDBRANCH  16   4
ENDBRANCH  10  16
TORSDOF 6
ENDMDL
MODEL 3
REMARK VINA RESULT:      -7.6     14.740     19.534
REMARK  Name = 40780140
REMARK  7 active torsions:
REMARK  status: ('A' for Active; 'I' for Inactive)
REMARK    1  A    between atoms: N_3  and  C_24
REMARK    2  A    between atoms: N_4  and  C_16
REMARK    3  A    between atoms: N_6  and  C_26
REMARK    4  A    between atoms: C_9  and  C_15
REMARK    5  A    between atoms: C_10  and  C_16
REMARK    6  A    between atoms: C_18  and  C_19
REMARK    7  A    between atoms: C_29  and  C_32
REMARK                            x       y       z     vdW  Elec       q    Type
REMARK                         _______ _______ _______ _____ _____    ______ ____
ROOT
ATOM      2  N   UNL     1      12.399   5.560  -0.409  0.00  0.00    -0.297 NA
ATOM      8  C   UNL     1       9.811   5.401  -0.652  0.00  0.00    +0.002 C 
ATOM      9  C   UNL     1      10.246   6.876  -0.431  0.00  0.00    +0.055 C 
ATOM     10  C   UNL     1      11.868   4.506   0.494  0.00  0.00    +0.074 C 
ATOM     11  C   UNL     1      10.324   4.536   0.518  0.00  0.00    +0.024 C 
ATOM     12  C   UNL     1      11.766   6.865  -0.096  0.00  0.00    +0.094 C 
ATOM     13  C   UNL     1      10.531   4.910  -1.927  0.00  0.00    +0.019 C 
ATOM     14  C   UNL     1      12.038   5.193  -1.799  0.00  0.00    +0.085 C 
ENDROOT
BRANCH   9  15
ATOM      3  N   UNL     1       8.630   8.744   0.152  0.00  0.00    -0.271 N 
ATOM      5  N   UNL     1       8.011   9.367   1.169  0.00  0.00    -0.176 NA
ATOM     15  C   UNL     1       9.445   7.723   0.547  0.00  0.00    +0.044 A 
ATOM     17  C   UNL     1       9.351   7.675   1.915  0.00  0.00    +0.048 A 
ATOM     19  C   UNL     1       8.455   8.710   2.244  0.00  0.00    +0.066 A 
ATOM     24  C   UNL     1       8.391   9.191  -1.200  0.00  0.00    +0.172 C 
BRANCH  19  18
ATOM     18  C   UNL     1       7.981   9.115   3.621  0.00  0.00    +0.040 C 
ATOM     20  C   UNL     1       8.901  10.159   4.279  0.00  0.00    +0.010 C 
ATOM     21  C   UNL     1       6.565   9.726   3.658  0.00  0.00    +0.010 C 
ATOM     22  C   UNL     1       7.964  11.056   5.071  0.00  0.00    +0.001 C 
ATOM     23  C   UNL     1       6.740  11.148   4.177  0.00  0.00    +0.001 C 
ENDBRANCH  19  18
ENDBRANCH   9  15
BRANCH  10  16
ATOM     16  C   UNL     1      12.462   4.591   1.902  0.00  0.00    +0.124 C 
BRANCH  16   4
ATOM      1  O   UNL     1      12.009   6.304   4.153  0.00  0.00    -0.253 OA
ATOM      4  N   UNL     1      11.444   4.446   2.896  0.00  0.00    -0.298 N 
ATOM      6  N   UNL     1      10.208   4.937   4.781  0.00  0.00    -0.269 N 
ATOM     25  C   UNL     1      11.281   5.329   3.977  0.00  0.00    +0.304 C 
ATOM     33  H   UNL     1      10.833   3.636   2.842  0.00  0.00    +0.150 HD
ATOM     34  H   UNL     1       9.704   4.102   4.494  0.00  0.00    +0.156 HD
BRANCH   6  26
ATOM     26  C   UNL     1       9.727   5.563   5.956  0.00  0.00    +0.036 A 
ATOM     27  C   UNL     1       9.982   4.993   7.204  0.00  0.00    +0.042 A 
ATOM     28  C   UNL     1       8.999   6.748   5.866  0.00  0.00    +0.023 A 
ATOM     29  C   UNL     1       9.510   5.611   8.362  0.00  0.00    +0.054 A 
ATOM     30  C   UNL     1       8.526   7.366   7.025  0.00  0.00    +0.003 A 
ATOM     31  C   UNL     1       8.781   6.797   8.272  0.00  0.00    +0.019 A 
BRANCH  29  32
ATOM      7  N   UNL     1       9.982   4.555  10.678  0.00  0.00    -0.191 NA
ATOM     32  C   UNL     1       9.769   5.028   9.640  0.00  0.00    +0.099 C 
ENDBRANCH  29  32
ENDBRANCH   6  26
ENDBRANCH  16   4
ENDBRANCH  10  16
TORSDOF 6
ENDMDL
MODEL 4
REMARK VINA RESULT:      -7.4     28.577     31.464
REMARK  Name = 40780140
REMARK  7 active torsions:
REMARK  status: ('A' for Active; 'I' for Inactive)
REMARK    1  A    between atoms: N_3  and  C_24
REMARK    2  A    between atoms: N_4  and  C_16
REMARK    3  A    between atoms: N_6  and  C_26
REMARK    4  A    between atoms: C_9  and  C_15
REMARK    5  A    between atoms: C_10  and  C_16
REMARK    6  A    between atoms: C_18  and  C_19
REMARK    7  A    between atoms: C_29  and  C_32
REMARK                            x       y       z     vdW  Elec       q    Type
REMARK                         _______ _______ _______ _____ _____    ______ ____
ROOT
ATOM      2  N   UNL     1      -5.888 -12.029  17.178  0.00  0.00    -0.297 NA
ATOM      8  C   UNL     1      -6.392 -11.023  19.527  0.00  0.00    +0.002 C 
ATOM      9  C   UNL     1      -7.477 -12.066  19.137  0.00  0.00    +0.055 C 
ATOM     10  C   UNL     1      -5.830 -10.545  17.118  0.00  0.00    +0.074 C 
ATOM     11  C   UNL     1      -6.326  -9.927  18.443  0.00  0.00    +0.024 C 
ATOM     12  C   UNL     1      -7.223 -12.467  17.656  0.00  0.00    +0.094 C 
ATOM     13  C   UNL     1      -5.036 -11.762  19.506  0.00  0.00    +0.019 C 
ATOM     14  C   UNL     1      -4.873 -12.485  18.158  0.00  0.00    +0.085 C 
ENDROOT
BRANCH   9  15
ATOM      3  N   UNL     1      -9.777 -12.526  20.105  0.00  0.00    -0.271 N 
ATOM      5  N   UNL     1     -11.023 -12.038  20.225  0.00  0.00    -0.176 NA
ATOM     15  C   UNL     1      -8.935 -11.717  19.400  0.00  0.00    +0.044 A 
ATOM     17  C   UNL     1      -9.681 -10.625  19.035  0.00  0.00    +0.048 A 
ATOM     19  C   UNL     1     -10.959 -10.876  19.570  0.00  0.00    +0.066 A 
ATOM     24  C   UNL     1      -9.459 -13.802  20.702  0.00  0.00    +0.172 C 
BRANCH  19  18
ATOM     18  C   UNL     1     -12.187  -9.998  19.474  0.00  0.00    +0.040 C 
ATOM     20  C   UNL     1     -13.336 -10.674  18.705  0.00  0.00    +0.010 C 
ATOM     21  C   UNL     1     -12.784  -9.580  20.833  0.00  0.00    +0.010 C 
ATOM     22  C   UNL     1     -14.600 -10.201  19.405  0.00  0.00    +0.001 C 
ATOM     23  C   UNL     1     -14.190 -10.167  20.866  0.00  0.00    +0.001 C 
ENDBRANCH  19  18
ENDBRANCH   9  15
BRANCH  10  16
ATOM     16  C   UNL     1      -6.579  -9.980  15.909  0.00  0.00    +0.124 C 
BRANCH  16   4
ATOM      1  O   UNL     1      -9.164  -9.547  14.752  0.00  0.00    -0.253 OA
ATOM      4  N   UNL     1      -7.546  -9.009  16.316  0.00  0.00    -0.298 N 
ATOM      6  N   UNL     1      -9.529  -7.828  16.308  0.00  0.00    -0.269 N 
ATOM     25  C   UNL     1      -8.800  -8.853  15.698  0.00  0.00    +0.304 C 
ATOM     33  H   UNL     1      -7.297  -8.367  17.062  0.00  0.00    +0.150 HD
ATOM     34  H   UNL     1      -9.081  -7.349  17.084  0.00  0.00    +0.156 HD
BRANCH   6  26
ATOM     26  C   UNL     1     -10.827  -7.370  15.977  0.00  0.00    +0.036 A 
ATOM     27  C   UNL     1     -10.986  -6.312  15.080  0.00  0.00    +0.042 A 
ATOM     28  C   UNL     1     -11.946  -7.974  16.547  0.00  0.00    +0.023 A 
ATOM     29  C   UNL     1     -12.264  -5.861  14.754  0.00  0.00    +0.054 A 
ATOM     30  C   UNL     1     -13.225  -7.523  16.221  0.00  0.00    +0.003 A 
ATOM     31  C   UNL     1     -13.384  -6.466  15.325  0.00  0.00    +0.019 A 
BRANCH  29  32
ATOM      7  N   UNL     1     -12.562  -3.898  13.091  0.00  0.00    -0.191 NA
ATOM     32  C   UNL     1     -12.428  -4.778  13.837  0.00  0.00    +0.099 C 
ENDBRANCH  29  32
ENDBRANCH   6  26
ENDBRANCH  16   4
ENDBRANCH  10  16
TORSDOF 6
ENDMDL
MODEL 5
REMARK VINA RESULT:      -7.4     26.601     29.938
REMARK  Name = 40780140
REMARK  7 active torsions:
REMARK  status: ('A' for Active; 'I' for Inactive)
REMARK    1  A    between atoms: N_3  and  C_24
REMARK    2  A    between atoms: N_4  and  C_16
REMARK    3  A    between atoms: N_6  and  C_26
REMARK    4  A    between atoms: C_9  and  C_15
REMARK    5  A    between atoms: C_10  and  C_16
REMARK    6  A    between atoms: C_18  and  C_19
REMARK    7  A    between atoms: C_29  and  C_32
REMARK                            x       y       z     vdW  Elec       q    Type
REMARK                         _______ _______ _______ _____ _____    ______ ____
ROOT
ATOM      2  N   UNL     1      -5.968 -10.838   9.567  0.00  0.00    -0.297 NA
ATOM      8  C   UNL     1      -4.398  -8.989  10.513  0.00  0.00    +0.002 C 
ATOM      9  C   UNL     1      -3.952 -10.390  11.015  0.00  0.00    +0.055 C 
ATOM     10  C   UNL     1      -6.776  -9.746  10.170  0.00  0.00    +0.074 C 
ATOM     11  C   UNL     1      -5.867  -8.746  10.917  0.00  0.00    +0.024 C 
ATOM     12  C   UNL     1      -5.045 -11.408  10.578  0.00  0.00    +0.094 C 
ATOM     13  C   UNL     1      -4.354  -9.033   8.970  0.00  0.00    +0.019 C 
ATOM     14  C   UNL     1      -5.154 -10.251   8.475  0.00  0.00    +0.085 C 
ENDROOT
BRANCH   9  15
ATOM      3  N   UNL     1      -2.312 -10.319  12.951  0.00  0.00    -0.271 N 
ATOM      5  N   UNL     1      -2.187 -10.506  14.275  0.00  0.00    -0.176 NA
ATOM     15  C   UNL     1      -3.574 -10.541  12.481  0.00  0.00    +0.044 A 
ATOM     17  C   UNL     1      -4.325 -10.897  13.574  0.00  0.00    +0.048 A 
ATOM     19  C   UNL     1      -3.418 -10.859  14.651  0.00  0.00    +0.066 A 
ATOM     24  C   UNL     1      -1.157  -9.921  12.182  0.00  0.00    +0.172 C 
BRANCH  19  18
ATOM     18  C   UNL     1      -3.703 -11.163  16.105  0.00  0.00    +0.040 C 
ATOM     20  C   UNL     1      -4.531 -10.060  16.787  0.00  0.00    +0.010 C 
ATOM     21  C   UNL     1      -4.479 -12.475  16.345  0.00  0.00    +0.010 C 
ATOM     22  C   UNL     1      -5.433 -10.800  17.763  0.00  0.00    +0.001 C 
ATOM     23  C   UNL     1      -5.790 -12.066  17.005  0.00  0.00    +0.001 C 
ENDBRANCH  19  18
ENDBRANCH   9  15
BRANCH  10  16
ATOM     16  C   UNL     1      -7.896 -10.277  11.067  0.00  0.00    +0.124 C 
BRANCH  16   4
ATOM      1  O   UNL     1      -9.574 -10.858  13.316  0.00  0.00    -0.253 OA
ATOM      4  N   UNL     1      -7.929  -9.576  12.313  0.00  0.00    -0.298 N 
ATOM      6  N   UNL     1      -8.593  -9.060  14.462  0.00  0.00    -0.269 N 
ATOM     25  C   UNL     1      -8.783  -9.919  13.377  0.00  0.00    +0.304 C 
ATOM     33  H   UNL     1      -7.336  -8.759  12.419  0.00  0.00    +0.150 HD
ATOM     34  H   UNL     1      -7.894  -8.330  14.350  0.00  0.00    +0.156 HD
BRANCH   6  26
ATOM     26  C   UNL     1      -9.258  -9.078  15.711  0.00  0.00    +0.036 A 
ATOM     27  C   UNL     1      -8.808  -9.921  16.729  0.00  0.00    +0.042 A 
ATOM     28  C   UNL     1     -10.362  -8.255  15.926  0.00  0.00    +0.023 A 
ATOM     29  C   UNL     1      -9.463  -9.938  17.960  0.00  0.00    +0.054 A 
ATOM     30  C   UNL     1     -11.017  -8.272  17.157  0.00  0.00    +0.003 A 
ATOM     31  C   UNL     1     -10.568  -9.114  18.174  0.00  0.00    +0.019 A 
BRANCH  29  32
ATOM      7  N   UNL     1      -8.631 -11.501  19.850  0.00  0.00    -0.191 NA
ATOM     32  C   UNL     1      -9.004 -10.801  19.002  0.00  0.00    +0.099 C 
ENDBRANCH  29  32
ENDBRANCH   6  26
ENDBRANCH  16   4
ENDBRANCH  10  16
TORSDOF 6
ENDMDL
MODEL 6
REMARK VINA RESULT:      -7.2     14.409     19.396
REMARK  Name = 40780140
REMARK  7 active torsions:
REMARK  status: ('A' for Active; 'I' for Inactive)
REMARK    1  A    between atoms: N_3  and  C_24
REMARK    2  A    between atoms: N_4  and  C_16
REMARK    3  A    between atoms: N_6  and  C_26
REMARK    4  A    between atoms: C_9  and  C_15
REMARK    5  A    between atoms: C_10  and  C_16
REMARK    6  A    between atoms: C_18  and  C_19
REMARK    7  A    between atoms: C_29  and  C_32
REMARK                            x       y       z     vdW  Elec       q    Type
REMARK                         _______ _______ _______ _____ _____    ______ ____
ROOT
ATOM      2  N   UNL     1      14.566   3.952  -0.304  0.00  0.00    -0.297 NA
ATOM      8  C   UNL     1      14.065   6.502  -0.484  0.00  0.00    +0.002 C 
ATOM      9  C   UNL     1      15.300   6.253   0.425  0.00  0.00    +0.055 C 
ATOM     10  C   UNL     1      13.129   4.208  -0.027  0.00  0.00    +0.074 C 
ATOM     11  C   UNL     1      12.855   5.724   0.076  0.00  0.00    +0.024 C 
ATOM     12  C   UNL     1      15.412   4.717   0.645  0.00  0.00    +0.094 C 
ATOM     13  C   UNL     1      14.397   5.892  -1.863  0.00  0.00    +0.019 C 
ATOM     14  C   UNL     1      14.858   4.435  -1.676  0.00  0.00    +0.085 C 
ENDROOT
BRANCH   9  15
ATOM      3  N   UNL     1      16.484   7.795   2.058  0.00  0.00    -0.271 N 
ATOM      5  N   UNL     1      16.377   8.402   3.252  0.00  0.00    -0.176 NA
ATOM     15  C   UNL     1      15.402   7.032   1.729  0.00  0.00    +0.044 A 
ATOM     17  C   UNL     1      14.526   7.150   2.780  0.00  0.00    +0.048 A 
ATOM     19  C   UNL     1      15.179   8.005   3.688  0.00  0.00    +0.066 A 
ATOM     24  C   UNL     1      17.679   7.992   1.270  0.00  0.00    +0.172 C 
BRANCH  19  18
ATOM     18  C   UNL     1      14.672   8.483   5.030  0.00  0.00    +0.040 C 
ATOM     20  C   UNL     1      13.140   8.620   5.067  0.00  0.00    +0.010 C 
ATOM     21  C   UNL     1      15.037   7.566   6.216  0.00  0.00    +0.010 C 
ATOM     22  C   UNL     1      12.749   8.214   6.479  0.00  0.00    +0.001 C 
ATOM     23  C   UNL     1      13.710   7.081   6.788  0.00  0.00    +0.001 C 
ENDBRANCH  19  18
ENDBRANCH   9  15
BRANCH  10  16
ATOM     16  C   UNL     1      12.631   3.454   1.209  0.00  0.00    +0.124 C 
BRANCH  16   4
ATOM      1  O   UNL     1      10.246   3.986   2.705  0.00  0.00    -0.253 OA
ATOM      4  N   UNL     1      12.502   4.336   2.327  0.00  0.00    -0.298 N 
ATOM      6  N   UNL     1      11.472   5.458   4.061  0.00  0.00    -0.269 N 
ATOM     25  C   UNL     1      11.294   4.548   3.016  0.00  0.00    +0.304 C 
ATOM     33  H   UNL     1      13.316   4.871   2.612  0.00  0.00    +0.150 HD
ATOM     34  H   UNL     1      12.409   5.833   4.185  0.00  0.00    +0.156 HD
BRANCH   6  26
ATOM     26  C   UNL     1      10.502   5.927   4.979  0.00  0.00    +0.036 A 
ATOM     27  C   UNL     1      10.439   5.388   6.264  0.00  0.00    +0.042 A 
ATOM     28  C   UNL     1       9.610   6.928   4.599  0.00  0.00    +0.023 A 
ATOM     29  C   UNL     1       9.485   5.851   7.169  0.00  0.00    +0.054 A 
ATOM     30  C   UNL     1       8.654   7.392   5.504  0.00  0.00    +0.003 A 
ATOM     31  C   UNL     1       8.592   6.853   6.788  0.00  0.00    +0.019 A 
BRANCH  29  32
ATOM      7  N   UNL     1       9.364   4.850   9.554  0.00  0.00    -0.191 NA
ATOM     32  C   UNL     1       9.419   5.299   8.485  0.00  0.00    +0.099 C 
ENDBRANCH  29  32
ENDBRANCH   6  26
ENDBRANCH  16   4
ENDBRANCH  10  16
TORSDOF 6
ENDMDL
MODEL 7
REMARK VINA RESULT:      -6.9     26.792     30.260
REMARK  Name = 40780140
REMARK  7 active torsions:
REMARK  status: ('A' for Active; 'I' for Inactive)
REMARK    1  A    between atoms: N_3  and  C_24
REMARK    2  A    between atoms: N_4  and  C_16
REMARK    3  A    between atoms: N_6  and  C_26
REMARK    4  A    between atoms: C_9  and  C_15
REMARK    5  A    between atoms: C_10  and  C_16
REMARK    6  A    between atoms: C_18  and  C_19
REMARK    7  A    between atoms: C_29  and  C_32
REMARK                            x       y       z     vdW  Elec       q    Type
REMARK                         _______ _______ _______ _____ _____    ______ ____
ROOT
ATOM      2  N   UNL     1      -4.997 -12.236  11.315  0.00  0.00    -0.297 NA
ATOM      8  C   UNL     1      -3.522 -10.306  12.255  0.00  0.00    +0.002 C 
ATOM      9  C   UNL     1      -3.540 -11.507  13.241  0.00  0.00    +0.055 C 
ATOM     10  C   UNL     1      -5.742 -10.951  11.256  0.00  0.00    +0.074 C 
ATOM     11  C   UNL     1      -4.969  -9.838  11.995  0.00  0.00    +0.024 C 
ATOM     12  C   UNL     1      -4.591 -12.525  12.712  0.00  0.00    +0.094 C 
ATOM     13  C   UNL     1      -2.970 -10.838  10.914  0.00  0.00    +0.019 C 
ATOM     14  C   UNL     1      -3.769 -12.086  10.497  0.00  0.00    +0.085 C 
ENDROOT
BRANCH   9  15
ATOM      3  N   UNL     1      -2.661 -11.083  15.584  0.00  0.00    -0.271 N 
ATOM      5  N   UNL     1      -3.027 -10.827  16.852  0.00  0.00    -0.176 NA
ATOM     15  C   UNL     1      -3.713 -11.215  14.724  0.00  0.00    +0.044 A 
ATOM     17  C   UNL     1      -4.843 -11.032  15.482  0.00  0.00    +0.048 A 
ATOM     19  C   UNL     1      -4.360 -10.796  16.784  0.00  0.00    +0.066 A 
ATOM     24  C   UNL     1      -1.258 -11.193  15.263  0.00  0.00    +0.172 C 
BRANCH  19  18
ATOM     18  C   UNL     1      -5.170 -10.528  18.032  0.00  0.00    +0.040 C 
ATOM     20  C   UNL     1      -6.662 -10.301  17.729  0.00  0.00    +0.010 C 
ATOM     21  C   UNL     1      -5.125 -11.659  19.080  0.00  0.00    +0.010 C 
ATOM     22  C   UNL     1      -7.395 -10.921  18.909  0.00  0.00    +0.001 C 
ATOM     23  C   UNL     1      -6.561 -12.150  19.222  0.00  0.00    +0.001 C 
ENDBRANCH  19  18
ENDBRANCH   9  15
BRANCH  10  16
ATOM     16  C   UNL     1      -7.178 -11.086  11.770  0.00  0.00    +0.124 C 
BRANCH  16   4
ATOM      1  O   UNL     1      -9.613 -10.801  13.251  0.00  0.00    -0.253 OA
ATOM      4  N   UNL     1      -7.381 -10.280  12.934  0.00  0.00    -0.298 N 
ATOM      6  N   UNL     1      -8.509  -9.329  14.708  0.00  0.00    -0.269 N 
ATOM     25  C   UNL     1      -8.610 -10.189  13.611  0.00  0.00    +0.304 C 
ATOM     33  H   UNL     1      -6.609  -9.709  13.262  0.00  0.00    +0.150 HD
ATOM     34  H   UNL     1      -7.601  -8.900  14.870  0.00  0.00    +0.156 HD
BRANCH   6  26
ATOM     26  C   UNL     1      -9.521  -8.978  15.633  0.00  0.00    +0.036 A 
ATOM     27  C   UNL     1     -10.035  -9.940  16.504  0.00  0.00    +0.042 A 
ATOM     28  C   UNL     1     -10.004  -7.671  15.674  0.00  0.00    +0.023 A 
ATOM     29  C   UNL     1     -11.031  -9.593  17.416  0.00  0.00    +0.054 A 
ATOM     30  C   UNL     1     -11.002  -7.324  16.587  0.00  0.00    +0.003 A 
ATOM     31  C   UNL     1     -11.515  -8.285  17.457  0.00  0.00    +0.019 A 
BRANCH  29  32
ATOM      7  N   UNL     1     -11.988 -11.378  19.031  0.00  0.00    -0.191 NA
ATOM     32  C   UNL     1     -11.558 -10.578  18.308  0.00  0.00    +0.099 C 
ENDBRANCH  29  32
ENDBRANCH   6  26
ENDBRANCH  16   4
ENDBRANCH  10  16
TORSDOF 6
ENDMDL
MODEL 8
REMARK VINA RESULT:      -6.9     14.455     16.834
REMARK  Name = 40780140
REMARK  7 active torsions:
REMARK  status: ('A' for Active; 'I' for Inactive)
REMARK    1  A    between atoms: N_3  and  C_24
REMARK    2  A    between atoms: N_4  and  C_16
REMARK    3  A    between atoms: N_6  and  C_26
REMARK    4  A    between atoms: C_9  and  C_15
REMARK    5  A    between atoms: C_10  and  C_16
REMARK    6  A    between atoms: C_18  and  C_19
REMARK    7  A    between atoms: C_29  and  C_32
REMARK                            x       y       z     vdW  Elec       q    Type
REMARK                         _______ _______ _______ _____ _____    ______ ____
ROOT
ATOM      2  N   UNL     1      13.380   9.141   6.272  0.00  0.00    -0.297 NA
ATOM      8  C   UNL     1      10.851   8.869   5.712  0.00  0.00    +0.002 C 
ATOM      9  C   UNL     1      11.480   7.494   6.070  0.00  0.00    +0.055 C 
ATOM     10  C   UNL     1      13.068   9.819   4.986  0.00  0.00    +0.074 C 
ATOM     11  C   UNL     1      11.628   9.495   4.534  0.00  0.00    +0.024 C 
ATOM     12  C   UNL     1      13.017   7.705   6.192  0.00  0.00    +0.094 C 
ATOM     13  C   UNL     1      11.064   9.789   6.934  0.00  0.00    +0.019 C 
ATOM     14  C   UNL     1      12.552   9.770   7.329  0.00  0.00    +0.085 C 
ENDROOT
BRANCH   9  15
ATOM      3  N   UNL     1      10.351   5.262   5.637  0.00  0.00    -0.271 N 
ATOM      5  N   UNL     1      10.159   4.303   4.717  0.00  0.00    -0.176 NA
ATOM     15  C   UNL     1      11.129   6.295   5.201  0.00  0.00    +0.044 A 
ATOM     17  C   UNL     1      11.467   5.990   3.906  0.00  0.00    +0.048 A 
ATOM     19  C   UNL     1      10.842   4.752   3.662  0.00  0.00    +0.066 A 
ATOM     24  C   UNL     1       9.749   5.120   6.942  0.00  0.00    +0.172 C 
BRANCH  19  18
ATOM     18  C   UNL     1      10.877   3.939   2.386  0.00  0.00    +0.040 C 
ATOM     20  C   UNL     1      10.273   4.694   1.189  0.00  0.00    +0.010 C 
ATOM     21  C   UNL     1      12.289   3.509   1.939  0.00  0.00    +0.010 C 
ATOM     22  C   UNL     1      11.112   4.263  -0.003  0.00  0.00    +0.001 C 
ATOM     23  C   UNL     1      12.510   4.163   0.580  0.00  0.00    +0.001 C 
ENDBRANCH  19  18
ENDBRANCH   9  15
BRANCH  10  16
ATOM     16  C   UNL     1      14.093   9.498   3.895  0.00  0.00    +0.124 C 
BRANCH  16   4
ATOM      1  O   UNL     1      16.207   7.618   4.352  0.00  0.00    -0.253 OA
ATOM      4  N   UNL     1      15.420   9.794   4.338  0.00  0.00    -0.298 N 
ATOM      6  N   UNL     1      17.603   9.399   4.973  0.00  0.00    -0.269 N 
ATOM     25  C   UNL     1      16.409   8.815   4.542  0.00  0.00    +0.304 C 
ATOM     33  H   UNL     1      15.647  10.759   4.561  0.00  0.00    +0.150 HD
ATOM     34  H   UNL     1      17.605  10.410   5.080  0.00  0.00    +0.156 HD
BRANCH   6  26
ATOM     26  C   UNL     1      18.824   8.753   5.283  0.00  0.00    +0.036 A 
ATOM     27  C   UNL     1      19.535   8.089   4.283  0.00  0.00    +0.042 A 
ATOM     28  C   UNL     1      19.315   8.780   6.587  0.00  0.00    +0.023 A 
ATOM     29  C   UNL     1      20.738   7.453   4.588  0.00  0.00    +0.054 A 
ATOM     30  C   UNL     1      20.519   8.144   6.893  0.00  0.00    +0.003 A 
ATOM     31  C   UNL     1      21.230   7.481   5.894  0.00  0.00    +0.019 A 
BRANCH  29  32
ATOM      7  N   UNL     1      22.058   6.217   2.734  0.00  0.00    -0.191 NA
ATOM     32  C   UNL     1      21.467   6.772   3.565  0.00  0.00    +0.099 C 
ENDBRANCH  29  32
ENDBRANCH   6  26
ENDBRANCH  16   4
ENDBRANCH  10  16
TORSDOF 6
ENDMDL
MODEL 9
REMARK VINA RESULT:      -6.8     30.677     33.952
REMARK  Name = 40780140
REMARK  7 active torsions:
REMARK  status: ('A' for Active; 'I' for Inactive)
REMARK    1  A    between atoms: N_3  and  C_24
REMARK    2  A    between atoms: N_4  and  C_16
REMARK    3  A    between atoms: N_6  and  C_26
REMARK    4  A    between atoms: C_9  and  C_15
REMARK    5  A    between atoms: C_10  and  C_16
REMARK    6  A    between atoms: C_18  and  C_19
REMARK    7  A    between atoms: C_29  and  C_32
REMARK                            x       y       z     vdW  Elec       q    Type
REMARK                         _______ _______ _______ _____ _____    ______ ____
ROOT
ATOM      2  N   UNL     1      -8.560 -12.589  37.711  0.00  0.00    -0.297 NA
ATOM      8  C   UNL     1      -6.241 -11.768  36.857  0.00  0.00    +0.002 C 
ATOM      9  C   UNL     1      -6.211 -11.975  38.396  0.00  0.00    +0.055 C 
ATOM     10  C   UNL     1      -8.732 -11.395  36.843  0.00  0.00    +0.074 C 
ATOM     11  C   UNL     1      -7.363 -10.771  36.497  0.00  0.00    +0.024 C 
ATOM     12  C   UNL     1      -7.670 -12.266  38.853  0.00  0.00    +0.094 C 
ATOM     13  C   UNL     1      -6.625 -13.127  36.232  0.00  0.00    +0.019 C 
ATOM     14  C   UNL     1      -7.908 -13.648  36.902  0.00  0.00    +0.085 C 
ENDROOT
BRANCH   9  15
ATOM      3  N   UNL     1      -4.526 -11.185  40.123  0.00  0.00    -0.271 N 
ATOM      5  N   UNL     1      -4.071 -10.106  40.782  0.00  0.00    -0.176 NA
ATOM     15  C   UNL     1      -5.540 -10.910  39.252  0.00  0.00    +0.044 A 
ATOM     17  C   UNL     1      -5.762  -9.558  39.348  0.00  0.00    +0.048 A 
ATOM     19  C   UNL     1      -4.828  -9.116  40.305  0.00  0.00    +0.066 A 
ATOM     24  C   UNL     1      -3.933 -12.475  40.385  0.00  0.00    +0.172 C 
BRANCH  19  18
ATOM     18  C   UNL     1      -4.623  -7.704  40.806  0.00  0.00    +0.040 C 
ATOM     20  C   UNL     1      -3.253  -7.510  41.481  0.00  0.00    +0.010 C 
ATOM     21  C   UNL     1      -4.706  -6.618  39.714  0.00  0.00    +0.010 C 
ATOM     22  C   UNL     1      -2.837  -6.095  41.114  0.00  0.00    +0.001 C 
ATOM     23  C   UNL     1      -3.336  -5.951  39.687  0.00  0.00    +0.001 C 
ENDBRANCH  19  18
ENDBRANCH   9  15
BRANCH  10  16
ATOM     16  C   UNL     1      -9.689 -10.367  37.451  0.00  0.00    +0.124 C 
BRANCH  16   4
ATOM      1  O   UNL     1     -10.144  -8.662  39.708  0.00  0.00    -0.253 OA
ATOM      4  N   UNL     1      -9.005  -9.148  37.754  0.00  0.00    -0.298 N 
ATOM      6  N   UNL     1      -8.458  -7.232  38.919  0.00  0.00    -0.269 N 
ATOM     25  C   UNL     1      -9.283  -8.360  38.885  0.00  0.00    +0.304 C 
ATOM     33  H   UNL     1      -8.312  -8.810  37.093  0.00  0.00    +0.150 HD
ATOM     34  H   UNL     1      -7.794  -7.130  38.156  0.00  0.00    +0.156 HD
BRANCH   6  26
ATOM     26  C   UNL     1      -8.432  -6.204  39.891  0.00  0.00    +0.036 A 
ATOM     27  C   UNL     1      -8.852  -4.916  39.555  0.00  0.00    +0.042 A 
ATOM     28  C   UNL     1      -7.986  -6.477  41.183  0.00  0.00    +0.023 A 
ATOM     29  C   UNL     1      -8.827  -3.903  40.513  0.00  0.00    +0.054 A 
ATOM     30  C   UNL     1      -7.960  -5.463  42.141  0.00  0.00    +0.003 A 
ATOM     31  C   UNL     1      -8.380  -4.177  41.807  0.00  0.00    +0.019 A 
BRANCH  29  32
ATOM      7  N   UNL     1      -9.605  -1.512  39.894  0.00  0.00    -0.191 NA
ATOM     32  C   UNL     1      -9.256  -2.584  40.171  0.00  0.00    +0.099 C 
ENDBRANCH  29  32
ENDBRANCH   6  26
ENDBRANCH  16   4
ENDBRANCH  10  16
TORSDOF 6
ENDMDL
MODEL 10
REMARK VINA RESULT:      -6.8     13.928     16.251
REMARK  Name = 40780140
REMARK  7 active torsions:
REMARK  status: ('A' for Active; 'I' for Inactive)
REMARK    1  A    between atoms: N_3  and  C_24
REMARK    2  A    between atoms: N_4  and  C_16
REMARK    3  A    between atoms: N_6  and  C_26
REMARK    4  A    between atoms: C_9  and  C_15
REMARK    5  A    between atoms: C_10  and  C_16
REMARK    6  A    between atoms: C_18  and  C_19
REMARK    7  A    between atoms: C_29  and  C_32
REMARK                            x       y       z     vdW  Elec       q    Type
REMARK                         _______ _______ _______ _____ _____    ______ ____
ROOT
ATOM      2  N   UNL     1      18.267  -3.437  32.076  0.00  0.00    -0.297 NA
ATOM      8  C   UNL     1      15.681  -3.448  31.769  0.00  0.00    +0.002 C 
ATOM      9  C   UNL     1      16.267  -4.861  31.496  0.00  0.00    +0.055 C 
ATOM     10  C   UNL     1      17.856  -2.314  31.194  0.00  0.00    +0.074 C 
ATOM     11  C   UNL     1      16.359  -2.425  30.833  0.00  0.00    +0.024 C 
ATOM     12  C   UNL     1      17.817  -4.728  31.500  0.00  0.00    +0.094 C 
ATOM     13  C   UNL     1      16.078  -3.072  33.213  0.00  0.00    +0.019 C 
ATOM     14  C   UNL     1      17.596  -3.256  33.386  0.00  0.00    +0.085 C 
ENDROOT
BRANCH   9  15
ATOM      3  N   UNL     1      14.603  -6.358  30.299  0.00  0.00    -0.271 N 
ATOM      5  N   UNL     1      14.328  -6.959  29.129  0.00  0.00    -0.176 NA
ATOM     15  C   UNL     1      15.756  -5.629  30.285  0.00  0.00    +0.044 A 
ATOM     17  C   UNL     1      16.270  -5.763  29.019  0.00  0.00    +0.048 A 
ATOM     19  C   UNL     1      15.349  -6.593  28.352  0.00  0.00    +0.066 A 
ATOM     24  C   UNL     1      13.698  -6.530  31.411  0.00  0.00    +0.172 C 
BRANCH  19  18
ATOM     18  C   UNL     1      15.414  -7.073  26.919  0.00  0.00    +0.040 C 
ATOM     20  C   UNL     1      16.399  -6.255  26.066  0.00  0.00    +0.010 C 
ATOM     21  C   UNL     1      15.845  -8.546  26.756  0.00  0.00    +0.010 C 
ATOM     22  C   UNL     1      17.009  -7.264  25.105  0.00  0.00    +0.001 C 
ATOM     23  C   UNL     1      17.143  -8.512  25.959  0.00  0.00    +0.001 C 
ENDBRANCH  19  18
ENDBRANCH   9  15
BRANCH  10  16
ATOM     16  C   UNL     1      18.736  -2.200  29.947  0.00  0.00    +0.124 C 
BRANCH  16   4
ATOM      1  O   UNL     1      19.687  -2.062  27.249  0.00  0.00    -0.253 OA
ATOM      4  N   UNL     1      17.964  -2.387  28.758  0.00  0.00    -0.298 N 
ATOM      6  N   UNL     1      17.513  -2.533  26.500  0.00  0.00    -0.269 N 
ATOM     25  C   UNL     1      18.501  -2.304  27.461  0.00  0.00    +0.304 C 
ATOM     33  H   UNL     1      16.966  -2.545  28.855  0.00  0.00    +0.150 HD
ATOM     34  H   UNL     1      16.575  -2.721  26.845  0.00  0.00    +0.156 HD
BRANCH   6  26
ATOM     26  C   UNL     1      17.655  -2.535  25.092  0.00  0.00    +0.036 A 
ATOM     27  C   UNL     1      18.206  -3.644  24.448  0.00  0.00    +0.042 A 
ATOM     28  C   UNL     1      17.244  -1.430  24.348  0.00  0.00    +0.023 A 
ATOM     29  C   UNL     1      18.345  -3.647  23.060  0.00  0.00    +0.054 A 
ATOM     30  C   UNL     1      17.383  -1.433  22.960  0.00  0.00    +0.003 A 
ATOM     31  C   UNL     1      17.933  -2.541  22.316  0.00  0.00    +0.019 A 
BRANCH  29  32
ATOM      7  N   UNL     1      19.367  -5.704  21.865  0.00  0.00    -0.191 NA
ATOM     32  C   UNL     1      18.909  -4.781  22.400  0.00  0.00    +0.099 C 
ENDBRANCH  29  32
ENDBRANCH   6  26
ENDBRANCH  16   4
ENDBRANCH  10  16
TORSDOF 6
ENDMDL
