MODEL 1
REMARK VINA RESULT:      -6.7      0.000      0.000
REMARK  Name = 26742025
REMARK  8 active torsions:
REMARK  status: ('A' for Active; 'I' for Inactive)
REMARK    1  A    between atoms: O_1  and  C_11
REMARK    2  A    between atoms: O_5  and  C_24
REMARK    3  A    between atoms: O_5  and  C_28
REMARK    4  A    between atoms: N_7  and  C_10
REMARK    5  A    between atoms: N_8  and  C_21
REMARK    6  A    between atoms: N_9  and  C_25
REMARK    7  A    between atoms: C_17  and  C_20
REMARK    8  A    between atoms: C_21  and  C_24
REMARK                            x       y       z     vdW  Elec       q    Type
REMARK                         _______ _______ _______ _____ _____    ______ ____
ROOT
ATOM      4  O   UNL     1      21.813   3.622  22.572  0.00  0.00    -0.270 OA
ATOM      7  N   UNL     1      22.966   4.571  20.798  0.00  0.00    -0.305 N 
ATOM     17  C   UNL     1      21.862   4.384  21.609  0.00  0.00    +0.244 C 
ATOM     36  H   UNL     1      22.965   5.300  20.094  0.00  0.00    +0.149 HD
ENDROOT
BRANCH   7  10
ATOM      3  O   UNL     1      26.206   7.794  21.686  0.00  0.00    -0.252 OA
ATOM      6  N   UNL     1      25.802   5.542  22.016  0.00  0.00    -0.284 N 
ATOM      9  N   UNL     1      24.068   7.123  22.296  0.00  0.00    -0.269 N 
ATOM     10  C   UNL     1      24.213   3.863  21.016  0.00  0.00    +0.119 C 
ATOM     11  C   UNL     1      25.028   3.872  19.710  0.00  0.00    +0.136 C 
ATOM     12  C   UNL     1      26.517   3.545  19.851  0.00  0.00    +0.035 C 
ATOM     13  C   UNL     1      24.924   4.392  22.269  0.00  0.00    +0.134 C 
ATOM     14  C   UNL     1      27.367   4.753  20.251  0.00  0.00    +0.022 C 
ATOM     15  C   UNL     1      27.190   5.200  21.697  0.00  0.00    +0.109 C 
ATOM     16  C   UNL     1      25.408   6.901  21.980  0.00  0.00    +0.307 C 
ATOM     38  H   UNL     1      23.600   6.443  22.886  0.00  0.00    +0.156 HD
BRANCH   9  25
ATOM     25  C   UNL     1      23.222   8.160  21.827  0.00  0.00    +0.035 A 
ATOM     31  C   UNL     1      22.947   8.272  20.464  0.00  0.00    +0.023 A 
ATOM     32  C   UNL     1      22.666   9.068  22.727  0.00  0.00    +0.023 A 
ATOM     33  C   UNL     1      22.115   9.292  20.002  0.00  0.00    +0.002 A 
ATOM     34  C   UNL     1      21.834  10.088  22.265  0.00  0.00    +0.002 A 
ATOM     35  C   UNL     1      21.558  10.199  20.902  0.00  0.00    +0.000 A 
ENDBRANCH   9  25
BRANCH  11   1
ATOM      1  O   UNL     1      24.463   2.886  18.835  0.00  0.00    -0.390 OA
ATOM     37  H   UNL     1      25.185   2.518  18.299  0.00  0.00    +0.210 HD
ENDBRANCH  11   1
ENDBRANCH   7  10
BRANCH  17  20
ATOM     20  C   UNL     1      20.654   5.164  21.238  0.00  0.00    +0.037 A 
ATOM     26  C   UNL     1      19.927   4.823  20.097  0.00  0.00    +0.016 A 
ATOM     27  C   UNL     1      20.247   6.237  22.030  0.00  0.00    +0.016 A 
ATOM     28  C   UNL     1      18.386   6.630  20.540  0.00  0.00    +0.121 A 
ATOM     29  C   UNL     1      18.792   5.556  19.749  0.00  0.00    +0.046 A 
ATOM     30  C   UNL     1      19.112   6.970  21.681  0.00  0.00    +0.046 A 
BRANCH  28   5
ATOM      5  O   UNL     1      17.279   7.346  20.201  0.00  0.00    -0.491 OA
BRANCH   5  24
ATOM     24  C   UNL     1      16.181   6.622  19.649  0.00  0.00    +0.244 C 
BRANCH  24  21
ATOM     21  C   UNL     1      15.089   6.509  20.702  0.00  0.00    +0.125 C 
BRANCH  21   8
ATOM      2  O   UNL     1      11.362   7.769  19.245  0.00  0.00    -0.377 OA
ATOM      8  N   UNL     1      13.949   7.354  20.355  0.00  0.00    -0.295 NA
ATOM     18  C   UNL     1      12.734   6.900  21.047  0.00  0.00    +0.112 C 
ATOM     19  C   UNL     1      13.728   7.361  18.902  0.00  0.00    +0.112 C 
ATOM     22  C   UNL     1      11.555   7.789  20.659  0.00  0.00    +0.175 C 
ATOM     23  C   UNL     1      12.526   8.240  18.566  0.00  0.00    +0.175 C 
ENDBRANCH  21   8
ENDBRANCH  24  21
ENDBRANCH   5  24
ENDBRANCH  28   5
ENDBRANCH  17  20
TORSDOF 8
ENDMDL
MODEL 2
REMARK VINA RESULT:      -6.4      3.422      5.092
REMARK  Name = 26742025
REMARK  8 active torsions:
REMARK  status: ('A' for Active; 'I' for Inactive)
REMARK    1  A    between atoms: O_1  and  C_11
REMARK    2  A    between atoms: O_5  and  C_24
REMARK    3  A    between atoms: O_5  and  C_28
REMARK    4  A    between atoms: N_7  and  C_10
REMARK    5  A    between atoms: N_8  and  C_21
REMARK    6  A    between atoms: N_9  and  C_25
REMARK    7  A    between atoms: C_17  and  C_20
REMARK    8  A    between atoms: C_21  and  C_24
REMARK                            x       y       z     vdW  Elec       q    Type
REMARK                         _______ _______ _______ _____ _____    ______ ____
ROOT
ATOM      4  O   UNL     1      20.110   5.741  20.904  0.00  0.00    -0.270 OA
ATOM      7  N   UNL     1      19.932   7.982  21.468  0.00  0.00    -0.305 N 
ATOM     17  C   UNL     1      19.454   6.776  20.992  0.00  0.00    +0.244 C 
ATOM     36  H   UNL     1      19.299   8.760  21.615  0.00  0.00    +0.149 HD
ENDROOT
BRANCH   7  10
ATOM      3  O   UNL     1      20.477  12.488  22.504  0.00  0.00    -0.252 OA
ATOM      6  N   UNL     1      21.411  10.428  22.983  0.00  0.00    -0.284 N 
ATOM      9  N   UNL     1      19.064  10.679  22.862  0.00  0.00    -0.269 N 
ATOM     10  C   UNL     1      21.298   8.144  21.928  0.00  0.00    +0.119 C 
ATOM     11  C   UNL     1      22.163   8.644  20.756  0.00  0.00    +0.136 C 
ATOM     12  C   UNL     1      23.513   9.258  21.139  0.00  0.00    +0.035 C 
ATOM     13  C   UNL     1      21.340   8.979  23.214  0.00  0.00    +0.134 C 
ATOM     14  C   UNL     1      23.416  10.731  21.541  0.00  0.00    +0.022 C 
ATOM     15  C   UNL     1      22.767  10.974  22.898  0.00  0.00    +0.109 C 
ATOM     16  C   UNL     1      20.312  11.293  22.763  0.00  0.00    +0.307 C 
ATOM     38  H   UNL     1      18.988   9.849  23.441  0.00  0.00    +0.156 HD
BRANCH   9  25
ATOM     25  C   UNL     1      17.868  11.021  22.182  0.00  0.00    +0.035 A 
ATOM     31  C   UNL     1      17.790  10.880  20.797  0.00  0.00    +0.023 A 
ATOM     32  C   UNL     1      16.770  11.499  22.898  0.00  0.00    +0.023 A 
ATOM     33  C   UNL     1      16.613  11.217  20.127  0.00  0.00    +0.002 A 
ATOM     34  C   UNL     1      15.594  11.835  22.228  0.00  0.00    +0.002 A 
ATOM     35  C   UNL     1      15.516  11.694  20.842  0.00  0.00    +0.000 A 
ENDBRANCH   9  25
BRANCH  11   1
ATOM      1  O   UNL     1      22.438   7.522  19.906  0.00  0.00    -0.390 OA
ATOM     37  H   UNL     1      21.691   6.904  19.983  0.00  0.00    +0.210 HD
ENDBRANCH  11   1
ENDBRANCH   7  10
BRANCH  17  20
ATOM     20  C   UNL     1      18.040   6.780  20.535  0.00  0.00    +0.037 A 
ATOM     26  C   UNL     1      17.070   7.455  21.277  0.00  0.00    +0.016 A 
ATOM     27  C   UNL     1      17.683   6.108  19.367  0.00  0.00    +0.016 A 
ATOM     28  C   UNL     1      15.385   6.786  19.680  0.00  0.00    +0.121 A 
ATOM     29  C   UNL     1      15.742   7.458  20.848  0.00  0.00    +0.046 A 
ATOM     30  C   UNL     1      16.355   6.111  18.939  0.00  0.00    +0.046 A 
BRANCH  28   5
ATOM      5  O   UNL     1      14.090   6.788  19.262  0.00  0.00    -0.491 OA
BRANCH   5  24
ATOM     24  C   UNL     1      13.493   8.057  19.002  0.00  0.00    +0.244 C 
BRANCH  24  21
ATOM     21  C   UNL     1      11.987   7.878  18.897  0.00  0.00    +0.125 C 
BRANCH  21   8
ATOM      2  O   UNL     1      11.236   9.046  22.857  0.00  0.00    -0.377 OA
ATOM      8  N   UNL     1      11.320   8.408  20.084  0.00  0.00    -0.295 NA
ATOM     18  C   UNL     1      12.064   9.552  20.633  0.00  0.00    +0.112 C 
ATOM     19  C   UNL     1      11.174   7.365  21.110  0.00  0.00    +0.112 C 
ATOM     22  C   UNL     1      11.356  10.079  21.878  0.00  0.00    +0.175 C 
ATOM     23  C   UNL     1      10.487   7.944  22.343  0.00  0.00    +0.175 C 
ENDBRANCH  21   8
ENDBRANCH  24  21
ENDBRANCH   5  24
ENDBRANCH  28   5
ENDBRANCH  17  20
TORSDOF 8
ENDMDL
MODEL 3
REMARK VINA RESULT:      -6.4     29.729     33.216
REMARK  Name = 26742025
REMARK  8 active torsions:
REMARK  status: ('A' for Active; 'I' for Inactive)
REMARK    1  A    between atoms: O_1  and  C_11
REMARK    2  A    between atoms: O_5  and  C_24
REMARK    3  A    between atoms: O_5  and  C_28
REMARK    4  A    between atoms: N_7  and  C_10
REMARK    5  A    between atoms: N_8  and  C_21
REMARK    6  A    between atoms: N_9  and  C_25
REMARK    7  A    between atoms: C_17  and  C_20
REMARK    8  A    between atoms: C_21  and  C_24
REMARK                            x       y       z     vdW  Elec       q    Type
REMARK                         _______ _______ _______ _____ _____    ______ ____
ROOT
ATOM      4  O   UNL     1      -9.114  -9.622  13.724  0.00  0.00    -0.270 OA
ATOM      7  N   UNL     1      -7.363 -10.188  15.135  0.00  0.00    -0.305 N 
ATOM     17  C   UNL     1      -7.937  -9.925  13.905  0.00  0.00    +0.244 C 
ATOM     36  H   UNL     1      -6.361 -10.320  15.213  0.00  0.00    +0.149 HD
ENDROOT
BRANCH   7  10
ATOM      3  O   UNL     1      -4.465 -11.437  18.557  0.00  0.00    -0.252 OA
ATOM      6  N   UNL     1      -6.433 -10.269  18.232  0.00  0.00    -0.284 N 
ATOM      9  N   UNL     1      -4.636 -10.030  16.717  0.00  0.00    -0.269 N 
ATOM     10  C   UNL     1      -8.122 -10.129  16.370  0.00  0.00    +0.119 C 
ATOM     11  C   UNL     1      -8.622 -11.543  16.718  0.00  0.00    +0.136 C 
ATOM     12  C   UNL     1      -9.076 -11.751  18.165  0.00  0.00    +0.035 C 
ATOM     13  C   UNL     1      -7.327  -9.397  17.458  0.00  0.00    +0.134 C 
ATOM     14  C   UNL     1      -7.922 -12.051  19.125  0.00  0.00    +0.022 C 
ATOM     15  C   UNL     1      -7.031 -10.854  19.434  0.00  0.00    +0.109 C 
ATOM     16  C   UNL     1      -5.114 -10.638  17.877  0.00  0.00    +0.307 C 
ATOM     38  H   UNL     1      -5.034  -9.136  16.450  0.00  0.00    +0.156 HD
BRANCH   9  25
ATOM     25  C   UNL     1      -3.696 -10.544  15.787  0.00  0.00    +0.035 A 
ATOM     31  C   UNL     1      -2.340 -10.576  16.112  0.00  0.00    +0.023 A 
ATOM     32  C   UNL     1      -4.128 -11.015  14.547  0.00  0.00    +0.023 A 
ATOM     33  C   UNL     1      -1.416 -11.081  15.198  0.00  0.00    +0.002 A 
ATOM     34  C   UNL     1      -3.203 -11.519  13.632  0.00  0.00    +0.002 A 
ATOM     35  C   UNL     1      -1.847 -11.552  13.958  0.00  0.00    +0.000 A 
ENDBRANCH   9  25
BRANCH  11   1
ATOM      1  O   UNL     1      -9.750 -11.827  15.879  0.00  0.00    -0.390 OA
ATOM     37  H   UNL     1      -9.802 -11.126  15.207  0.00  0.00    +0.210 HD
ENDBRANCH  11   1
ENDBRANCH   7  10
BRANCH  17  20
ATOM     20  C   UNL     1      -7.032 -10.053  12.734  0.00  0.00    +0.037 A 
ATOM     26  C   UNL     1      -6.873 -11.290  12.109  0.00  0.00    +0.016 A 
ATOM     27  C   UNL     1      -6.342  -8.938  12.261  0.00  0.00    +0.016 A 
ATOM     28  C   UNL     1      -5.332 -10.296  10.537  0.00  0.00    +0.121 A 
ATOM     29  C   UNL     1      -6.022 -11.411  11.010  0.00  0.00    +0.046 A 
ATOM     30  C   UNL     1      -5.491  -9.059  11.161  0.00  0.00    +0.046 A 
BRANCH  28   5
ATOM      5  O   UNL     1      -4.502 -10.413   9.464  0.00  0.00    -0.491 OA
BRANCH   5  24
ATOM     24  C   UNL     1      -4.822  -9.642   8.307  0.00  0.00    +0.244 C 
BRANCH  24  21
ATOM     21  C   UNL     1      -5.698 -10.478   7.388  0.00  0.00    +0.125 C 
BRANCH  21   8
ATOM      2  O   UNL     1      -8.132  -7.325   6.071  0.00  0.00    -0.377 OA
ATOM      8  N   UNL     1      -6.866  -9.716   6.954  0.00  0.00    -0.295 NA
ATOM     18  C   UNL     1      -6.677  -9.206   5.588  0.00  0.00    +0.112 C 
ATOM     19  C   UNL     1      -7.133  -8.602   7.875  0.00  0.00    +0.112 C 
ATOM     22  C   UNL     1      -7.903  -8.402   5.163  0.00  0.00    +0.175 C 
ATOM     23  C   UNL     1      -8.349  -7.814   7.395  0.00  0.00    +0.175 C 
ENDBRANCH  21   8
ENDBRANCH  24  21
ENDBRANCH   5  24
ENDBRANCH  28   5
ENDBRANCH  17  20
TORSDOF 8
ENDMDL
MODEL 4
REMARK VINA RESULT:      -6.4     30.080     33.653
REMARK  Name = 26742025
REMARK  8 active torsions:
REMARK  status: ('A' for Active; 'I' for Inactive)
REMARK    1  A    between atoms: O_1  and  C_11
REMARK    2  A    between atoms: O_5  and  C_24
REMARK    3  A    between atoms: O_5  and  C_28
REMARK    4  A    between atoms: N_7  and  C_10
REMARK    5  A    between atoms: N_8  and  C_21
REMARK    6  A    between atoms: N_9  and  C_25
REMARK    7  A    between atoms: C_17  and  C_20
REMARK    8  A    between atoms: C_21  and  C_24
REMARK                            x       y       z     vdW  Elec       q    Type
REMARK                         _______ _______ _______ _____ _____    ______ ____
ROOT
ATOM      4  O   UNL     1      -5.666 -12.680  18.882  0.00  0.00    -0.270 OA
ATOM      7  N   UNL     1      -7.200 -11.849  17.356  0.00  0.00    -0.305 N 
ATOM     17  C   UNL     1      -5.934 -12.206  17.781  0.00  0.00    +0.244 C 
ATOM     36  H   UNL     1      -7.356 -11.570  16.394  0.00  0.00    +0.149 HD
ENDROOT
BRANCH   7  10
ATOM      3  O   UNL     1     -10.732  -9.764  15.154  0.00  0.00    -0.252 OA
ATOM      6  N   UNL     1     -10.346 -11.371  16.771  0.00  0.00    -0.284 N 
ATOM      9  N   UNL     1      -9.003 -11.281  14.827  0.00  0.00    -0.269 N 
ATOM     10  C   UNL     1      -8.371 -12.007  18.198  0.00  0.00    +0.119 C 
ATOM     11  C   UNL     1      -8.563 -10.727  19.032  0.00  0.00    +0.136 C 
ATOM     12  C   UNL     1      -9.947 -10.541  19.658  0.00  0.00    +0.035 C 
ATOM     13  C   UNL     1      -9.575 -12.469  17.368  0.00  0.00    +0.134 C 
ATOM     14  C   UNL     1     -10.970  -9.928  18.699  0.00  0.00    +0.022 C 
ATOM     15  C   UNL     1     -11.445 -10.867  17.597  0.00  0.00    +0.109 C 
ATOM     16  C   UNL     1     -10.069 -10.731  15.539  0.00  0.00    +0.307 C 
ATOM     38  H   UNL     1      -8.779 -12.257  14.988  0.00  0.00    +0.156 HD
BRANCH   9  25
ATOM     25  C   UNL     1      -8.114 -10.622  13.941  0.00  0.00    +0.035 A 
ATOM     31  C   UNL     1      -6.805 -10.353  14.340  0.00  0.00    +0.023 A 
ATOM     32  C   UNL     1      -8.548 -10.242  12.672  0.00  0.00    +0.023 A 
ATOM     33  C   UNL     1      -5.929  -9.705  13.468  0.00  0.00    +0.002 A 
ATOM     34  C   UNL     1      -7.673  -9.593  11.800  0.00  0.00    +0.002 A 
ATOM     35  C   UNL     1      -6.363  -9.325  12.199  0.00  0.00    +0.000 A 
ENDBRANCH   9  25
BRANCH  11   1
ATOM      1  O   UNL     1      -7.616 -10.760  20.109  0.00  0.00    -0.390 OA
ATOM     37  H   UNL     1      -7.856 -10.057  20.735  0.00  0.00    +0.210 HD
ENDBRANCH  11   1
ENDBRANCH   7  10
BRANCH  17  20
ATOM     20  C   UNL     1      -4.837 -11.958  16.811  0.00  0.00    +0.037 A 
ATOM     26  C   UNL     1      -4.046 -10.815  16.930  0.00  0.00    +0.016 A 
ATOM     27  C   UNL     1      -4.599 -12.866  15.780  0.00  0.00    +0.016 A 
ATOM     28  C   UNL     1      -2.779 -11.489  14.987  0.00  0.00    +0.121 A 
ATOM     29  C   UNL     1      -3.016 -10.581  16.018  0.00  0.00    +0.046 A 
ATOM     30  C   UNL     1      -3.569 -12.632  14.868  0.00  0.00    +0.046 A 
BRANCH  28   5
ATOM      5  O   UNL     1      -1.774 -11.262  14.097  0.00  0.00    -0.491 OA
BRANCH   5  24
ATOM     24  C   UNL     1      -2.041 -11.555  12.727  0.00  0.00    +0.244 C 
BRANCH  24  21
ATOM     21  C   UNL     1      -2.097 -10.250  11.949  0.00  0.00    +0.125 C 
BRANCH  21   8
ATOM      2  O   UNL     1      -5.169 -10.467   9.099  0.00  0.00    -0.377 OA
ATOM      8  N   UNL     1      -2.806 -10.433  10.685  0.00  0.00    -0.295 NA
ATOM     18  C   UNL     1      -3.476  -9.190  10.278  0.00  0.00    +0.112 C 
ATOM     19  C   UNL     1      -3.787 -11.523  10.790  0.00  0.00    +0.112 C 
ATOM     22  C   UNL     1      -4.220  -9.409   8.963  0.00  0.00    +0.175 C 
ATOM     23  C   UNL     1      -4.522 -11.687   9.463  0.00  0.00    +0.175 C 
ENDBRANCH  21   8
ENDBRANCH  24  21
ENDBRANCH   5  24
ENDBRANCH  28   5
ENDBRANCH  17  20
TORSDOF 8
ENDMDL
MODEL 5
REMARK VINA RESULT:      -6.3     31.480     35.184
REMARK  Name = 26742025
REMARK  8 active torsions:
REMARK  status: ('A' for Active; 'I' for Inactive)
REMARK    1  A    between atoms: O_1  and  C_11
REMARK    2  A    between atoms: O_5  and  C_24
REMARK    3  A    between atoms: O_5  and  C_28
REMARK    4  A    between atoms: N_7  and  C_10
REMARK    5  A    between atoms: N_8  and  C_21
REMARK    6  A    between atoms: N_9  and  C_25
REMARK    7  A    between atoms: C_17  and  C_20
REMARK    8  A    between atoms: C_21  and  C_24
REMARK                            x       y       z     vdW  Elec       q    Type
REMARK                         _______ _______ _______ _____ _____    ______ ____
ROOT
ATOM      4  O   UNL     1      -8.171  -9.565  14.146  0.00  0.00    -0.270 OA
ATOM      7  N   UNL     1      -8.217 -10.550  16.244  0.00  0.00    -0.305 N 
ATOM     17  C   UNL     1      -8.751  -9.821  15.199  0.00  0.00    +0.244 C 
ATOM     36  H   UNL     1      -8.797 -10.813  17.033  0.00  0.00    +0.149 HD
ENDROOT
BRANCH   7  10
ATOM      3  O   UNL     1      -7.435 -12.553  20.373  0.00  0.00    -0.252 OA
ATOM      6  N   UNL     1      -6.678 -12.627  18.190  0.00  0.00    -0.284 N 
ATOM      9  N   UNL     1      -8.989 -12.443  18.650  0.00  0.00    -0.269 N 
ATOM     10  C   UNL     1      -6.876 -11.103  16.195  0.00  0.00    +0.119 C 
ATOM     11  C   UNL     1      -5.902 -10.111  16.857  0.00  0.00    +0.136 C 
ATOM     12  C   UNL     1      -4.542 -10.686  17.265  0.00  0.00    +0.035 C 
ATOM     13  C   UNL     1      -6.864 -12.538  16.735  0.00  0.00    +0.134 C 
ATOM     14  C   UNL     1      -4.565 -11.389  18.624  0.00  0.00    +0.022 C 
ATOM     15  C   UNL     1      -5.285 -12.731  18.629  0.00  0.00    +0.109 C 
ATOM     16  C   UNL     1      -7.698 -12.542  19.168  0.00  0.00    +0.307 C 
ATOM     38  H   UNL     1      -9.161 -12.825  17.727  0.00  0.00    +0.156 HD
BRANCH   9  25
ATOM     25  C   UNL     1     -10.110 -11.791  19.223  0.00  0.00    +0.035 A 
ATOM     31  C   UNL     1     -10.952 -12.485  20.092  0.00  0.00    +0.023 A 
ATOM     32  C   UNL     1     -10.373 -10.455  18.918  0.00  0.00    +0.023 A 
ATOM     33  C   UNL     1     -12.055 -11.844  20.655  0.00  0.00    +0.002 A 
ATOM     34  C   UNL     1     -11.476  -9.814  19.481  0.00  0.00    +0.002 A 
ATOM     35  C   UNL     1     -12.317 -10.510  20.350  0.00  0.00    +0.000 A 
ENDBRANCH   9  25
BRANCH  11   1
ATOM      1  O   UNL     1      -5.648  -9.056  15.920  0.00  0.00    -0.390 OA
ATOM     37  H   UNL     1      -6.430  -8.479  15.906  0.00  0.00    +0.210 HD
ENDBRANCH  11   1
ENDBRANCH   7  10
BRANCH  17  20
ATOM     20  C   UNL     1     -10.125  -9.301  15.415  0.00  0.00    +0.037 A 
ATOM     26  C   UNL     1     -11.228 -10.066  15.034  0.00  0.00    +0.016 A 
ATOM     27  C   UNL     1     -10.313  -8.047  15.996  0.00  0.00    +0.016 A 
ATOM     28  C   UNL     1     -12.707  -8.323  15.817  0.00  0.00    +0.121 A 
ATOM     29  C   UNL     1     -12.519  -9.577  15.235  0.00  0.00    +0.046 A 
ATOM     30  C   UNL     1     -11.604  -7.558  16.197  0.00  0.00    +0.046 A 
BRANCH  28   5
ATOM      5  O   UNL     1     -13.966  -7.845  16.014  0.00  0.00    -0.491 OA
BRANCH   5  24
ATOM     24  C   UNL     1     -14.303  -6.617  15.371  0.00  0.00    +0.244 C 
BRANCH  24  21
ATOM     21  C   UNL     1     -14.553  -6.889  13.896  0.00  0.00    +0.125 C 
BRANCH  21   8
ATOM      2  O   UNL     1     -13.169  -3.097  12.752  0.00  0.00    -0.377 OA
ATOM      8  N   UNL     1     -14.089  -5.770  13.080  0.00  0.00    -0.295 NA
ATOM     18  C   UNL     1     -12.727  -5.373  13.466  0.00  0.00    +0.112 C 
ATOM     19  C   UNL     1     -15.000  -4.623  13.199  0.00  0.00    +0.112 C 
ATOM     22  C   UNL     1     -12.269  -4.195  12.610  0.00  0.00    +0.175 C 
ATOM     23  C   UNL     1     -14.488  -3.465  12.348  0.00  0.00    +0.175 C 
ENDBRANCH  21   8
ENDBRANCH  24  21
ENDBRANCH   5  24
ENDBRANCH  28   5
ENDBRANCH  17  20
TORSDOF 8
ENDMDL
MODEL 6
REMARK VINA RESULT:      -6.3      2.120      3.114
REMARK  Name = 26742025
REMARK  8 active torsions:
REMARK  status: ('A' for Active; 'I' for Inactive)
REMARK    1  A    between atoms: O_1  and  C_11
REMARK    2  A    between atoms: O_5  and  C_24
REMARK    3  A    between atoms: O_5  and  C_28
REMARK    4  A    between atoms: N_7  and  C_10
REMARK    5  A    between atoms: N_8  and  C_21
REMARK    6  A    between atoms: N_9  and  C_25
REMARK    7  A    between atoms: C_17  and  C_20
REMARK    8  A    between atoms: C_21  and  C_24
REMARK                            x       y       z     vdW  Elec       q    Type
REMARK                         _______ _______ _______ _____ _____    ______ ____
ROOT
ATOM      4  O   UNL     1      20.126   4.441  20.409  0.00  0.00    -0.270 OA
ATOM      7  N   UNL     1      20.799   6.400  21.450  0.00  0.00    -0.305 N 
ATOM     17  C   UNL     1      19.908   5.597  20.763  0.00  0.00    +0.244 C 
ATOM     36  H   UNL     1      20.504   7.303  21.806  0.00  0.00    +0.149 HD
ENDROOT
BRANCH   7  10
ATOM      3  O   UNL     1      23.284  10.181  22.544  0.00  0.00    -0.252 OA
ATOM      6  N   UNL     1      23.255   7.901  22.925  0.00  0.00    -0.284 N 
ATOM      9  N   UNL     1      21.245   9.144  22.948  0.00  0.00    -0.269 N 
ATOM     10  C   UNL     1      22.120   5.938  21.832  0.00  0.00    +0.119 C 
ATOM     11  C   UNL     1      23.063   6.067  20.622  0.00  0.00    +0.136 C 
ATOM     12  C   UNL     1      24.561   6.022  20.938  0.00  0.00    +0.035 C 
ATOM     13  C   UNL     1      22.575   6.616  23.130  0.00  0.00    +0.134 C 
ATOM     14  C   UNL     1      25.129   7.374  21.375  0.00  0.00    +0.022 C 
ATOM     15  C   UNL     1      24.709   7.813  22.773  0.00  0.00    +0.109 C 
ATOM     16  C   UNL     1      22.630   9.164  22.788  0.00  0.00    +0.307 C 
ATOM     38  H   UNL     1      20.843   8.403  23.512  0.00  0.00    +0.156 HD
BRANCH   9  25
ATOM     25  C   UNL     1      20.286   9.997  22.345  0.00  0.00    +0.035 A 
ATOM     31  C   UNL     1      20.396  10.326  20.995  0.00  0.00    +0.023 A 
ATOM     32  C   UNL     1      19.232  10.507  23.104  0.00  0.00    +0.023 A 
ATOM     33  C   UNL     1      19.453  11.166  20.402  0.00  0.00    +0.002 A 
ATOM     34  C   UNL     1      18.289  11.347  22.511  0.00  0.00    +0.002 A 
ATOM     35  C   UNL     1      18.400  11.676  21.160  0.00  0.00    +0.000 A 
ENDBRANCH   9  25
BRANCH  11   1
ATOM      1  O   UNL     1      22.788   4.974  19.735  0.00  0.00    -0.390 OA
ATOM     37  H   UNL     1      22.361   4.272  20.255  0.00  0.00    +0.210 HD
ENDBRANCH  11   1
ENDBRANCH   7  10
BRANCH  17  20
ATOM     20  C   UNL     1      18.606   6.227  20.423  0.00  0.00    +0.037 A 
ATOM     26  C   UNL     1      17.832   5.709  19.384  0.00  0.00    +0.016 A 
ATOM     27  C   UNL     1      18.160   7.335  21.141  0.00  0.00    +0.016 A 
ATOM     28  C   UNL     1      16.163   7.410  19.782  0.00  0.00    +0.121 A 
ATOM     29  C   UNL     1      16.609   6.301  19.064  0.00  0.00    +0.046 A 
ATOM     30  C   UNL     1      16.937   7.928  20.821  0.00  0.00    +0.046 A 
BRANCH  28   5
ATOM      5  O   UNL     1      14.971   7.989  19.471  0.00  0.00    -0.491 OA
BRANCH   5  24
ATOM     24  C   UNL     1      13.850   7.121  19.309  0.00  0.00    +0.244 C 
BRANCH  24  21
ATOM     21  C   UNL     1      12.656   7.943  18.851  0.00  0.00    +0.125 C 
BRANCH  21   8
ATOM      2  O   UNL     1      10.840   8.096  22.630  0.00  0.00    -0.377 OA
ATOM      8  N   UNL     1      11.643   8.010  19.901  0.00  0.00    -0.295 NA
ATOM     18  C   UNL     1      11.815   9.222  20.714  0.00  0.00    +0.112 C 
ATOM     19  C   UNL     1      11.700   6.817  20.758  0.00  0.00    +0.112 C 
ATOM     22  C   UNL     1      10.754   9.263  21.812  0.00  0.00    +0.175 C 
ATOM     23  C   UNL     1      10.642   6.915  21.853  0.00  0.00    +0.175 C 
ENDBRANCH  21   8
ENDBRANCH  24  21
ENDBRANCH   5  24
ENDBRANCH  28   5
ENDBRANCH  17  20
TORSDOF 8
ENDMDL
MODEL 7
REMARK VINA RESULT:      -6.2     32.160     34.970
REMARK  Name = 26742025
REMARK  8 active torsions:
REMARK  status: ('A' for Active; 'I' for Inactive)
REMARK    1  A    between atoms: O_1  and  C_11
REMARK    2  A    between atoms: O_5  and  C_24
REMARK    3  A    between atoms: O_5  and  C_28
REMARK    4  A    between atoms: N_7  and  C_10
REMARK    5  A    between atoms: N_8  and  C_21
REMARK    6  A    between atoms: N_9  and  C_25
REMARK    7  A    between atoms: C_17  and  C_20
REMARK    8  A    between atoms: C_21  and  C_24
REMARK                            x       y       z     vdW  Elec       q    Type
REMARK                         _______ _______ _______ _____ _____    ______ ____
ROOT
ATOM      4  O   UNL     1     -10.030   9.607  18.443  0.00  0.00    -0.270 OA
ATOM      7  N   UNL     1     -11.337   8.404  16.953  0.00  0.00    -0.305 N 
ATOM     17  C   UNL     1     -10.960   8.840  18.210  0.00  0.00    +0.244 C 
ATOM     36  H   UNL     1     -12.184   7.861  16.833  0.00  0.00    +0.149 HD
ENDROOT
BRANCH   7  10
ATOM      3  O   UNL     1     -14.492  10.527  14.268  0.00  0.00    -0.252 OA
ATOM      6  N   UNL     1     -12.203  10.424  14.579  0.00  0.00    -0.284 N 
ATOM      9  N   UNL     1     -13.663  10.476  16.438  0.00  0.00    -0.269 N 
ATOM     10  C   UNL     1     -10.646   8.828  15.750  0.00  0.00    +0.119 C 
ATOM     11  C   UNL     1     -10.885   7.785  14.643  0.00  0.00    +0.136 C 
ATOM     12  C   UNL     1     -10.591   8.251  13.214  0.00  0.00    +0.035 C 
ATOM     13  C   UNL     1     -10.999  10.281  15.408  0.00  0.00    +0.134 C 
ATOM     14  C   UNL     1     -11.751   9.019  12.577  0.00  0.00    +0.022 C 
ATOM     15  C   UNL     1     -11.963  10.421  13.135  0.00  0.00    +0.109 C 
ATOM     16  C   UNL     1     -13.537  10.481  15.049  0.00  0.00    +0.307 C 
ATOM     38  H   UNL     1     -12.884  10.827  16.986  0.00  0.00    +0.156 HD
BRANCH   9  25
ATOM     25  C   UNL     1     -14.730   9.959  17.215  0.00  0.00    +0.035 A 
ATOM     31  C   UNL     1     -15.537  10.824  17.954  0.00  0.00    +0.023 A 
ATOM     32  C   UNL     1     -14.972   8.586  17.242  0.00  0.00    +0.023 A 
ATOM     33  C   UNL     1     -16.586  10.316  18.719  0.00  0.00    +0.002 A 
ATOM     34  C   UNL     1     -16.022   8.077  18.007  0.00  0.00    +0.002 A 
ATOM     35  C   UNL     1     -16.829   8.943  18.746  0.00  0.00    +0.000 A 
ENDBRANCH   9  25
BRANCH  11   1
ATOM      1  O   UNL     1     -10.026   6.666  14.905  0.00  0.00    -0.390 OA
ATOM     37  H   UNL     1      -9.207   7.009  15.300  0.00  0.00    +0.210 HD
ENDBRANCH  11   1
ENDBRANCH   7  10
BRANCH  17  20
ATOM     20  C   UNL     1     -11.751   8.293  19.343  0.00  0.00    +0.037 A 
ATOM     26  C   UNL     1     -12.683   9.100  19.995  0.00  0.00    +0.016 A 
ATOM     27  C   UNL     1     -11.560   6.975  19.754  0.00  0.00    +0.016 A 
ATOM     28  C   UNL     1     -13.234   7.269  21.472  0.00  0.00    +0.121 A 
ATOM     29  C   UNL     1     -13.425   8.588  21.060  0.00  0.00    +0.046 A 
ATOM     30  C   UNL     1     -12.302   6.462  20.819  0.00  0.00    +0.046 A 
BRANCH  28   5
ATOM      5  O   UNL     1     -13.958   6.768  22.510  0.00  0.00    -0.491 OA
BRANCH   5  24
ATOM     24  C   UNL     1     -14.349   5.399  22.429  0.00  0.00    +0.244 C 
BRANCH  24  21
ATOM     21  C   UNL     1     -15.866   5.326  22.365  0.00  0.00    +0.125 C 
BRANCH  21   8
ATOM      2  O   UNL     1     -16.505   1.934  24.752  0.00  0.00    -0.377 OA
ATOM      8  N   UNL     1     -16.384   4.438  23.403  0.00  0.00    -0.295 NA
ATOM     18  C   UNL     1     -15.303   3.992  24.294  0.00  0.00    +0.112 C 
ATOM     19  C   UNL     1     -17.056   3.274  22.807  0.00  0.00    +0.112 C 
ATOM     22  C   UNL     1     -15.865   3.056  25.361  0.00  0.00    +0.175 C 
ATOM     23  C   UNL     1     -17.577   2.357  23.909  0.00  0.00    +0.175 C 
ENDBRANCH  21   8
ENDBRANCH  24  21
ENDBRANCH   5  24
ENDBRANCH  28   5
ENDBRANCH  17  20
TORSDOF 8
ENDMDL
MODEL 8
REMARK VINA RESULT:      -6.2     17.024     21.181
REMARK  Name = 26742025
REMARK  8 active torsions:
REMARK  status: ('A' for Active; 'I' for Inactive)
REMARK    1  A    between atoms: O_1  and  C_11
REMARK    2  A    between atoms: O_5  and  C_24
REMARK    3  A    between atoms: O_5  and  C_28
REMARK    4  A    between atoms: N_7  and  C_10
REMARK    5  A    between atoms: N_8  and  C_21
REMARK    6  A    between atoms: N_9  and  C_25
REMARK    7  A    between atoms: C_17  and  C_20
REMARK    8  A    between atoms: C_21  and  C_24
REMARK                            x       y       z     vdW  Elec       q    Type
REMARK                         _______ _______ _______ _____ _____    ______ ____
ROOT
ATOM      4  O   UNL     1      14.780   8.274   6.059  0.00  0.00    -0.270 OA
ATOM      7  N   UNL     1      12.730   7.273   5.650  0.00  0.00    -0.305 N 
ATOM     17  C   UNL     1      14.006   7.681   5.312  0.00  0.00    +0.244 C 
ATOM     36  H   UNL     1      12.194   6.691   5.017  0.00  0.00    +0.149 HD
ENDROOT
BRANCH   7  10
ATOM      3  O   UNL     1       8.302   5.845   5.496  0.00  0.00    -0.252 OA
ATOM      6  N   UNL     1       9.984   6.258   7.027  0.00  0.00    -0.284 N 
ATOM      9  N   UNL     1      10.466   5.177   4.982  0.00  0.00    -0.269 N 
ATOM     10  C   UNL     1      12.165   7.515   6.965  0.00  0.00    +0.119 C 
ATOM     11  C   UNL     1      11.395   8.848   6.941  0.00  0.00    +0.136 C 
ATOM     12  C   UNL     1      10.404   9.065   8.088  0.00  0.00    +0.035 C 
ATOM     13  C   UNL     1      11.389   6.285   7.454  0.00  0.00    +0.134 C 
ATOM     14  C   UNL     1       9.043   8.410   7.846  0.00  0.00    +0.022 C 
ATOM     15  C   UNL     1       9.044   6.890   7.955  0.00  0.00    +0.109 C 
ATOM     16  C   UNL     1       9.495   5.757   5.797  0.00  0.00    +0.307 C 
ATOM     38  H   UNL     1      11.293   4.793   5.427  0.00  0.00    +0.156 HD
BRANCH   9  25
ATOM     25  C   UNL     1      10.493   5.117   3.565  0.00  0.00    +0.035 A 
ATOM     31  C   UNL     1      10.094   6.222   2.813  0.00  0.00    +0.023 A 
ATOM     32  C   UNL     1      10.918   3.954   2.924  0.00  0.00    +0.023 A 
ATOM     33  C   UNL     1      10.120   6.163   1.420  0.00  0.00    +0.002 A 
ATOM     34  C   UNL     1      10.944   3.895   1.530  0.00  0.00    +0.002 A 
ATOM     35  C   UNL     1      10.545   5.000   0.778  0.00  0.00    +0.000 A 
ENDBRANCH   9  25
BRANCH  11   1
ATOM      1  O   UNL     1      12.357   9.910   7.009  0.00  0.00    -0.390 OA
ATOM     37  H   UNL     1      12.350  10.370   6.153  0.00  0.00    +0.210 HD
ENDBRANCH  11   1
ENDBRANCH   7  10
BRANCH  17  20
ATOM     20  C   UNL     1      14.427   7.382   3.919  0.00  0.00    +0.037 A 
ATOM     26  C   UNL     1      15.613   7.920   3.419  0.00  0.00    +0.016 A 
ATOM     27  C   UNL     1      13.636   6.566   3.111  0.00  0.00    +0.016 A 
ATOM     28  C   UNL     1      15.217   6.825   1.302  0.00  0.00    +0.121 A 
ATOM     29  C   UNL     1      16.008   7.641   2.110  0.00  0.00    +0.046 A 
ATOM     30  C   UNL     1      14.031   6.287   1.802  0.00  0.00    +0.046 A 
BRANCH  28   5
ATOM      5  O   UNL     1      15.601   6.551   0.025  0.00  0.00    -0.491 OA
BRANCH   5  24
ATOM     24  C   UNL     1      15.081   5.364  -0.570  0.00  0.00    +0.244 C 
BRANCH  24  21
ATOM     21  C   UNL     1      14.408   5.729  -1.884  0.00  0.00    +0.125 C 
BRANCH  21   8
ATOM      2  O   UNL     1      11.134   3.108  -2.002  0.00  0.00    -0.377 OA
ATOM      8  N   UNL     1      13.492   4.672  -2.306  0.00  0.00    -0.295 NA
ATOM     18  C   UNL     1      12.161   5.223  -2.601  0.00  0.00    +0.112 C 
ATOM     19  C   UNL     1      13.388   3.630  -1.274  0.00  0.00    +0.112 C 
ATOM     22  C   UNL     1      11.219   4.099  -3.025  0.00  0.00    +0.175 C 
ATOM     23  C   UNL     1      12.418   2.545  -1.731  0.00  0.00    +0.175 C 
ENDBRANCH  21   8
ENDBRANCH  24  21
ENDBRANCH   5  24
ENDBRANCH  28   5
ENDBRANCH  17  20
TORSDOF 8
ENDMDL
MODEL 9
REMARK VINA RESULT:      -6.1     31.322     34.470
REMARK  Name = 26742025
REMARK  8 active torsions:
REMARK  status: ('A' for Active; 'I' for Inactive)
REMARK    1  A    between atoms: O_1  and  C_11
REMARK    2  A    between atoms: O_5  and  C_24
REMARK    3  A    between atoms: O_5  and  C_28
REMARK    4  A    between atoms: N_7  and  C_10
REMARK    5  A    between atoms: N_8  and  C_21
REMARK    6  A    between atoms: N_9  and  C_25
REMARK    7  A    between atoms: C_17  and  C_20
REMARK    8  A    between atoms: C_21  and  C_24
REMARK                            x       y       z     vdW  Elec       q    Type
REMARK                         _______ _______ _______ _____ _____    ______ ____
ROOT
ATOM      4  O   UNL     1     -10.970  11.865  30.320  0.00  0.00    -0.270 OA
ATOM      7  N   UNL     1      -9.685  11.704  32.243  0.00  0.00    -0.305 N 
ATOM     17  C   UNL     1     -10.731  11.352  31.411  0.00  0.00    +0.244 C 
ATOM     36  H   UNL     1      -9.487  11.158  33.074  0.00  0.00    +0.149 HD
ENDROOT
BRANCH   7  10
ATOM      3  O   UNL     1      -6.778  12.142  35.852  0.00  0.00    -0.252 OA
ATOM      6  N   UNL     1      -6.880  12.592  33.587  0.00  0.00    -0.284 N 
ATOM      9  N   UNL     1      -7.730  10.560  34.443  0.00  0.00    -0.269 N 
ATOM     10  C   UNL     1      -8.738  12.746  31.895  0.00  0.00    +0.119 C 
ATOM     11  C   UNL     1      -9.200  14.073  32.525  0.00  0.00    +0.136 C 
ATOM     12  C   UNL     1      -8.139  15.172  32.616  0.00  0.00    +0.035 C 
ATOM     13  C   UNL     1      -7.304  12.302  32.211  0.00  0.00    +0.134 C 
ATOM     14  C   UNL     1      -7.234  15.041  33.844  0.00  0.00    +0.022 C 
ATOM     15  C   UNL     1      -6.234  13.894  33.772  0.00  0.00    +0.109 C 
ATOM     16  C   UNL     1      -7.109  11.777  34.721  0.00  0.00    +0.307 C 
ATOM     38  H   UNL     1      -7.613  10.169  33.514  0.00  0.00    +0.156 HD
BRANCH   9  25
ATOM     25  C   UNL     1      -8.595   9.811  35.280  0.00  0.00    +0.035 A 
ATOM     31  C   UNL     1      -9.976   9.895  35.110  0.00  0.00    +0.023 A 
ATOM     32  C   UNL     1      -8.064   8.991  36.276  0.00  0.00    +0.023 A 
ATOM     33  C   UNL     1     -10.827   9.158  35.934  0.00  0.00    +0.002 A 
ATOM     34  C   UNL     1      -8.914   8.254  37.100  0.00  0.00    +0.002 A 
ATOM     35  C   UNL     1     -10.296   8.338  36.929  0.00  0.00    +0.000 A 
ENDBRANCH   9  25
BRANCH  11   1
ATOM      1  O   UNL     1     -10.271  14.588  31.721  0.00  0.00    -0.390 OA
ATOM     37  H   UNL     1      -9.971  14.589  30.796  0.00  0.00    +0.210 HD
ENDBRANCH  11   1
ENDBRANCH   7  10
BRANCH  17  20
ATOM     20  C   UNL     1     -11.628  10.285  31.923  0.00  0.00    +0.037 A 
ATOM     26  C   UNL     1     -11.297   8.944  31.730  0.00  0.00    +0.016 A 
ATOM     27  C   UNL     1     -12.802  10.624  32.595  0.00  0.00    +0.016 A 
ATOM     28  C   UNL     1     -13.314   8.280  32.882  0.00  0.00    +0.121 A 
ATOM     29  C   UNL     1     -12.140   7.941  32.210  0.00  0.00    +0.046 A 
ATOM     30  C   UNL     1     -13.645   9.621  33.075  0.00  0.00    +0.046 A 
BRANCH  28   5
ATOM      5  O   UNL     1     -14.137   7.303  33.351  0.00  0.00    -0.491 OA
BRANCH   5  24
ATOM     24  C   UNL     1     -14.101   6.045  32.679  0.00  0.00    +0.244 C 
BRANCH  24  21
ATOM     21  C   UNL     1     -14.217   4.935  33.712  0.00  0.00    +0.125 C 
BRANCH  21   8
ATOM      2  O   UNL     1     -14.738   1.460  31.417  0.00  0.00    -0.377 OA
ATOM      8  N   UNL     1     -13.982   3.631  33.096  0.00  0.00    -0.295 NA
ATOM     18  C   UNL     1     -13.949   3.745  31.631  0.00  0.00    +0.112 C 
ATOM     19  C   UNL     1     -15.016   2.668  33.502  0.00  0.00    +0.112 C 
ATOM     22  C   UNL     1     -13.716   2.370  31.010  0.00  0.00    +0.175 C 
ATOM     23  C   UNL     1     -14.756   1.319  32.838  0.00  0.00    +0.175 C 
ENDBRANCH  21   8
ENDBRANCH  24  21
ENDBRANCH   5  24
ENDBRANCH  28   5
ENDBRANCH  17  20
TORSDOF 8
ENDMDL
MODEL 10
REMARK VINA RESULT:      -6.0     15.836     19.708
REMARK  Name = 26742025
REMARK  8 active torsions:
REMARK  status: ('A' for Active; 'I' for Inactive)
REMARK    1  A    between atoms: O_1  and  C_11
REMARK    2  A    between atoms: O_5  and  C_24
REMARK    3  A    between atoms: O_5  and  C_28
REMARK    4  A    between atoms: N_7  and  C_10
REMARK    5  A    between atoms: N_8  and  C_21
REMARK    6  A    between atoms: N_9  and  C_25
REMARK    7  A    between atoms: C_17  and  C_20
REMARK    8  A    between atoms: C_21  and  C_24
REMARK                            x       y       z     vdW  Elec       q    Type
REMARK                         _______ _______ _______ _____ _____    ______ ____
ROOT
ATOM      4  O   UNL     1      14.789   8.350   2.626  0.00  0.00    -0.270 OA
ATOM      7  N   UNL     1      13.548   6.397   2.765  0.00  0.00    -0.305 N 
ATOM     17  C   UNL     1      13.981   7.632   3.210  0.00  0.00    +0.244 C 
ATOM     36  H   UNL     1      12.796   5.916   3.246  0.00  0.00    +0.149 HD
ENDROOT
BRANCH   7  10
ATOM      3  O   UNL     1       9.802   4.760   0.538  0.00  0.00    -0.252 OA
ATOM      6  N   UNL     1      11.971   5.435   0.109  0.00  0.00    -0.284 N 
ATOM      9  N   UNL     1      10.617   6.647   1.619  0.00  0.00    -0.269 N 
ATOM     10  C   UNL     1      14.020   5.814   1.524  0.00  0.00    +0.119 C 
ATOM     11  C   UNL     1      14.170   4.293   1.711  0.00  0.00    +0.136 C 
ATOM     12  C   UNL     1      14.255   3.468   0.424  0.00  0.00    +0.035 C 
ATOM     13  C   UNL     1      13.153   6.275   0.346  0.00  0.00    +0.134 C 
ATOM     14  C   UNL     1      12.887   3.140  -0.178  0.00  0.00    +0.022 C 
ATOM     15  C   UNL     1      12.180   4.325  -0.823  0.00  0.00    +0.109 C 
ATOM     16  C   UNL     1      10.715   5.562   0.750  0.00  0.00    +0.307 C 
ATOM     38  H   UNL     1      11.217   7.448   1.451  0.00  0.00    +0.156 HD
BRANCH   9  25
ATOM     25  C   UNL     1       9.824   6.757   2.790  0.00  0.00    +0.035 A 
ATOM     31  C   UNL     1       8.809   7.711   2.857  0.00  0.00    +0.023 A 
ATOM     32  C   UNL     1      10.060   5.913   3.875  0.00  0.00    +0.023 A 
ATOM     33  C   UNL     1       8.029   7.820   4.009  0.00  0.00    +0.002 A 
ATOM     34  C   UNL     1       9.280   6.021   5.026  0.00  0.00    +0.002 A 
ATOM     35  C   UNL     1       8.264   6.976   5.093  0.00  0.00    +0.000 A 
ENDBRANCH   9  25
BRANCH  11   1
ATOM      1  O   UNL     1      15.383   4.060   2.440  0.00  0.00    -0.390 OA
ATOM     37  H   UNL     1      15.140   3.850   3.358  0.00  0.00    +0.210 HD
ENDBRANCH  11   1
ENDBRANCH   7  10
BRANCH  17  20
ATOM     20  C   UNL     1      13.424   8.077   4.513  0.00  0.00    +0.037 A 
ATOM     26  C   UNL     1      14.020   7.664   5.704  0.00  0.00    +0.016 A 
ATOM     27  C   UNL     1      12.303   8.906   4.544  0.00  0.00    +0.016 A 
ATOM     28  C   UNL     1      12.375   8.911   6.959  0.00  0.00    +0.121 A 
ATOM     29  C   UNL     1      13.496   8.081   6.928  0.00  0.00    +0.046 A 
ATOM     30  C   UNL     1      11.779   9.324   5.768  0.00  0.00    +0.046 A 
BRANCH  28   5
ATOM      5  O   UNL     1      11.863   9.319   8.153  0.00  0.00    -0.491 OA
BRANCH   5  24
ATOM     24  C   UNL     1      11.196  10.579   8.177  0.00  0.00    +0.244 C 
BRANCH  24  21
ATOM     21  C   UNL     1      11.863  11.467   9.215  0.00  0.00    +0.125 C 
BRANCH  21   8
ATOM      2  O   UNL     1       8.912  13.117  11.699  0.00  0.00    -0.377 OA
ATOM      8  N   UNL     1      10.973  11.690  10.352  0.00  0.00    -0.295 NA
ATOM     18  C   UNL     1       9.565  11.579   9.941  0.00  0.00    +0.112 C 
ATOM     19  C   UNL     1      11.217  13.008  10.955  0.00  0.00    +0.112 C 
ATOM     22  C   UNL     1       8.655  11.829  11.141  0.00  0.00    +0.175 C 
ATOM     23  C   UNL     1      10.268  13.224  12.130  0.00  0.00    +0.175 C 
ENDBRANCH  21   8
ENDBRANCH  24  21
ENDBRANCH   5  24
ENDBRANCH  28   5
ENDBRANCH  17  20
TORSDOF 8
ENDMDL
