MODEL 1
REMARK VINA RESULT:      -6.7      0.000      0.000
REMARK  Name = 40779205
REMARK  6 active torsions:
REMARK  status: ('A' for Active; 'I' for Inactive)
REMARK    1  A    between atoms: N_3  and  C_18
REMARK    2  A    between atoms: N_4  and  C_14
REMARK    3  A    between atoms: N_6  and  C_20
REMARK    4  A    between atoms: C_8  and  C_15
REMARK    5  A    between atoms: C_9  and  C_14
REMARK    6  A    between atoms: C_17  and  C_26
REMARK                            x       y       z     vdW  Elec       q    Type
REMARK                         _______ _______ _______ _____ _____    ______ ____
ROOT
ATOM      2  N   UNL     1      13.811   5.025  -0.975  0.00  0.00    -0.297 NA
ATOM      7  C   UNL     1      12.297   3.392   0.377  0.00  0.00    +0.002 C 
ATOM      8  C   UNL     1      11.583   4.759   0.180  0.00  0.00    +0.055 C 
ATOM      9  C   UNL     1      14.582   4.428   0.147  0.00  0.00    +0.074 C 
ATOM     10  C   UNL     1      13.652   3.621   1.079  0.00  0.00    +0.024 C 
ATOM     11  C   UNL     1      12.604   2.842  -1.032  0.00  0.00    +0.019 C 
ATOM     12  C   UNL     1      12.617   5.734  -0.450  0.00  0.00    +0.094 C 
ATOM     13  C   UNL     1      13.344   3.919  -1.845  0.00  0.00    +0.085 C 
ENDROOT
BRANCH   8  15
ATOM      3  N   UNL     1      10.084   6.487   1.277  0.00  0.00    -0.270 N 
ATOM      5  N   UNL     1       9.538   6.869   2.444  0.00  0.00    -0.171 NA
ATOM     15  C   UNL     1      10.863   5.372   1.372  0.00  0.00    +0.044 A 
ATOM     16  C   UNL     1      10.823   4.997   2.694  0.00  0.00    +0.053 A 
ATOM     17  C   UNL     1       9.992   5.955   3.306  0.00  0.00    +0.093 A 
ATOM     18  C   UNL     1       9.813   7.258   0.086  0.00  0.00    +0.172 C 
BRANCH  17  26
ATOM     26  C   UNL     1       9.626   6.014   4.697  0.00  0.00    +0.002 A 
ATOM     27  C   UNL     1      10.074   5.029   5.577  0.00  0.00    +0.010 A 
ATOM     28  C   UNL     1       8.826   7.056   5.165  0.00  0.00    +0.010 A 
ATOM     29  C   UNL     1       9.720   5.086   6.925  0.00  0.00    +0.001 A 
ATOM     30  C   UNL     1       8.472   7.113   6.513  0.00  0.00    +0.001 A 
ATOM     31  C   UNL     1       8.919   6.128   7.393  0.00  0.00    +0.000 A 
ENDBRANCH  17  26
ENDBRANCH   8  15
BRANCH   9  14
ATOM     14  C   UNL     1      15.394   5.472   0.915  0.00  0.00    +0.124 C 
BRANCH  14   4
ATOM      1  O   UNL     1      15.983   7.657   2.690  0.00  0.00    -0.253 OA
ATOM      4  N   UNL     1      14.843   5.689   2.217  0.00  0.00    -0.298 N 
ATOM      6  N   UNL     1      14.505   6.757   4.239  0.00  0.00    -0.297 N 
ATOM     19  C   UNL     1      15.182   6.783   3.023  0.00  0.00    +0.300 C 
ATOM     32  H   UNL     1      14.174   5.016   2.578  0.00  0.00    +0.150 HD
ATOM     33  H   UNL     1      13.923   5.950   4.441  0.00  0.00    +0.151 HD
BRANCH   6  20
ATOM     20  C   UNL     1      14.670   7.769   5.258  0.00  0.00    +0.074 C 
ATOM     21  C   UNL     1      13.673   8.917   5.063  0.00  0.00    +0.022 C 
ATOM     22  C   UNL     1      14.550   7.163   6.660  0.00  0.00    +0.022 C 
ATOM     23  C   UNL     1      12.240   8.512   5.408  0.00  0.00    +0.002 C 
ATOM     24  C   UNL     1      13.115   6.761   7.004  0.00  0.00    +0.002 C 
ATOM     25  C   UNL     1      12.145   7.922   6.812  0.00  0.00    +0.000 C 
ENDBRANCH   6  20
ENDBRANCH  14   4
ENDBRANCH   9  14
TORSDOF 5
ENDMDL
MODEL 2
REMARK VINA RESULT:      -6.6     24.140     27.186
REMARK  Name = 40779205
REMARK  6 active torsions:
REMARK  status: ('A' for Active; 'I' for Inactive)
REMARK    1  A    between atoms: N_3  and  C_18
REMARK    2  A    between atoms: N_4  and  C_14
REMARK    3  A    between atoms: N_6  and  C_20
REMARK    4  A    between atoms: C_8  and  C_15
REMARK    5  A    between atoms: C_9  and  C_14
REMARK    6  A    between atoms: C_17  and  C_26
REMARK                            x       y       z     vdW  Elec       q    Type
REMARK                         _______ _______ _______ _____ _____    ______ ____
ROOT
ATOM      2  N   UNL     1      -5.934 -10.550   9.499  0.00  0.00    -0.297 NA
ATOM      7  C   UNL     1      -4.285  -8.940  10.714  0.00  0.00    +0.002 C 
ATOM      8  C   UNL     1      -4.017 -10.413  11.134  0.00  0.00    +0.055 C 
ATOM      9  C   UNL     1      -6.685  -9.430  10.124  0.00  0.00    +0.074 C 
ATOM     10  C   UNL     1      -5.755  -8.582  11.019  0.00  0.00    +0.024 C 
ATOM     11  C   UNL     1      -4.112  -8.876   9.181  0.00  0.00    +0.019 C 
ATOM     12  C   UNL     1      -5.158 -11.281  10.532  0.00  0.00    +0.094 C 
ATOM     13  C   UNL     1      -4.976  -9.969   8.528  0.00  0.00    +0.085 C 
ENDROOT
BRANCH   8  15
ATOM      3  N   UNL     1      -2.582 -10.513  13.224  0.00  0.00    -0.270 N 
ATOM      5  N   UNL     1      -2.582 -10.835  14.529  0.00  0.00    -0.171 NA
ATOM     15  C   UNL     1      -3.784 -10.707  12.608  0.00  0.00    +0.044 A 
ATOM     16  C   UNL     1      -4.629 -11.189  13.578  0.00  0.00    +0.053 A 
ATOM     17  C   UNL     1      -3.835 -11.247  14.740  0.00  0.00    +0.093 A 
ATOM     18  C   UNL     1      -1.367 -10.019  12.620  0.00  0.00    +0.172 C 
BRANCH  17  26
ATOM     26  C   UNL     1      -4.251 -11.689  16.045  0.00  0.00    +0.002 A 
ATOM     27  C   UNL     1      -4.057 -10.866  17.155  0.00  0.00    +0.010 A 
ATOM     28  C   UNL     1      -4.850 -12.940  16.201  0.00  0.00    +0.010 A 
ATOM     29  C   UNL     1      -4.460 -11.294  18.419  0.00  0.00    +0.001 A 
ATOM     30  C   UNL     1      -5.253 -13.368  17.465  0.00  0.00    +0.001 A 
ATOM     31  C   UNL     1      -5.058 -12.545  18.575  0.00  0.00    +0.000 A 
ENDBRANCH  17  26
ENDBRANCH   8  15
BRANCH   9  14
ATOM     14  C   UNL     1      -7.923  -9.911  10.883  0.00  0.00    +0.124 C 
BRANCH  14   4
ATOM      1  O   UNL     1     -10.022  -9.919  12.849  0.00  0.00    -0.253 OA
ATOM      4  N   UNL     1      -7.781  -9.682  12.288  0.00  0.00    -0.298 N 
ATOM      6  N   UNL     1      -8.447  -9.451  14.489  0.00  0.00    -0.297 N 
ATOM     19  C   UNL     1      -8.858  -9.703  13.183  0.00  0.00    +0.300 C 
ATOM     32  H   UNL     1      -6.854  -9.492  12.655  0.00  0.00    +0.150 HD
ATOM     33  H   UNL     1      -7.472  -9.212  14.642  0.00  0.00    +0.151 HD
BRANCH   6  20
ATOM     20  C   UNL     1      -9.357  -9.415  15.612  0.00  0.00    +0.074 C 
ATOM     21  C   UNL     1      -9.759 -10.830  16.041  0.00  0.00    +0.022 C 
ATOM     22  C   UNL     1      -8.757  -8.629  16.782  0.00  0.00    +0.022 C 
ATOM     23  C   UNL     1      -8.618 -11.579  16.730  0.00  0.00    +0.002 C 
ATOM     24  C   UNL     1      -7.617  -9.381  17.469  0.00  0.00    +0.002 C 
ATOM     25  C   UNL     1      -8.044 -10.781  17.897  0.00  0.00    +0.000 C 
ENDBRANCH   6  20
ENDBRANCH  14   4
ENDBRANCH   9  14
TORSDOF 5
ENDMDL
MODEL 3
REMARK VINA RESULT:      -6.4     24.737     28.280
REMARK  Name = 40779205
REMARK  6 active torsions:
REMARK  status: ('A' for Active; 'I' for Inactive)
REMARK    1  A    between atoms: N_3  and  C_18
REMARK    2  A    between atoms: N_4  and  C_14
REMARK    3  A    between atoms: N_6  and  C_20
REMARK    4  A    between atoms: C_8  and  C_15
REMARK    5  A    between atoms: C_9  and  C_14
REMARK    6  A    between atoms: C_17  and  C_26
REMARK                            x       y       z     vdW  Elec       q    Type
REMARK                         _______ _______ _______ _____ _____    ______ ____
ROOT
ATOM      2  N   UNL     1      -6.574 -10.518  17.920  0.00  0.00    -0.297 NA
ATOM      7  C   UNL     1      -4.458 -11.969  17.469  0.00  0.00    +0.002 C 
ATOM      8  C   UNL     1      -4.363 -10.616  16.709  0.00  0.00    +0.055 C 
ATOM      9  C   UNL     1      -6.976 -11.891  17.515  0.00  0.00    +0.074 C 
ATOM     10  C   UNL     1      -5.749 -12.702  17.046  0.00  0.00    +0.024 C 
ATOM     11  C   UNL     1      -4.602 -11.628  18.968  0.00  0.00    +0.019 C 
ATOM     12  C   UNL     1      -5.735  -9.902  16.863  0.00  0.00    +0.094 C 
ATOM     13  C   UNL     1      -5.757 -10.628  19.152  0.00  0.00    +0.085 C 
ENDROOT
BRANCH   8  15
ATOM      3  N   UNL     1      -2.560 -10.597  14.924  0.00  0.00    -0.270 N 
ATOM      5  N   UNL     1      -2.342 -10.621  13.599  0.00  0.00    -0.171 NA
ATOM     15  C   UNL     1      -3.879 -10.636  15.267  0.00  0.00    +0.044 A 
ATOM     16  C   UNL     1      -4.573 -10.690  14.082  0.00  0.00    +0.053 A 
ATOM     17  C   UNL     1      -3.575 -10.678  13.089  0.00  0.00    +0.093 A 
ATOM     18  C   UNL     1      -1.431 -10.531  15.823  0.00  0.00    +0.172 C 
BRANCH  17  26
ATOM     26  C   UNL     1      -3.778 -10.720  11.664  0.00  0.00    +0.002 A 
ATOM     27  C   UNL     1      -3.923 -11.946  11.017  0.00  0.00    +0.010 A 
ATOM     28  C   UNL     1      -3.831  -9.534  10.932  0.00  0.00    +0.010 A 
ATOM     29  C   UNL     1      -4.120 -11.987   9.636  0.00  0.00    +0.001 A 
ATOM     30  C   UNL     1      -4.027  -9.574   9.552  0.00  0.00    +0.001 A 
ATOM     31  C   UNL     1      -4.172 -10.800   8.904  0.00  0.00    +0.000 A 
ENDBRANCH  17  26
ENDBRANCH   8  15
BRANCH   9  14
ATOM     14  C   UNL     1      -8.091 -11.887  16.468  0.00  0.00    +0.124 C 
BRANCH  14   4
ATOM      1  O   UNL     1      -8.793 -10.120  14.310  0.00  0.00    -0.253 OA
ATOM      4  N   UNL     1      -8.872 -10.691  16.560  0.00  0.00    -0.298 N 
ATOM      6  N   UNL     1      -9.944  -8.783  15.819  0.00  0.00    -0.297 N 
ATOM     19  C   UNL     1      -9.171  -9.883  15.457  0.00  0.00    +0.300 C 
ATOM     32  H   UNL     1      -9.225 -10.413  17.470  0.00  0.00    +0.150 HD
ATOM     33  H   UNL     1     -10.138  -8.643  16.806  0.00  0.00    +0.151 HD
BRANCH   6  20
ATOM     20  C   UNL     1     -10.395  -7.786  14.874  0.00  0.00    +0.074 C 
ATOM     21  C   UNL     1     -11.780  -8.137  14.320  0.00  0.00    +0.022 C 
ATOM     22  C   UNL     1     -10.386  -6.389  15.501  0.00  0.00    +0.022 C 
ATOM     23  C   UNL     1     -12.888  -7.950  15.355  0.00  0.00    +0.002 C 
ATOM     24  C   UNL     1     -11.497  -6.204  16.535  0.00  0.00    +0.002 C 
ATOM     25  C   UNL     1     -12.866  -6.549  15.957  0.00  0.00    +0.000 C 
ENDBRANCH   6  20
ENDBRANCH  14   4
ENDBRANCH   9  14
TORSDOF 5
ENDMDL
MODEL 4
REMARK VINA RESULT:      -6.2     25.559     28.875
REMARK  Name = 40779205
REMARK  6 active torsions:
REMARK  status: ('A' for Active; 'I' for Inactive)
REMARK    1  A    between atoms: N_3  and  C_18
REMARK    2  A    between atoms: N_4  and  C_14
REMARK    3  A    between atoms: N_6  and  C_20
REMARK    4  A    between atoms: C_8  and  C_15
REMARK    5  A    between atoms: C_9  and  C_14
REMARK    6  A    between atoms: C_17  and  C_26
REMARK                            x       y       z     vdW  Elec       q    Type
REMARK                         _______ _______ _______ _____ _____    ______ ____
ROOT
ATOM      2  N   UNL     1      -5.949 -12.828  17.398  0.00  0.00    -0.297 NA
ATOM      7  C   UNL     1      -6.019 -10.360  18.226  0.00  0.00    +0.002 C 
ATOM      8  C   UNL     1      -7.362 -11.076  18.538  0.00  0.00    +0.055 C 
ATOM      9  C   UNL     1      -5.507 -11.915  16.311  0.00  0.00    +0.074 C 
ATOM     10  C   UNL     1      -5.737 -10.442  16.711  0.00  0.00    +0.024 C 
ATOM     11  C   UNL     1      -4.909 -11.164  18.938  0.00  0.00    +0.019 C 
ATOM     12  C   UNL     1      -7.319 -12.466  17.840  0.00  0.00    +0.094 C 
ATOM     13  C   UNL     1      -5.030 -12.648  18.547  0.00  0.00    +0.085 C 
ENDROOT
BRANCH   8  15
ATOM      3  N   UNL     1      -9.817 -10.569  18.932  0.00  0.00    -0.270 N 
ATOM      5  N   UNL     1     -10.847  -9.805  18.532  0.00  0.00    -0.171 NA
ATOM     15  C   UNL     1      -8.657 -10.329  18.256  0.00  0.00    +0.044 A 
ATOM     16  C   UNL     1      -8.949  -9.337  17.350  0.00  0.00    +0.053 A 
ATOM     17  C   UNL     1     -10.312  -9.054  17.566  0.00  0.00    +0.093 A 
ATOM     18  C   UNL     1     -10.023 -11.533  19.987  0.00  0.00    +0.172 C 
BRANCH  17  26
ATOM     26  C   UNL     1     -11.109  -8.081  16.867  0.00  0.00    +0.002 A 
ATOM     27  C   UNL     1     -12.477  -8.295  16.694  0.00  0.00    +0.010 A 
ATOM     28  C   UNL     1     -10.515  -6.924  16.363  0.00  0.00    +0.010 A 
ATOM     29  C   UNL     1     -13.250  -7.352  16.016  0.00  0.00    +0.001 A 
ATOM     30  C   UNL     1     -11.289  -5.981  15.685  0.00  0.00    +0.001 A 
ATOM     31  C   UNL     1     -12.656  -6.196  15.512  0.00  0.00    +0.000 A 
ENDBRANCH  17  26
ENDBRANCH   8  15
BRANCH   9  14
ATOM     14  C   UNL     1      -6.158 -12.250  14.968  0.00  0.00    +0.124 C 
BRANCH  14   4
ATOM      1  O   UNL     1      -4.166 -12.925  13.006  0.00  0.00    -0.253 OA
ATOM      4  N   UNL     1      -5.655 -11.401  13.932  0.00  0.00    -0.298 N 
ATOM      6  N   UNL     1      -4.369 -10.792  12.111  0.00  0.00    -0.297 N 
ATOM     19  C   UNL     1      -4.680 -11.807  13.012  0.00  0.00    +0.300 C 
ATOM     32  H   UNL     1      -6.020 -10.457  13.861  0.00  0.00    +0.150 HD
ATOM     33  H   UNL     1      -4.800  -9.883  12.252  0.00  0.00    +0.151 HD
BRANCH   6  20
ATOM     20  C   UNL     1      -3.393 -10.943  11.055  0.00  0.00    +0.074 C 
ATOM     21  C   UNL     1      -3.945 -11.804   9.913  0.00  0.00    +0.022 C 
ATOM     22  C   UNL     1      -2.920  -9.579  10.542  0.00  0.00    +0.022 C 
ATOM     23  C   UNL     1      -5.016 -11.077   9.098  0.00  0.00    +0.002 C 
ATOM     24  C   UNL     1      -3.992  -8.856   9.726  0.00  0.00    +0.002 C 
ATOM     25  C   UNL     1      -4.517  -9.728   8.590  0.00  0.00    +0.000 C 
ENDBRANCH   6  20
ENDBRANCH  14   4
ENDBRANCH   9  14
TORSDOF 5
ENDMDL
MODEL 5
REMARK VINA RESULT:      -6.2     26.829     30.124
REMARK  Name = 40779205
REMARK  6 active torsions:
REMARK  status: ('A' for Active; 'I' for Inactive)
REMARK    1  A    between atoms: N_3  and  C_18
REMARK    2  A    between atoms: N_4  and  C_14
REMARK    3  A    between atoms: N_6  and  C_20
REMARK    4  A    between atoms: C_8  and  C_15
REMARK    5  A    between atoms: C_9  and  C_14
REMARK    6  A    between atoms: C_17  and  C_26
REMARK                            x       y       z     vdW  Elec       q    Type
REMARK                         _______ _______ _______ _____ _____    ______ ____
ROOT
ATOM      2  N   UNL     1      -5.624 -11.901  17.271  0.00  0.00    -0.297 NA
ATOM      7  C   UNL     1      -6.211 -11.297  19.736  0.00  0.00    +0.002 C 
ATOM      8  C   UNL     1      -7.230 -12.326  19.170  0.00  0.00    +0.055 C 
ATOM      9  C   UNL     1      -5.650 -10.424  17.440  0.00  0.00    +0.074 C 
ATOM     10  C   UNL     1      -6.196 -10.045  18.834  0.00  0.00    +0.024 C 
ATOM     11  C   UNL     1      -4.816 -11.949  19.631  0.00  0.00    +0.019 C 
ATOM     12  C   UNL     1      -6.937 -12.480  17.651  0.00  0.00    +0.094 C 
ATOM     13  C   UNL     1      -4.597 -12.446  18.191  0.00  0.00    +0.085 C 
ENDROOT
BRANCH   8  15
ATOM      3  N   UNL     1      -9.468 -12.978  20.172  0.00  0.00    -0.270 N 
ATOM      5  N   UNL     1     -10.750 -12.600  20.309  0.00  0.00    -0.171 NA
ATOM     15  C   UNL     1      -8.708 -12.103  19.454  0.00  0.00    +0.044 A 
ATOM     16  C   UNL     1      -9.552 -11.079  19.096  0.00  0.00    +0.053 A 
ATOM     17  C   UNL     1     -10.796 -11.439  19.651  0.00  0.00    +0.093 A 
ATOM     18  C   UNL     1      -9.033 -14.221  20.766  0.00  0.00    +0.172 C 
BRANCH  17  26
ATOM     26  C   UNL     1     -12.025 -10.695  19.561  0.00  0.00    +0.002 A 
ATOM     27  C   UNL     1     -12.706 -10.331  20.723  0.00  0.00    +0.010 A 
ATOM     28  C   UNL     1     -12.535 -10.336  18.313  0.00  0.00    +0.010 A 
ATOM     29  C   UNL     1     -13.897  -9.610  20.637  0.00  0.00    +0.001 A 
ATOM     30  C   UNL     1     -13.726  -9.615  18.227  0.00  0.00    +0.001 A 
ATOM     31  C   UNL     1     -14.407  -9.252  19.388  0.00  0.00    +0.000 A 
ENDBRANCH  17  26
ENDBRANCH   8  15
BRANCH   9  14
ATOM     14  C   UNL     1      -6.417  -9.724  16.317  0.00  0.00    +0.124 C 
BRANCH  14   4
ATOM      1  O   UNL     1      -6.669 -11.310  13.932  0.00  0.00    -0.253 OA
ATOM      4  N   UNL     1      -5.615  -9.627  15.136  0.00  0.00    -0.298 N 
ATOM      6  N   UNL     1      -4.892 -10.141  13.002  0.00  0.00    -0.297 N 
ATOM     19  C   UNL     1      -5.803 -10.439  14.012  0.00  0.00    +0.300 C 
ATOM     32  H   UNL     1      -4.872  -8.936  15.112  0.00  0.00    +0.150 HD
ATOM     33  H   UNL     1      -4.171  -9.453  13.202  0.00  0.00    +0.151 HD
BRANCH   6  20
ATOM     20  C   UNL     1      -4.864 -10.830  11.732  0.00  0.00    +0.074 C 
ATOM     21  C   UNL     1      -5.695 -10.085  10.682  0.00  0.00    +0.022 C 
ATOM     22  C   UNL     1      -3.424 -11.041  11.252  0.00  0.00    +0.022 C 
ATOM     23  C   UNL     1      -5.031  -8.787  10.223  0.00  0.00    +0.002 C 
ATOM     24  C   UNL     1      -2.763  -9.741  10.791  0.00  0.00    +0.002 C 
ATOM     25  C   UNL     1      -3.604  -9.025   9.740  0.00  0.00    +0.000 C 
ENDBRANCH   6  20
ENDBRANCH  14   4
ENDBRANCH   9  14
TORSDOF 5
ENDMDL
MODEL 6
REMARK VINA RESULT:      -6.2     25.830     29.350
REMARK  Name = 40779205
REMARK  6 active torsions:
REMARK  status: ('A' for Active; 'I' for Inactive)
REMARK    1  A    between atoms: N_3  and  C_18
REMARK    2  A    between atoms: N_4  and  C_14
REMARK    3  A    between atoms: N_6  and  C_20
REMARK    4  A    between atoms: C_8  and  C_15
REMARK    5  A    between atoms: C_9  and  C_14
REMARK    6  A    between atoms: C_17  and  C_26
REMARK                            x       y       z     vdW  Elec       q    Type
REMARK                         _______ _______ _______ _____ _____    ______ ____
ROOT
ATOM      2  N   UNL     1      -5.323 -10.678  18.495  0.00  0.00    -0.297 NA
ATOM      7  C   UNL     1      -5.045 -12.592  16.750  0.00  0.00    +0.002 C 
ATOM      8  C   UNL     1      -3.992 -11.475  16.505  0.00  0.00    +0.055 C 
ATOM      9  C   UNL     1      -6.637 -10.996  17.876  0.00  0.00    +0.074 C 
ATOM     10  C   UNL     1      -6.460 -11.979  16.698  0.00  0.00    +0.024 C 
ATOM     11  C   UNL     1      -4.825 -13.104  18.190  0.00  0.00    +0.019 C 
ATOM     12  C   UNL     1      -4.348 -10.289  17.446  0.00  0.00    +0.094 C 
ATOM     13  C   UNL     1      -4.823 -11.907  19.157  0.00  0.00    +0.085 C 
ENDROOT
BRANCH   8  15
ATOM      3  N   UNL     1      -2.495 -10.864  14.550  0.00  0.00    -0.270 N 
ATOM      5  N   UNL     1      -2.491 -10.457  13.270  0.00  0.00    -0.171 NA
ATOM     15  C   UNL     1      -3.744 -11.023  15.074  0.00  0.00    +0.044 A 
ATOM     16  C   UNL     1      -4.619 -10.697  14.065  0.00  0.00    +0.053 A 
ATOM     17  C   UNL     1      -3.790 -10.356  12.978  0.00  0.00    +0.093 A 
ATOM     18  C   UNL     1      -1.237 -11.083  15.224  0.00  0.00    +0.172 C 
BRANCH  17  26
ATOM     26  C   UNL     1      -4.218  -9.936  11.669  0.00  0.00    +0.002 A 
ATOM     27  C   UNL     1      -5.577  -9.907  11.356  0.00  0.00    +0.010 A 
ATOM     28  C   UNL     1      -3.274  -9.557  10.715  0.00  0.00    +0.010 A 
ATOM     29  C   UNL     1      -5.991  -9.500  10.088  0.00  0.00    +0.001 A 
ATOM     30  C   UNL     1      -3.688  -9.150   9.447  0.00  0.00    +0.001 A 
ATOM     31  C   UNL     1      -5.047  -9.122   9.134  0.00  0.00    +0.000 A 
ENDBRANCH  17  26
ENDBRANCH   8  15
BRANCH   9  14
ATOM     14  C   UNL     1      -7.405  -9.740  17.462  0.00  0.00    +0.124 C 
BRANCH  14   4
ATOM      1  O   UNL     1      -9.891 -11.026  16.800  0.00  0.00    -0.253 OA
ATOM      4  N   UNL     1      -8.639  -9.638  18.178  0.00  0.00    -0.298 N 
ATOM      6  N   UNL     1     -10.866 -10.031  18.657  0.00  0.00    -0.297 N 
ATOM     19  C   UNL     1      -9.810 -10.299  17.789  0.00  0.00    +0.300 C 
ATOM     32  H   UNL     1      -8.669  -9.055  19.009  0.00  0.00    +0.150 HD
ATOM     33  H   UNL     1     -10.709  -9.357  19.401  0.00  0.00    +0.151 HD
BRANCH   6  20
ATOM     20  C   UNL     1     -12.190 -10.586  18.488  0.00  0.00    +0.074 C 
ATOM     21  C   UNL     1     -12.280 -11.991  19.094  0.00  0.00    +0.022 C 
ATOM     22  C   UNL     1     -13.256  -9.657  19.079  0.00  0.00    +0.022 C 
ATOM     23  C   UNL     1     -12.262 -11.970  20.623  0.00  0.00    +0.002 C 
ATOM     24  C   UNL     1     -13.236  -9.640  20.608  0.00  0.00    +0.002 C 
ATOM     25  C   UNL     1     -13.339 -11.048  21.187  0.00  0.00    +0.000 C 
ENDBRANCH   6  20
ENDBRANCH  14   4
ENDBRANCH   9  14
TORSDOF 5
ENDMDL
MODEL 7
REMARK VINA RESULT:      -6.2     12.388     15.882
REMARK  Name = 40779205
REMARK  6 active torsions:
REMARK  status: ('A' for Active; 'I' for Inactive)
REMARK    1  A    between atoms: N_3  and  C_18
REMARK    2  A    between atoms: N_4  and  C_14
REMARK    3  A    between atoms: N_6  and  C_20
REMARK    4  A    between atoms: C_8  and  C_15
REMARK    5  A    between atoms: C_9  and  C_14
REMARK    6  A    between atoms: C_17  and  C_26
REMARK                            x       y       z     vdW  Elec       q    Type
REMARK                         _______ _______ _______ _____ _____    ______ ____
ROOT
ATOM      2  N   UNL     1      15.748  -7.251  -5.532  0.00  0.00    -0.297 NA
ATOM      7  C   UNL     1      14.830  -5.936  -3.480  0.00  0.00    +0.002 C 
ATOM      8  C   UNL     1      16.164  -5.310  -3.975  0.00  0.00    +0.055 C 
ATOM      9  C   UNL     1      15.409  -8.195  -4.435  0.00  0.00    +0.074 C 
ATOM     10  C   UNL     1      15.060  -7.425  -3.143  0.00  0.00    +0.024 C 
ATOM     11  C   UNL     1      13.846  -5.888  -4.668  0.00  0.00    +0.019 C 
ATOM     12  C   UNL     1      16.746  -6.260  -5.060  0.00  0.00    +0.094 C 
ATOM     13  C   UNL     1      14.512  -6.521  -5.903  0.00  0.00    +0.085 C 
ENDROOT
BRANCH   8  15
ATOM      3  N   UNL     1      17.369  -3.633  -2.501  0.00  0.00    -0.270 N 
ATOM      5  N   UNL     1      18.339  -3.493  -1.582  0.00  0.00    -0.171 NA
ATOM     15  C   UNL     1      17.202  -4.915  -2.935  0.00  0.00    +0.044 A 
ATOM     16  C   UNL     1      18.127  -5.666  -2.252  0.00  0.00    +0.053 A 
ATOM     17  C   UNL     1      18.798  -4.737  -1.433  0.00  0.00    +0.093 A 
ATOM     18  C   UNL     1      16.629  -2.468  -2.929  0.00  0.00    +0.172 C 
BRANCH  17  26
ATOM     26  C   UNL     1      19.870  -5.018  -0.513  0.00  0.00    +0.002 A 
ATOM     27  C   UNL     1      19.652  -4.922   0.861  0.00  0.00    +0.010 A 
ATOM     28  C   UNL     1      21.125  -5.388  -0.996  0.00  0.00    +0.010 A 
ATOM     29  C   UNL     1      20.690  -5.194   1.752  0.00  0.00    +0.001 A 
ATOM     30  C   UNL     1      22.163  -5.660  -0.105  0.00  0.00    +0.001 A 
ATOM     31  C   UNL     1      21.946  -5.563   1.269  0.00  0.00    +0.000 A 
ENDBRANCH  17  26
ENDBRANCH   8  15
BRANCH   9  14
ATOM     14  C   UNL     1      16.506  -9.235  -4.201  0.00  0.00    +0.124 C 
BRANCH  14   4
ATOM      1  O   UNL     1      18.643 -10.767  -3.036  0.00  0.00    -0.253 OA
ATOM      4  N   UNL     1      16.842  -9.318  -2.813  0.00  0.00    -0.298 N 
ATOM      6  N   UNL     1      18.014  -9.995  -0.939  0.00  0.00    -0.297 N 
ATOM     19  C   UNL     1      17.903 -10.089  -2.324  0.00  0.00    +0.300 C 
ATOM     32  H   UNL     1      16.282  -8.793  -2.148  0.00  0.00    +0.150 HD
ATOM     33  H   UNL     1      17.304  -9.466  -0.441  0.00  0.00    +0.151 HD
BRANCH   6  20
ATOM     20  C   UNL     1      19.025 -10.692  -0.177  0.00  0.00    +0.074 C 
ATOM     21  C   UNL     1      20.287  -9.837  -0.024  0.00  0.00    +0.022 C 
ATOM     22  C   UNL     1      18.482 -11.129   1.188  0.00  0.00    +0.022 C 
ATOM     23  C   UNL     1      20.085  -8.662   0.933  0.00  0.00    +0.002 C 
ATOM     24  C   UNL     1      18.283  -9.951   2.144  0.00  0.00    +0.002 C 
ATOM     25  C   UNL     1      19.555  -9.123   2.287  0.00  0.00    +0.000 C 
ENDBRANCH   6  20
ENDBRANCH  14   4
ENDBRANCH   9  14
TORSDOF 5
ENDMDL
MODEL 8
REMARK VINA RESULT:      -6.1     24.164     27.190
REMARK  Name = 40779205
REMARK  6 active torsions:
REMARK  status: ('A' for Active; 'I' for Inactive)
REMARK    1  A    between atoms: N_3  and  C_18
REMARK    2  A    between atoms: N_4  and  C_14
REMARK    3  A    between atoms: N_6  and  C_20
REMARK    4  A    between atoms: C_8  and  C_15
REMARK    5  A    between atoms: C_9  and  C_14
REMARK    6  A    between atoms: C_17  and  C_26
REMARK                            x       y       z     vdW  Elec       q    Type
REMARK                         _______ _______ _______ _____ _____    ______ ____
ROOT
ATOM      2  N   UNL     1      18.312  -3.627  23.001  0.00  0.00    -0.297 NA
ATOM      7  C   UNL     1      16.925  -1.872  24.336  0.00  0.00    +0.002 C 
ATOM      8  C   UNL     1      18.357  -1.998  24.928  0.00  0.00    +0.055 C 
ATOM      9  C   UNL     1      16.995  -4.203  23.382  0.00  0.00    +0.074 C 
ATOM     10  C   UNL     1      16.246  -3.257  24.346  0.00  0.00    +0.024 C 
ATOM     11  C   UNL     1      17.089  -1.457  22.857  0.00  0.00    +0.019 C 
ATOM     12  C   UNL     1      19.048  -3.195  24.216  0.00  0.00    +0.094 C 
ATOM     13  C   UNL     1      18.060  -2.430  22.164  0.00  0.00    +0.085 C 
ENDROOT
BRANCH   8  15
ATOM      3  N   UNL     1      19.661  -1.733  27.088  0.00  0.00    -0.270 N 
ATOM      5  N   UNL     1      19.587  -1.857  28.424  0.00  0.00    -0.171 NA
ATOM     15  C   UNL     1      18.506  -2.061  26.440  0.00  0.00    +0.044 A 
ATOM     16  C   UNL     1      17.615  -2.424  27.421  0.00  0.00    +0.053 A 
ATOM     17  C   UNL     1      18.336  -2.278  28.622  0.00  0.00    +0.093 A 
ATOM     18  C   UNL     1      20.897  -1.289  26.488  0.00  0.00    +0.172 C 
BRANCH  17  26
ATOM     26  C   UNL     1      17.852  -2.536  29.953  0.00  0.00    +0.002 A 
ATOM     27  C   UNL     1      18.700  -3.099  30.907  0.00  0.00    +0.010 A 
ATOM     28  C   UNL     1      16.535  -2.221  30.290  0.00  0.00    +0.010 A 
ATOM     29  C   UNL     1      18.230  -3.349  32.196  0.00  0.00    +0.001 A 
ATOM     30  C   UNL     1      16.066  -2.471  31.579  0.00  0.00    +0.001 A 
ATOM     31  C   UNL     1      16.913  -3.035  32.533  0.00  0.00    +0.000 A 
ENDBRANCH  17  26
ENDBRANCH   8  15
BRANCH   9  14
ATOM     14  C   UNL     1      17.121  -5.616  23.953  0.00  0.00    +0.124 C 
BRANCH  14   4
ATOM      1  O   UNL     1      16.111  -7.782  25.553  0.00  0.00    -0.253 OA
ATOM      4  N   UNL     1      16.923  -5.613  25.369  0.00  0.00    -0.298 N 
ATOM      6  N   UNL     1      16.330  -6.449  27.441  0.00  0.00    -0.297 N 
ATOM     19  C   UNL     1      16.425  -6.714  26.078  0.00  0.00    +0.300 C 
ATOM     32  H   UNL     1      17.152  -4.771  25.888  0.00  0.00    +0.150 HD
ATOM     33  H   UNL     1      16.546  -5.508  27.758  0.00  0.00    +0.151 HD
BRANCH   6  20
ATOM     20  C   UNL     1      15.846  -7.413  28.403  0.00  0.00    +0.074 C 
ATOM     21  C   UNL     1      16.947  -7.804  29.394  0.00  0.00    +0.022 C 
ATOM     22  C   UNL     1      14.605  -6.888  29.132  0.00  0.00    +0.022 C 
ATOM     23  C   UNL     1      17.274  -6.681  30.379  0.00  0.00    +0.002 C 
ATOM     24  C   UNL     1      14.934  -5.767  30.118  0.00  0.00    +0.002 C 
ATOM     25  C   UNL     1      16.024  -6.184  31.100  0.00  0.00    +0.000 C 
ENDBRANCH   6  20
ENDBRANCH  14   4
ENDBRANCH   9  14
TORSDOF 5
ENDMDL
MODEL 9
REMARK VINA RESULT:      -6.0     31.685     36.039
REMARK  Name = 40779205
REMARK  6 active torsions:
REMARK  status: ('A' for Active; 'I' for Inactive)
REMARK    1  A    between atoms: N_3  and  C_18
REMARK    2  A    between atoms: N_4  and  C_14
REMARK    3  A    between atoms: N_6  and  C_20
REMARK    4  A    between atoms: C_8  and  C_15
REMARK    5  A    between atoms: C_9  and  C_14
REMARK    6  A    between atoms: C_17  and  C_26
REMARK                            x       y       z     vdW  Elec       q    Type
REMARK                         _______ _______ _______ _____ _____    ______ ____
ROOT
ATOM      2  N   UNL     1     -18.441   4.489  23.757  0.00  0.00    -0.297 NA
ATOM      7  C   UNL     1     -18.058   1.913  23.816  0.00  0.00    +0.002 C 
ATOM      8  C   UNL     1     -18.580   2.417  25.190  0.00  0.00    +0.055 C 
ATOM      9  C   UNL     1     -17.087   4.165  23.235  0.00  0.00    +0.074 C 
ATOM     10  C   UNL     1     -16.763   2.671  23.454  0.00  0.00    +0.024 C 
ATOM     11  C   UNL     1     -19.120   2.302  22.765  0.00  0.00    +0.019 C 
ATOM     12  C   UNL     1     -18.591   3.971  25.139  0.00  0.00    +0.094 C 
ATOM     13  C   UNL     1     -19.436   3.803  22.897  0.00  0.00    +0.085 C 
ENDROOT
BRANCH   8  15
ATOM      3  N   UNL     1     -18.318   0.742  27.077  0.00  0.00    -0.270 N 
ATOM      5  N   UNL     1     -17.602   0.444  28.175  0.00  0.00    -0.171 NA
ATOM     15  C   UNL     1     -17.916   1.884  26.451  0.00  0.00    +0.044 A 
ATOM     16  C   UNL     1     -16.863   2.368  27.190  0.00  0.00    +0.053 A 
ATOM     17  C   UNL     1     -16.715   1.440  28.239  0.00  0.00    +0.093 A 
ATOM     18  C   UNL     1     -19.398  -0.131  26.682  0.00  0.00    +0.172 C 
BRANCH  17  26
ATOM     26  C   UNL     1     -15.744   1.489  29.300  0.00  0.00    +0.002 A 
ATOM     27  C   UNL     1     -14.901   2.594  29.423  0.00  0.00    +0.010 A 
ATOM     28  C   UNL     1     -15.646   0.433  30.207  0.00  0.00    +0.010 A 
ATOM     29  C   UNL     1     -13.960   2.642  30.451  0.00  0.00    +0.001 A 
ATOM     30  C   UNL     1     -14.704   0.481  31.235  0.00  0.00    +0.001 A 
ATOM     31  C   UNL     1     -13.862   1.585  31.357  0.00  0.00    +0.000 A 
ENDBRANCH  17  26
ENDBRANCH   8  15
BRANCH   9  14
ATOM     14  C   UNL     1     -16.005   5.074  23.820  0.00  0.00    +0.124 C 
BRANCH  14   4
ATOM      1  O   UNL     1     -14.955   7.695  23.271  0.00  0.00    -0.253 OA
ATOM      4  N   UNL     1     -15.036   5.417  22.825  0.00  0.00    -0.298 N 
ATOM      6  N   UNL     1     -13.634   6.782  21.594  0.00  0.00    -0.297 N 
ATOM     19  C   UNL     1     -14.573   6.722  22.620  0.00  0.00    +0.300 C 
ATOM     32  H   UNL     1     -14.665   4.678  22.236  0.00  0.00    +0.150 HD
ATOM     33  H   UNL     1     -13.447   5.930  21.073  0.00  0.00    +0.151 HD
BRANCH   6  20
ATOM     20  C   UNL     1     -12.996   8.009  21.175  0.00  0.00    +0.074 C 
ATOM     21  C   UNL     1     -11.572   7.746  20.673  0.00  0.00    +0.022 C 
ATOM     22  C   UNL     1     -13.833   8.732  20.115  0.00  0.00    +0.022 C 
ATOM     23  C   UNL     1     -11.550   7.035  19.320  0.00  0.00    +0.002 C 
ATOM     24  C   UNL     1     -13.808   8.019  18.762  0.00  0.00    +0.002 C 
ATOM     25  C   UNL     1     -12.382   7.779  18.280  0.00  0.00    +0.000 C 
ENDBRANCH   6  20
ENDBRANCH  14   4
ENDBRANCH   9  14
TORSDOF 5
ENDMDL
MODEL 10
REMARK VINA RESULT:      -5.9      7.989     10.437
REMARK  Name = 40779205
REMARK  6 active torsions:
REMARK  status: ('A' for Active; 'I' for Inactive)
REMARK    1  A    between atoms: N_3  and  C_18
REMARK    2  A    between atoms: N_4  and  C_14
REMARK    3  A    between atoms: N_6  and  C_20
REMARK    4  A    between atoms: C_8  and  C_15
REMARK    5  A    between atoms: C_9  and  C_14
REMARK    6  A    between atoms: C_17  and  C_26
REMARK                            x       y       z     vdW  Elec       q    Type
REMARK                         _______ _______ _______ _____ _____    ______ ____
ROOT
ATOM      2  N   UNL     1       4.185  12.413   1.674  0.00  0.00    -0.297 NA
ATOM      7  C   UNL     1       3.095  10.306   0.598  0.00  0.00    +0.002 C 
ATOM      8  C   UNL     1       2.000  11.286   1.105  0.00  0.00    +0.055 C 
ATOM      9  C   UNL     1       4.795  11.181   2.239  0.00  0.00    +0.074 C 
ATOM     10  C   UNL     1       4.024   9.928   1.771  0.00  0.00    +0.024 C 
ATOM     11  C   UNL     1       3.951  11.085  -0.425  0.00  0.00    +0.019 C 
ATOM     12  C   UNL     1       2.720  12.409   1.906  0.00  0.00    +0.094 C 
ATOM     13  C   UNL     1       4.420  12.406   0.209  0.00  0.00    +0.085 C 
ENDROOT
BRANCH   8  15
ATOM      3  N   UNL     1      -0.265  10.152   1.237  0.00  0.00    -0.270 N 
ATOM      5  N   UNL     1      -1.208   9.701   2.081  0.00  0.00    -0.171 NA
ATOM     15  C   UNL     1       0.813  10.708   1.860  0.00  0.00    +0.044 A 
ATOM     16  C   UNL     1       0.558  10.614   3.207  0.00  0.00    +0.053 A 
ATOM     17  C   UNL     1      -0.700   9.985   3.283  0.00  0.00    +0.093 A 
ATOM     18  C   UNL     1      -0.471  10.017  -0.187  0.00  0.00    +0.172 C 
BRANCH  17  26
ATOM     26  C   UNL     1      -1.425   9.652   4.482  0.00  0.00    +0.002 A 
ATOM     27  C   UNL     1      -1.015  10.171   5.710  0.00  0.00    +0.010 A 
ATOM     28  C   UNL     1      -2.537   8.814   4.415  0.00  0.00    +0.010 A 
ATOM     29  C   UNL     1      -1.716   9.849   6.872  0.00  0.00    +0.001 A 
ATOM     30  C   UNL     1      -3.239   8.492   5.577  0.00  0.00    +0.001 A 
ATOM     31  C   UNL     1      -2.828   9.010   6.805  0.00  0.00    +0.000 A 
ENDBRANCH  17  26
ENDBRANCH   8  15
BRANCH   9  14
ATOM     14  C   UNL     1       4.917  11.239   3.763  0.00  0.00    +0.124 C 
BRANCH  14   4
ATOM      1  O   UNL     1       7.770  10.918   3.940  0.00  0.00    -0.253 OA
ATOM      4  N   UNL     1       5.621  10.097   4.261  0.00  0.00    -0.298 N 
ATOM      6  N   UNL     1       7.446   8.803   4.842  0.00  0.00    -0.297 N 
ATOM     19  C   UNL     1       7.018  10.019   4.315  0.00  0.00    +0.300 C 
ATOM     32  H   UNL     1       5.082   9.303   4.591  0.00  0.00    +0.150 HD
ATOM     33  H   UNL     1       6.741   8.102   5.050  0.00  0.00    +0.151 HD
BRANCH   6  20
ATOM     20  C   UNL     1       8.840   8.460   5.009  0.00  0.00    +0.074 C 
ATOM     21  C   UNL     1       9.295   8.688   6.454  0.00  0.00    +0.022 C 
ATOM     22  C   UNL     1       9.110   7.019   4.564  0.00  0.00    +0.022 C 
ATOM     23  C   UNL     1       8.715   7.655   7.420  0.00  0.00    +0.002 C 
ATOM     24  C   UNL     1       8.530   5.988   5.533  0.00  0.00    +0.002 C 
ATOM     25  C   UNL     1       9.005   6.230   6.961  0.00  0.00    +0.000 C 
ENDBRANCH   6  20
ENDBRANCH  14   4
ENDBRANCH   9  14
TORSDOF 5
ENDMDL
