MODEL 1
REMARK VINA RESULT:      -6.7      0.000      0.000
REMARK  Name = 75536665
REMARK  10 active torsions:
REMARK  status: ('A' for Active; 'I' for Inactive)
REMARK    1  A    between atoms: S_1  and  N_9
REMARK    2  A    between atoms: S_1  and  C_17
REMARK    3  A    between atoms: O_3  and  C_11
REMARK    4  A    between atoms: O_6  and  C_23
REMARK    5  A    between atoms: N_8  and  C_10
REMARK    6  A    between atoms: N_8  and  C_15
REMARK    7  A    between atoms: N_9  and  C_14
REMARK    8  A    between atoms: C_12  and  C_14
REMARK    9  A    between atoms: C_15  and  C_16
REMARK   10  A    between atoms: C_22  and  C_23
REMARK                            x       y       z     vdW  Elec       q    Type
REMARK                         _______ _______ _______ _____ _____    ______ ____
ROOT
ATOM      2  O   UNL     1      11.835   9.680  20.813  0.00  0.00    -0.371 OA
ATOM     10  C   UNL     1      12.355   7.504  20.015  0.00  0.00    +0.111 C 
ATOM     11  C   UNL     1      11.642   7.385  21.350  0.00  0.00    +0.164 C 
ATOM     12  C   UNL     1      10.945   8.736  21.432  0.00  0.00    +0.164 C 
ATOM     13  C   UNL     1      12.811   8.954  20.047  0.00  0.00    +0.181 C 
ENDROOT
BRANCH  11   3
ATOM      3  O   UNL     1      10.721   6.313  21.381  0.00  0.00    -0.388 OA
ATOM     25  H   UNL     1       9.883   6.640  21.750  0.00  0.00    +0.210 HD
ENDBRANCH  11   3
BRANCH  10   8
ATOM      8  N   UNL     1      13.456   6.568  19.855  0.00  0.00    -0.305 NA
ATOM     24  H   UNL     1      13.102   5.708  19.435  0.00  0.00    +0.123 HD
BRANCH   8  15
ATOM     15  C   UNL     1      14.494   7.121  18.995  0.00  0.00    +0.116 C 
BRANCH  15  16
ATOM     16  C   UNL     1      15.874   6.834  19.526  0.00  0.00    -0.034 A 
ATOM     18  C   UNL     1      16.299   7.422  20.717  0.00  0.00    +0.006 A 
ATOM     19  C   UNL     1      16.727   5.980  18.827  0.00  0.00    +0.006 A 
ATOM     20  C   UNL     1      17.576   7.156  21.210  0.00  0.00    +0.015 A 
ATOM     21  C   UNL     1      18.004   5.714  19.319  0.00  0.00    +0.015 A 
ATOM     22  C   UNL     1      18.430   6.302  20.511  0.00  0.00    +0.059 A 
BRANCH  22  23
ATOM      7  O   UNL     1      20.637   5.382  20.434  0.00  0.00    -0.245 OA
ATOM     23  C   UNL     1      19.761   6.024  21.024  0.00  0.00    +0.337 C 
BRANCH  23   6
ATOM      6  O   UNL     1      19.964   6.558  22.260  0.00  0.00    -0.477 OA
ATOM     27  H   UNL     1      20.747   7.149  22.279  0.00  0.00    +0.295 HD
ENDBRANCH  23   6
ENDBRANCH  22  23
ENDBRANCH  15  16
ENDBRANCH   8  15
ENDBRANCH  10   8
BRANCH  12  14
ATOM     14  C   UNL     1      10.644   9.170  22.855  0.00  0.00    +0.139 C 
BRANCH  14   9
ATOM      9  N   UNL     1      10.513  10.640  22.908  0.00  0.00    -0.192 NA
ATOM     26  H   UNL     1      10.515  11.083  21.980  0.00  0.00    +0.148 HD
BRANCH   9   1
ATOM      1  S   UNL     1      11.286  11.498  24.164  0.00  0.00    +0.027 S 
ATOM      4  O   UNL     1      12.676  11.725  23.822  0.00  0.00    -0.158 OA
ATOM      5  O   UNL     1      10.924  10.885  25.427  0.00  0.00    -0.158 OA
ATOM     17  C   UNL     1      10.436  13.057  24.066  0.00  0.00    +0.214 C 
ENDBRANCH   9   1
ENDBRANCH  14   9
ENDBRANCH  12  14
TORSDOF 9
ENDMDL
MODEL 2
REMARK VINA RESULT:      -6.3     25.341     27.538
REMARK  Name = 75536665
REMARK  10 active torsions:
REMARK  status: ('A' for Active; 'I' for Inactive)
REMARK    1  A    between atoms: S_1  and  N_9
REMARK    2  A    between atoms: S_1  and  C_17
REMARK    3  A    between atoms: O_3  and  C_11
REMARK    4  A    between atoms: O_6  and  C_23
REMARK    5  A    between atoms: N_8  and  C_10
REMARK    6  A    between atoms: N_8  and  C_15
REMARK    7  A    between atoms: N_9  and  C_14
REMARK    8  A    between atoms: C_12  and  C_14
REMARK    9  A    between atoms: C_15  and  C_16
REMARK   10  A    between atoms: C_22  and  C_23
REMARK                            x       y       z     vdW  Elec       q    Type
REMARK                         _______ _______ _______ _____ _____    ______ ____
ROOT
ATOM      2  O   UNL     1     -11.230  10.918  15.851  0.00  0.00    -0.371 OA
ATOM     10  C   UNL     1     -10.122   9.840  17.656  0.00  0.00    +0.111 C 
ATOM     11  C   UNL     1     -10.846   8.797  16.825  0.00  0.00    +0.164 C 
ATOM     12  C   UNL     1     -11.017   9.539  15.506  0.00  0.00    +0.164 C 
ATOM     13  C   UNL     1     -10.827  11.114  17.218  0.00  0.00    +0.181 C 
ENDROOT
BRANCH  11   3
ATOM      3  O   UNL     1     -10.095   7.609  16.668  0.00  0.00    -0.388 OA
ATOM     25  H   UNL     1      -9.167   7.852  16.505  0.00  0.00    +0.210 HD
ENDBRANCH  11   3
BRANCH  10   8
ATOM      8  N   UNL     1     -10.210   9.609  19.089  0.00  0.00    -0.305 NA
ATOM     24  H   UNL     1      -9.601  10.271  19.570  0.00  0.00    +0.123 HD
BRANCH   8  15
ATOM     15  C   UNL     1     -11.575   9.789  19.567  0.00  0.00    +0.116 C 
BRANCH  15  16
ATOM     16  C   UNL     1     -12.097   8.553  20.250  0.00  0.00    -0.034 A 
ATOM     18  C   UNL     1     -13.372   8.554  20.814  0.00  0.00    +0.006 A 
ATOM     19  C   UNL     1     -11.304   7.408  20.320  0.00  0.00    +0.006 A 
ATOM     20  C   UNL     1     -13.856   7.409  21.447  0.00  0.00    +0.015 A 
ATOM     21  C   UNL     1     -11.788   6.262  20.953  0.00  0.00    +0.015 A 
ATOM     22  C   UNL     1     -13.064   6.262  21.517  0.00  0.00    +0.059 A 
BRANCH  22  23
ATOM      7  O   UNL     1     -14.720   4.633  22.087  0.00  0.00    -0.245 OA
ATOM     23  C   UNL     1     -13.568   5.069  22.176  0.00  0.00    +0.337 C 
BRANCH  23   6
ATOM      6  O   UNL     1     -12.617   4.450  22.929  0.00  0.00    -0.477 OA
ATOM     27  H   UNL     1     -11.930   4.025  22.372  0.00  0.00    +0.295 HD
ENDBRANCH  23   6
ENDBRANCH  22  23
ENDBRANCH  15  16
ENDBRANCH   8  15
ENDBRANCH  10   8
BRANCH  12  14
ATOM     14  C   UNL     1     -12.184   9.031  14.679  0.00  0.00    +0.139 C 
BRANCH  14   9
ATOM      9  N   UNL     1     -12.939   8.024  15.452  0.00  0.00    -0.192 NA
ATOM     26  H   UNL     1     -12.818   7.065  15.102  0.00  0.00    +0.148 HD
BRANCH   9   1
ATOM      1  S   UNL     1     -14.484   8.426  16.053  0.00  0.00    +0.027 S 
ATOM      4  O   UNL     1     -14.835   9.774  15.649  0.00  0.00    -0.158 OA
ATOM      5  O   UNL     1     -14.552   8.029  17.447  0.00  0.00    -0.158 OA
ATOM     17  C   UNL     1     -15.499   7.295  15.129  0.00  0.00    +0.214 C 
ENDBRANCH   9   1
ENDBRANCH  14   9
ENDBRANCH  12  14
TORSDOF 9
ENDMDL
MODEL 3
REMARK VINA RESULT:      -6.3      4.732      8.089
REMARK  Name = 75536665
REMARK  10 active torsions:
REMARK  status: ('A' for Active; 'I' for Inactive)
REMARK    1  A    between atoms: S_1  and  N_9
REMARK    2  A    between atoms: S_1  and  C_17
REMARK    3  A    between atoms: O_3  and  C_11
REMARK    4  A    between atoms: O_6  and  C_23
REMARK    5  A    between atoms: N_8  and  C_10
REMARK    6  A    between atoms: N_8  and  C_15
REMARK    7  A    between atoms: N_9  and  C_14
REMARK    8  A    between atoms: C_12  and  C_14
REMARK    9  A    between atoms: C_15  and  C_16
REMARK   10  A    between atoms: C_22  and  C_23
REMARK                            x       y       z     vdW  Elec       q    Type
REMARK                         _______ _______ _______ _____ _____    ______ ____
ROOT
ATOM      2  O   UNL     1      14.576   8.629  17.100  0.00  0.00    -0.371 OA
ATOM     10  C   UNL     1      12.251   8.307  17.462  0.00  0.00    +0.111 C 
ATOM     11  C   UNL     1      12.458   9.594  16.686  0.00  0.00    +0.164 C 
ATOM     12  C   UNL     1      13.846   9.368  16.106  0.00  0.00    +0.164 C 
ATOM     13  C   UNL     1      13.637   8.079  18.041  0.00  0.00    +0.181 C 
ENDROOT
BRANCH  11   3
ATOM      3  O   UNL     1      11.487   9.782  15.674  0.00  0.00    -0.388 OA
ATOM     25  H   UNL     1      11.380   8.944  15.193  0.00  0.00    +0.210 HD
ENDBRANCH  11   3
BRANCH  10   8
ATOM      8  N   UNL     1      11.219   8.399  18.483  0.00  0.00    -0.305 NA
ATOM     24  H   UNL     1      10.383   7.915  18.156  0.00  0.00    +0.123 HD
BRANCH   8  15
ATOM     15  C   UNL     1      11.660   7.788  19.731  0.00  0.00    +0.116 C 
BRANCH  15  16
ATOM     16  C   UNL     1      11.442   8.700  20.909  0.00  0.00    -0.034 A 
ATOM     18  C   UNL     1      10.936   8.188  22.103  0.00  0.00    +0.006 A 
ATOM     19  C   UNL     1      11.745  10.058  20.806  0.00  0.00    +0.006 A 
ATOM     20  C   UNL     1      10.734   9.032  23.195  0.00  0.00    +0.015 A 
ATOM     21  C   UNL     1      11.543  10.902  21.897  0.00  0.00    +0.015 A 
ATOM     22  C   UNL     1      11.037  10.390  23.092  0.00  0.00    +0.059 A 
BRANCH  22  23
ATOM      7  O   UNL     1      10.200  12.335  24.205  0.00  0.00    -0.245 OA
ATOM     23  C   UNL     1      10.827  11.271  24.229  0.00  0.00    +0.337 C 
BRANCH  23   6
ATOM      6  O   UNL     1      11.404  10.797  25.368  0.00  0.00    -0.477 OA
ATOM     27  H   UNL     1      11.651   9.850  25.286  0.00  0.00    +0.295 HD
ENDBRANCH  23   6
ENDBRANCH  22  23
ENDBRANCH  15  16
ENDBRANCH   8  15
ENDBRANCH  10   8
BRANCH  12  14
ATOM     14  C   UNL     1      14.580  10.657  15.784  0.00  0.00    +0.139 C 
BRANCH  14   9
ATOM      9  N   UNL     1      13.607  11.698  15.397  0.00  0.00    -0.192 NA
ATOM     26  H   UNL     1      12.746  11.681  15.959  0.00  0.00    +0.148 HD
BRANCH   9   1
ATOM      1  S   UNL     1      13.431  12.099  13.748  0.00  0.00    +0.027 S 
ATOM      4  O   UNL     1      12.142  11.646  13.265  0.00  0.00    -0.158 OA
ATOM      5  O   UNL     1      14.652  11.733  13.055  0.00  0.00    -0.158 OA
ATOM     17  C   UNL     1      13.387  13.874  13.846  0.00  0.00    +0.214 C 
ENDBRANCH   9   1
ENDBRANCH  14   9
ENDBRANCH  12  14
TORSDOF 9
ENDMDL
MODEL 4
REMARK VINA RESULT:      -6.2      3.280      4.675
REMARK  Name = 75536665
REMARK  10 active torsions:
REMARK  status: ('A' for Active; 'I' for Inactive)
REMARK    1  A    between atoms: S_1  and  N_9
REMARK    2  A    between atoms: S_1  and  C_17
REMARK    3  A    between atoms: O_3  and  C_11
REMARK    4  A    between atoms: O_6  and  C_23
REMARK    5  A    between atoms: N_8  and  C_10
REMARK    6  A    between atoms: N_8  and  C_15
REMARK    7  A    between atoms: N_9  and  C_14
REMARK    8  A    between atoms: C_12  and  C_14
REMARK    9  A    between atoms: C_15  and  C_16
REMARK   10  A    between atoms: C_22  and  C_23
REMARK                            x       y       z     vdW  Elec       q    Type
REMARK                         _______ _______ _______ _____ _____    ______ ____
ROOT
ATOM      2  O   UNL     1      11.157   7.151  20.166  0.00  0.00    -0.371 OA
ATOM     10  C   UNL     1      13.207   7.735  21.214  0.00  0.00    +0.111 C 
ATOM     11  C   UNL     1      13.149   8.383  19.843  0.00  0.00    +0.164 C 
ATOM     12  C   UNL     1      11.651   8.362  19.572  0.00  0.00    +0.164 C 
ATOM     13  C   UNL     1      12.151   6.651  21.078  0.00  0.00    +0.181 C 
ENDROOT
BRANCH  11   3
ATOM      3  O   UNL     1      13.667   9.699  19.840  0.00  0.00    -0.388 OA
ATOM     25  H   UNL     1      14.383   9.745  19.184  0.00  0.00    +0.210 HD
ENDBRANCH  11   3
BRANCH  10   8
ATOM      8  N   UNL     1      14.519   7.208  21.555  0.00  0.00    -0.305 NA
ATOM     24  H   UNL     1      14.412   6.485  22.267  0.00  0.00    +0.123 HD
BRANCH   8  15
ATOM     15  C   UNL     1      15.171   6.627  20.387  0.00  0.00    +0.116 C 
BRANCH  15  16
ATOM     16  C   UNL     1      16.672   6.657  20.511  0.00  0.00    -0.034 A 
ATOM     18  C   UNL     1      17.444   5.697  19.859  0.00  0.00    +0.006 A 
ATOM     19  C   UNL     1      17.288   7.644  21.279  0.00  0.00    +0.006 A 
ATOM     20  C   UNL     1      18.834   5.725  19.972  0.00  0.00    +0.015 A 
ATOM     21  C   UNL     1      18.678   7.673  21.393  0.00  0.00    +0.015 A 
ATOM     22  C   UNL     1      19.451   6.713  20.740  0.00  0.00    +0.059 A 
BRANCH  22  23
ATOM      7  O   UNL     1      21.540   7.443  21.651  0.00  0.00    -0.245 OA
ATOM     23  C   UNL     1      20.900   6.742  20.859  0.00  0.00    +0.337 C 
BRANCH  23   6
ATOM      6  O   UNL     1      21.511   5.895  19.987  0.00  0.00    -0.477 OA
ATOM     27  H   UNL     1      21.736   5.037  20.408  0.00  0.00    +0.295 HD
ENDBRANCH  23   6
ENDBRANCH  22  23
ENDBRANCH  15  16
ENDBRANCH   8  15
ENDBRANCH  10   8
BRANCH  12  14
ATOM     14  C   UNL     1      11.309   8.385  18.093  0.00  0.00    +0.139 C 
BRANCH  14   9
ATOM      9  N   UNL     1      12.540   8.214  17.296  0.00  0.00    -0.192 NA
ATOM     26  H   UNL     1      13.291   7.729  17.804  0.00  0.00    +0.148 HD
BRANCH   9   1
ATOM      1  S   UNL     1      13.021   9.459  16.233  0.00  0.00    +0.027 S 
ATOM      4  O   UNL     1      13.457  10.614  16.992  0.00  0.00    -0.158 OA
ATOM      5  O   UNL     1      12.016   9.589  15.195  0.00  0.00    -0.158 OA
ATOM     17  C   UNL     1      14.458   8.717  15.491  0.00  0.00    +0.214 C 
ENDBRANCH   9   1
ENDBRANCH  14   9
ENDBRANCH  12  14
TORSDOF 9
ENDMDL
MODEL 5
REMARK VINA RESULT:      -6.2      3.255      4.929
REMARK  Name = 75536665
REMARK  10 active torsions:
REMARK  status: ('A' for Active; 'I' for Inactive)
REMARK    1  A    between atoms: S_1  and  N_9
REMARK    2  A    between atoms: S_1  and  C_17
REMARK    3  A    between atoms: O_3  and  C_11
REMARK    4  A    between atoms: O_6  and  C_23
REMARK    5  A    between atoms: N_8  and  C_10
REMARK    6  A    between atoms: N_8  and  C_15
REMARK    7  A    between atoms: N_9  and  C_14
REMARK    8  A    between atoms: C_12  and  C_14
REMARK    9  A    between atoms: C_15  and  C_16
REMARK   10  A    between atoms: C_22  and  C_23
REMARK                            x       y       z     vdW  Elec       q    Type
REMARK                         _______ _______ _______ _____ _____    ______ ____
ROOT
ATOM      2  O   UNL     1      15.866   9.211  21.461  0.00  0.00    -0.371 OA
ATOM     10  C   UNL     1      16.916   7.434  20.286  0.00  0.00    +0.111 C 
ATOM     11  C   UNL     1      15.520   7.002  20.695  0.00  0.00    +0.164 C 
ATOM     12  C   UNL     1      14.850   8.349  20.923  0.00  0.00    +0.164 C 
ATOM     13  C   UNL     1      17.151   8.611  21.219  0.00  0.00    +0.181 C 
ENDROOT
BRANCH  11   3
ATOM      3  O   UNL     1      14.866   6.251  19.690  0.00  0.00    -0.388 OA
ATOM     25  H   UNL     1      15.266   6.475  18.832  0.00  0.00    +0.210 HD
ENDBRANCH  11   3
BRANCH  10   8
ATOM      8  N   UNL     1      17.917   6.389  20.431  0.00  0.00    -0.305 NA
ATOM     24  H   UNL     1      18.278   6.145  19.508  0.00  0.00    +0.123 HD
BRANCH   8  15
ATOM     15  C   UNL     1      19.024   6.835  21.268  0.00  0.00    +0.116 C 
BRANCH  15  16
ATOM     16  C   UNL     1      20.103   5.789  21.374  0.00  0.00    -0.034 A 
ATOM     18  C   UNL     1      21.010   5.829  22.432  0.00  0.00    +0.006 A 
ATOM     19  C   UNL     1      20.195   4.783  20.413  0.00  0.00    +0.006 A 
ATOM     20  C   UNL     1      22.009   4.861  22.531  0.00  0.00    +0.015 A 
ATOM     21  C   UNL     1      21.194   3.814  20.512  0.00  0.00    +0.015 A 
ATOM     22  C   UNL     1      22.102   3.853  21.570  0.00  0.00    +0.059 A 
BRANCH  22  23
ATOM      7  O   UNL     1      23.851   2.642  22.665  0.00  0.00    -0.245 OA
ATOM     23  C   UNL     1      23.143   2.844  21.672  0.00  0.00    +0.337 C 
BRANCH  23   6
ATOM      6  O   UNL     1      23.272   2.112  20.532  0.00  0.00    -0.477 OA
ATOM     27  H   UNL     1      22.758   1.276  20.574  0.00  0.00    +0.295 HD
ENDBRANCH  23   6
ENDBRANCH  22  23
ENDBRANCH  15  16
ENDBRANCH   8  15
ENDBRANCH  10   8
BRANCH  12  14
ATOM     14  C   UNL     1      13.675   8.280  21.882  0.00  0.00    +0.139 C 
BRANCH  14   9
ATOM      9  N   UNL     1      13.152   6.900  21.927  0.00  0.00    -0.192 NA
ATOM     26  H   UNL     1      13.884   6.183  21.844  0.00  0.00    +0.148 HD
BRANCH   9   1
ATOM      1  S   UNL     1      11.659   6.553  21.178  0.00  0.00    +0.027 S 
ATOM      4  O   UNL     1      11.130   5.304  21.689  0.00  0.00    -0.158 OA
ATOM      5  O   UNL     1      11.801   6.770  19.751  0.00  0.00    -0.158 OA
ATOM     17  C   UNL     1      10.657   7.876  21.819  0.00  0.00    +0.214 C 
ENDBRANCH   9   1
ENDBRANCH  14   9
ENDBRANCH  12  14
TORSDOF 9
ENDMDL
MODEL 6
REMARK VINA RESULT:      -6.0     26.303     28.152
REMARK  Name = 75536665
REMARK  10 active torsions:
REMARK  status: ('A' for Active; 'I' for Inactive)
REMARK    1  A    between atoms: S_1  and  N_9
REMARK    2  A    between atoms: S_1  and  C_17
REMARK    3  A    between atoms: O_3  and  C_11
REMARK    4  A    between atoms: O_6  and  C_23
REMARK    5  A    between atoms: N_8  and  C_10
REMARK    6  A    between atoms: N_8  and  C_15
REMARK    7  A    between atoms: N_9  and  C_14
REMARK    8  A    between atoms: C_12  and  C_14
REMARK    9  A    between atoms: C_15  and  C_16
REMARK   10  A    between atoms: C_22  and  C_23
REMARK                            x       y       z     vdW  Elec       q    Type
REMARK                         _______ _______ _______ _____ _____    ______ ____
ROOT
ATOM      2  O   UNL     1      -4.947 -11.631  15.671  0.00  0.00    -0.371 OA
ATOM     10  C   UNL     1      -2.919 -11.239  14.498  0.00  0.00    +0.111 C 
ATOM     11  C   UNL     1      -2.740 -10.827  15.947  0.00  0.00    +0.164 C 
ATOM     12  C   UNL     1      -3.863 -11.608  16.615  0.00  0.00    +0.164 C 
ATOM     13  C   UNL     1      -4.434 -11.266  14.378  0.00  0.00    +0.181 C 
ENDROOT
BRANCH  11   3
ATOM      3  O   UNL     1      -1.471 -11.182  16.462  0.00  0.00    -0.388 OA
ATOM     25  H   UNL     1      -1.284 -12.101  16.207  0.00  0.00    +0.210 HD
ENDBRANCH  11   3
BRANCH  10   8
ATOM      8  N   UNL     1      -2.292 -10.331  13.551  0.00  0.00    -0.305 NA
ATOM     24  H   UNL     1      -1.475  -9.906  13.989  0.00  0.00    +0.123 HD
BRANCH   8  15
ATOM     15  C   UNL     1      -1.870 -11.038  12.348  0.00  0.00    +0.116 C 
BRANCH  15  16
ATOM     16  C   UNL     1      -2.751 -10.714  11.170  0.00  0.00    -0.034 A 
ATOM     18  C   UNL     1      -2.808  -9.409  10.680  0.00  0.00    +0.006 A 
ATOM     19  C   UNL     1      -3.510 -11.718  10.570  0.00  0.00    +0.006 A 
ATOM     20  C   UNL     1      -3.624  -9.109   9.590  0.00  0.00    +0.015 A 
ATOM     21  C   UNL     1      -4.326 -11.418   9.479  0.00  0.00    +0.015 A 
ATOM     22  C   UNL     1      -4.383 -10.113   8.988  0.00  0.00    +0.059 A 
BRANCH  22  23
ATOM      7  O   UNL     1      -5.287 -10.444   6.798  0.00  0.00    -0.245 OA
ATOM     23  C   UNL     1      -5.234  -9.801   7.852  0.00  0.00    +0.337 C 
BRANCH  23   6
ATOM      6  O   UNL     1      -5.997  -8.693   8.062  0.00  0.00    -0.477 OA
ATOM     27  H   UNL     1      -6.012  -8.435   9.009  0.00  0.00    +0.295 HD
ENDBRANCH  23   6
ENDBRANCH  22  23
ENDBRANCH  15  16
ENDBRANCH   8  15
ENDBRANCH  10   8
BRANCH  12  14
ATOM     14  C   UNL     1      -4.332 -10.988  17.920  0.00  0.00    +0.139 C 
BRANCH  14   9
ATOM      9  N   UNL     1      -5.134 -11.971  18.675  0.00  0.00    -0.192 NA
ATOM     26  H   UNL     1      -5.116 -12.914  18.266  0.00  0.00    +0.148 HD
BRANCH   9   1
ATOM      1  S   UNL     1      -6.607 -11.474  19.379  0.00  0.00    +0.027 S 
ATOM      4  O   UNL     1      -6.349 -10.528  20.447  0.00  0.00    -0.158 OA
ATOM      5  O   UNL     1      -7.423 -12.651  19.612  0.00  0.00    -0.158 OA
ATOM     17  C   UNL     1      -7.334 -10.584  18.022  0.00  0.00    +0.214 C 
ENDBRANCH   9   1
ENDBRANCH  14   9
ENDBRANCH  12  14
TORSDOF 9
ENDMDL
MODEL 7
REMARK VINA RESULT:      -6.0      4.163      5.940
REMARK  Name = 75536665
REMARK  10 active torsions:
REMARK  status: ('A' for Active; 'I' for Inactive)
REMARK    1  A    between atoms: S_1  and  N_9
REMARK    2  A    between atoms: S_1  and  C_17
REMARK    3  A    between atoms: O_3  and  C_11
REMARK    4  A    between atoms: O_6  and  C_23
REMARK    5  A    between atoms: N_8  and  C_10
REMARK    6  A    between atoms: N_8  and  C_15
REMARK    7  A    between atoms: N_9  and  C_14
REMARK    8  A    between atoms: C_12  and  C_14
REMARK    9  A    between atoms: C_15  and  C_16
REMARK   10  A    between atoms: C_22  and  C_23
REMARK                            x       y       z     vdW  Elec       q    Type
REMARK                         _______ _______ _______ _____ _____    ______ ____
ROOT
ATOM      2  O   UNL     1      15.976   6.147  18.987  0.00  0.00    -0.371 OA
ATOM     10  C   UNL     1      17.080   6.342  21.081  0.00  0.00    +0.111 C 
ATOM     11  C   UNL     1      15.807   7.166  21.114  0.00  0.00    +0.164 C 
ATOM     12  C   UNL     1      15.013   6.526  19.985  0.00  0.00    +0.164 C 
ATOM     13  C   UNL     1      17.284   6.164  19.586  0.00  0.00    +0.181 C 
ENDROOT
BRANCH  11   3
ATOM      3  O   UNL     1      15.131   7.074  22.354  0.00  0.00    -0.388 OA
ATOM     25  H   UNL     1      15.793   6.961  23.056  0.00  0.00    +0.210 HD
ENDBRANCH  11   3
BRANCH  10   8
ATOM      8  N   UNL     1      18.210   6.985  21.733  0.00  0.00    -0.305 NA
ATOM     24  H   UNL     1      18.418   6.491  22.601  0.00  0.00    +0.123 HD
BRANCH   8  15
ATOM     15  C   UNL     1      19.392   6.960  20.880  0.00  0.00    +0.116 C 
BRANCH  15  16
ATOM     16  C   UNL     1      20.423   5.983  21.382  0.00  0.00    -0.034 A 
ATOM     18  C   UNL     1      20.759   4.869  20.613  0.00  0.00    +0.006 A 
ATOM     19  C   UNL     1      21.041   6.192  22.614  0.00  0.00    +0.006 A 
ATOM     20  C   UNL     1      21.713   3.964  21.076  0.00  0.00    +0.015 A 
ATOM     21  C   UNL     1      21.996   5.287  23.078  0.00  0.00    +0.015 A 
ATOM     22  C   UNL     1      22.333   4.173  22.309  0.00  0.00    +0.059 A 
BRANCH  22  23
ATOM      7  O   UNL     1      23.405   2.040  22.469  0.00  0.00    -0.245 OA
ATOM     23  C   UNL     1      23.328   3.230  22.793  0.00  0.00    +0.337 C 
BRANCH  23   6
ATOM      6  O   UNL     1      24.202   3.799  23.668  0.00  0.00    -0.477 OA
ATOM     27  H   UNL     1      23.978   3.586  24.599  0.00  0.00    +0.295 HD
ENDBRANCH  23   6
ENDBRANCH  22  23
ENDBRANCH  15  16
ENDBRANCH   8  15
ENDBRANCH  10   8
BRANCH  12  14
ATOM     14  C   UNL     1      13.980   7.456  19.374  0.00  0.00    +0.139 C 
BRANCH  14   9
ATOM      9  N   UNL     1      14.307   7.696  17.955  0.00  0.00    -0.192 NA
ATOM     26  H   UNL     1      15.261   8.051  17.810  0.00  0.00    +0.148 HD
BRANCH   9   1
ATOM      1  S   UNL     1      13.100   8.311  16.917  0.00  0.00    +0.027 S 
ATOM      4  O   UNL     1      11.835   7.658  17.192  0.00  0.00    -0.158 OA
ATOM      5  O   UNL     1      13.634   8.356  15.570  0.00  0.00    -0.158 OA
ATOM     17  C   UNL     1      12.989   9.987  17.502  0.00  0.00    +0.214 C 
ENDBRANCH   9   1
ENDBRANCH  14   9
ENDBRANCH  12  14
TORSDOF 9
ENDMDL
MODEL 8
REMARK VINA RESULT:      -5.9     26.293     28.097
REMARK  Name = 75536665
REMARK  10 active torsions:
REMARK  status: ('A' for Active; 'I' for Inactive)
REMARK    1  A    between atoms: S_1  and  N_9
REMARK    2  A    between atoms: S_1  and  C_17
REMARK    3  A    between atoms: O_3  and  C_11
REMARK    4  A    between atoms: O_6  and  C_23
REMARK    5  A    between atoms: N_8  and  C_10
REMARK    6  A    between atoms: N_8  and  C_15
REMARK    7  A    between atoms: N_9  and  C_14
REMARK    8  A    between atoms: C_12  and  C_14
REMARK    9  A    between atoms: C_15  and  C_16
REMARK   10  A    between atoms: C_22  and  C_23
REMARK                            x       y       z     vdW  Elec       q    Type
REMARK                         _______ _______ _______ _____ _____    ______ ____
ROOT
ATOM      2  O   UNL     1      -7.386 -13.150  18.196  0.00  0.00    -0.371 OA
ATOM     10  C   UNL     1      -5.238 -12.420  18.901  0.00  0.00    +0.111 C 
ATOM     11  C   UNL     1      -6.290 -11.490  19.475  0.00  0.00    +0.164 C 
ATOM     12  C   UNL     1      -7.533 -12.364  19.391  0.00  0.00    +0.164 C 
ATOM     13  C   UNL     1      -6.011 -13.090  17.777  0.00  0.00    +0.181 C 
ENDROOT
BRANCH  11   3
ATOM      3  O   UNL     1      -6.006 -11.102  20.805  0.00  0.00    -0.388 OA
ATOM     25  H   UNL     1      -5.655 -11.874  21.281  0.00  0.00    +0.210 HD
ENDBRANCH  11   3
BRANCH  10   8
ATOM      8  N   UNL     1      -4.043 -11.734  18.435  0.00  0.00    -0.305 NA
ATOM     24  H   UNL     1      -3.490 -12.378  17.869  0.00  0.00    +0.123 HD
BRANCH   8  15
ATOM     15  C   UNL     1      -4.388 -10.571  17.625  0.00  0.00    +0.116 C 
BRANCH  15  16
ATOM     16  C   UNL     1      -3.748 -10.628  16.263  0.00  0.00    -0.034 A 
ATOM     18  C   UNL     1      -4.546 -10.642  15.119  0.00  0.00    +0.006 A 
ATOM     19  C   UNL     1      -2.360 -10.668  16.146  0.00  0.00    +0.006 A 
ATOM     20  C   UNL     1      -3.954 -10.694  13.857  0.00  0.00    +0.015 A 
ATOM     21  C   UNL     1      -1.767 -10.720  14.884  0.00  0.00    +0.015 A 
ATOM     22  C   UNL     1      -2.564 -10.733  13.739  0.00  0.00    +0.059 A 
BRANCH  22  23
ATOM      7  O   UNL     1      -1.779  -9.823  11.670  0.00  0.00    -0.245 OA
ATOM     23  C   UNL     1      -1.947 -10.788  12.424  0.00  0.00    +0.337 C 
BRANCH  23   6
ATOM      6  O   UNL     1      -1.554 -12.047  12.086  0.00  0.00    -0.477 OA
ATOM     27  H   UNL     1      -1.671 -12.220  11.126  0.00  0.00    +0.295 HD
ENDBRANCH  23   6
ENDBRANCH  22  23
ENDBRANCH  15  16
ENDBRANCH   8  15
ENDBRANCH  10   8
BRANCH  12  14
ATOM     14  C   UNL     1      -8.824 -11.568  19.326  0.00  0.00    +0.139 C 
BRANCH  14   9
ATOM      9  N   UNL     1      -8.525 -10.167  18.969  0.00  0.00    -0.192 NA
ATOM     26  H   UNL     1      -8.736  -9.500  19.721  0.00  0.00    +0.148 HD
BRANCH   9   1
ATOM      1  S   UNL     1      -8.821  -9.636  17.374  0.00  0.00    +0.027 S 
ATOM      4  O   UNL     1      -7.699  -9.982  16.523  0.00  0.00    -0.158 OA
ATOM      5  O   UNL     1      -9.318  -8.274  17.430  0.00  0.00    -0.158 OA
ATOM     17  C   UNL     1     -10.189 -10.683  16.930  0.00  0.00    +0.214 C 
ENDBRANCH   9   1
ENDBRANCH  14   9
ENDBRANCH  12  14
TORSDOF 9
ENDMDL
MODEL 9
REMARK VINA RESULT:      -5.8      2.628      3.651
REMARK  Name = 75536665
REMARK  10 active torsions:
REMARK  status: ('A' for Active; 'I' for Inactive)
REMARK    1  A    between atoms: S_1  and  N_9
REMARK    2  A    between atoms: S_1  and  C_17
REMARK    3  A    between atoms: O_3  and  C_11
REMARK    4  A    between atoms: O_6  and  C_23
REMARK    5  A    between atoms: N_8  and  C_10
REMARK    6  A    between atoms: N_8  and  C_15
REMARK    7  A    between atoms: N_9  and  C_14
REMARK    8  A    between atoms: C_12  and  C_14
REMARK    9  A    between atoms: C_15  and  C_16
REMARK   10  A    between atoms: C_22  and  C_23
REMARK                            x       y       z     vdW  Elec       q    Type
REMARK                         _______ _______ _______ _____ _____    ______ ____
ROOT
ATOM      2  O   UNL     1      12.010   9.653  20.530  0.00  0.00    -0.371 OA
ATOM     10  C   UNL     1      13.222   7.911  21.597  0.00  0.00    +0.111 C 
ATOM     11  C   UNL     1      14.030   9.193  21.670  0.00  0.00    +0.164 C 
ATOM     12  C   UNL     1      12.944  10.238  21.453  0.00  0.00    +0.164 C 
ATOM     13  C   UNL     1      12.245   8.235  20.478  0.00  0.00    +0.181 C 
ENDROOT
BRANCH  11   3
ATOM      3  O   UNL     1      14.679   9.358  22.916  0.00  0.00    -0.388 OA
ATOM     25  H   UNL     1      15.378   8.685  22.988  0.00  0.00    +0.210 HD
ENDBRANCH  11   3
BRANCH  10   8
ATOM      8  N   UNL     1      14.025   6.730  21.323  0.00  0.00    -0.305 NA
ATOM     24  H   UNL     1      13.419   5.909  21.320  0.00  0.00    +0.123 HD
BRANCH   8  15
ATOM     15  C   UNL     1      14.684   6.833  20.026  0.00  0.00    +0.116 C 
BRANCH  15  16
ATOM     16  C   UNL     1      16.151   6.505  20.117  0.00  0.00    -0.034 A 
ATOM     18  C   UNL     1      16.867   6.826  21.270  0.00  0.00    +0.006 A 
ATOM     19  C   UNL     1      16.794   5.882  19.048  0.00  0.00    +0.006 A 
ATOM     20  C   UNL     1      18.225   6.523  21.355  0.00  0.00    +0.015 A 
ATOM     21  C   UNL     1      18.153   5.578  19.132  0.00  0.00    +0.015 A 
ATOM     22  C   UNL     1      18.869   5.899  20.286  0.00  0.00    +0.059 A 
BRANCH  22  23
ATOM      7  O   UNL     1      20.757   4.461  20.592  0.00  0.00    -0.245 OA
ATOM     23  C   UNL     1      20.285   5.582  20.373  0.00  0.00    +0.337 C 
BRANCH  23   6
ATOM      6  O   UNL     1      21.075   6.675  20.184  0.00  0.00    -0.477 OA
ATOM     27  H   UNL     1      22.013   6.490  20.406  0.00  0.00    +0.295 HD
ENDBRANCH  23   6
ENDBRANCH  22  23
ENDBRANCH  15  16
ENDBRANCH   8  15
ENDBRANCH  10   8
BRANCH  12  14
ATOM     14  C   UNL     1      13.472  11.545  20.890  0.00  0.00    +0.139 C 
BRANCH  14   9
ATOM      9  N   UNL     1      12.958  11.738  19.520  0.00  0.00    -0.192 NA
ATOM     26  H   UNL     1      11.961  11.510  19.422  0.00  0.00    +0.148 HD
BRANCH   9   1
ATOM      1  S   UNL     1      13.962  11.351  18.195  0.00  0.00    +0.027 S 
ATOM      4  O   UNL     1      13.247  10.494  17.270  0.00  0.00    -0.158 OA
ATOM      5  O   UNL     1      15.265  10.969  18.703  0.00  0.00    -0.158 OA
ATOM     17  C   UNL     1      14.134  12.951  17.437  0.00  0.00    +0.214 C 
ENDBRANCH   9   1
ENDBRANCH  14   9
ENDBRANCH  12  14
TORSDOF 9
ENDMDL
MODEL 10
REMARK VINA RESULT:      -5.8     26.385     28.791
REMARK  Name = 75536665
REMARK  10 active torsions:
REMARK  status: ('A' for Active; 'I' for Inactive)
REMARK    1  A    between atoms: S_1  and  N_9
REMARK    2  A    between atoms: S_1  and  C_17
REMARK    3  A    between atoms: O_3  and  C_11
REMARK    4  A    between atoms: O_6  and  C_23
REMARK    5  A    between atoms: N_8  and  C_10
REMARK    6  A    between atoms: N_8  and  C_15
REMARK    7  A    between atoms: N_9  and  C_14
REMARK    8  A    between atoms: C_12  and  C_14
REMARK    9  A    between atoms: C_15  and  C_16
REMARK   10  A    between atoms: C_22  and  C_23
REMARK                            x       y       z     vdW  Elec       q    Type
REMARK                         _______ _______ _______ _____ _____    ______ ____
ROOT
ATOM      2  O   UNL     1     -10.069 -12.757  19.507  0.00  0.00    -0.371 OA
ATOM     10  C   UNL     1      -7.694 -12.708  19.525  0.00  0.00    +0.111 C 
ATOM     11  C   UNL     1      -8.215 -11.327  19.177  0.00  0.00    +0.164 C 
ATOM     12  C   UNL     1      -9.636 -11.403  19.719  0.00  0.00    +0.164 C 
ATOM     13  C   UNL     1      -8.913 -13.570  19.238  0.00  0.00    +0.181 C 
ENDROOT
BRANCH  11   3
ATOM      3  O   UNL     1      -7.471 -10.293  19.792  0.00  0.00    -0.388 OA
ATOM     25  H   UNL     1      -6.573 -10.298  19.418  0.00  0.00    +0.210 HD
ENDBRANCH  11   3
BRANCH  10   8
ATOM      8  N   UNL     1      -6.527 -13.104  18.753  0.00  0.00    -0.305 NA
ATOM     24  H   UNL     1      -6.423 -14.118  18.803  0.00  0.00    +0.123 HD
BRANCH   8  15
ATOM     15  C   UNL     1      -6.665 -12.712  17.356  0.00  0.00    +0.116 C 
BRANCH  15  16
ATOM     16  C   UNL     1      -5.384 -12.140  16.806  0.00  0.00    -0.034 A 
ATOM     18  C   UNL     1      -4.906 -10.920  17.283  0.00  0.00    +0.006 A 
ATOM     19  C   UNL     1      -4.680 -12.828  15.819  0.00  0.00    +0.006 A 
ATOM     20  C   UNL     1      -3.720 -10.389  16.775  0.00  0.00    +0.015 A 
ATOM     21  C   UNL     1      -3.494 -12.298  15.311  0.00  0.00    +0.015 A 
ATOM     22  C   UNL     1      -3.014 -11.078  15.788  0.00  0.00    +0.059 A 
BRANCH  22  23
ATOM      7  O   UNL     1      -1.647 -10.000  14.146  0.00  0.00    -0.245 OA
ATOM     23  C   UNL     1      -1.778 -10.526  15.257  0.00  0.00    +0.337 C 
BRANCH  23   6
ATOM      6  O   UNL     1      -0.740 -10.642  16.129  0.00  0.00    -0.477 OA
ATOM     27  H   UNL     1      -0.756  -9.937  16.812  0.00  0.00    +0.295 HD
ENDBRANCH  23   6
ENDBRANCH  22  23
ENDBRANCH  15  16
ENDBRANCH   8  15
ENDBRANCH  10   8
BRANCH  12  14
ATOM     14  C   UNL     1     -10.592 -10.445  19.032  0.00  0.00    +0.139 C 
BRANCH  14   9
ATOM      9  N   UNL     1      -9.863  -9.230  18.617  0.00  0.00    -0.192 NA
ATOM     26  H   UNL     1     -10.154  -8.385  19.126  0.00  0.00    +0.148 HD
BRANCH   9   1
ATOM      1  S   UNL     1      -9.460  -9.026  16.971  0.00  0.00    +0.027 S 
ATOM      4  O   UNL     1     -10.181  -9.990  16.164  0.00  0.00    -0.158 OA
ATOM      5  O   UNL     1      -8.019  -8.902  16.865  0.00  0.00    -0.158 OA
ATOM     17  C   UNL     1     -10.157  -7.420  16.660  0.00  0.00    +0.214 C 
ENDBRANCH   9   1
ENDBRANCH  14   9
ENDBRANCH  12  14
TORSDOF 9
ENDMDL
