MODEL 1
REMARK VINA RESULT:      -7.2      0.000      0.000
REMARK  Name = 11882964
REMARK  11 active torsions:
REMARK  status: ('A' for Active; 'I' for Inactive)
REMARK    1  A    between atoms: O_2  and  C_16
REMARK    2  A    between atoms: O_3  and  C_21
REMARK    3  A    between atoms: N_8  and  C_27
REMARK    4  A    between atoms: N_10  and  C_30
REMARK    5  A    between atoms: C_11  and  C_19
REMARK    6  A    between atoms: C_13  and  C_21
REMARK    7  A    between atoms: C_13  and  C_22
REMARK    8  A    between atoms: C_14  and  C_24
REMARK    9  A    between atoms: C_24  and  C_25
REMARK   10  A    between atoms: C_27  and  C_30
REMARK   11  A    between atoms: C_28  and  C_29
REMARK                            x       y       z     vdW  Elec       q    Type
REMARK                         _______ _______ _______ _____ _____    ______ ____
ROOT
ATOM      1  S   UNL     1      13.894   7.759   6.853  0.00  0.00    -0.057 S 
ATOM      5  O   UNL     1      11.065   5.338   4.040  0.00  0.00    -0.275 OA
ATOM      7  N   UNL     1      13.629   6.781   4.472  0.00  0.00    -0.229 NA
ATOM      9  N   UNL     1      11.809   6.412   6.009  0.00  0.00    -0.264 N 
ATOM     11  C   UNL     1      16.910   8.565   3.514  0.00  0.00    -0.019 C 
ATOM     12  C   UNL     1      17.502   8.437   4.987  0.00  0.00    +0.011 C 
ATOM     13  C   UNL     1      18.885   9.141   5.267  0.00  0.00    +0.021 C 
ATOM     14  C   UNL     1      15.781   7.448   3.339  0.00  0.00    +0.054 C 
ATOM     15  C   UNL     1      18.034   8.291   2.482  0.00  0.00    +0.010 C 
ATOM     16  C   UNL     1      19.876   8.800   4.118  0.00  0.00    +0.123 C 
ATOM     17  C   UNL     1      16.418   8.735   6.064  0.00  0.00    +0.049 C 
ATOM     18  C   UNL     1      19.309   9.084   2.732  0.00  0.00    +0.032 C 
ATOM     19  C   UNL     1      16.304   9.960   3.230  0.00  0.00    +0.012 C 
ATOM     20  C   UNL     1      14.850   7.427   4.524  0.00  0.00    +0.058 A 
ATOM     22  C   UNL     1      19.488   8.571   6.583  0.00  0.00    +0.016 C 
ATOM     23  C   UNL     1      15.164   7.994   5.743  0.00  0.00    +0.015 A 
ATOM     26  C   UNL     1      13.035   6.898   5.640  0.00  0.00    +0.165 A 
ATOM     28  C   UNL     1      10.917   5.679   5.209  0.00  0.00    +0.222 C 
ATOM     43  H   UNL     1      11.545   6.613   6.970  0.00  0.00    +0.157 HD
ENDROOT
BRANCH  28  29
ATOM     29  C   UNL     1       9.669   5.314   5.958  0.00  0.00    +0.075 C 
ATOM     31  C   UNL     1       9.737   5.797   7.409  0.00  0.00    +0.013 C 
ATOM     32  C   UNL     1       8.437   5.839   5.217  0.00  0.00    +0.013 C 
ATOM     33  C   UNL     1       9.503   7.300   7.561  0.00  0.00    +0.001 C 
ATOM     34  C   UNL     1       8.234   7.343   5.385  0.00  0.00    +0.001 C 
ATOM     35  C   UNL     1       8.229   7.751   6.853  0.00  0.00    +0.000 C 
ENDBRANCH  28  29
BRANCH  16   2
ATOM      2  O   UNL     1      21.095   9.526   4.273  0.00  0.00    -0.391 OA
ATOM     40  H   UNL     1      20.867  10.465   4.379  0.00  0.00    +0.210 HD
ENDBRANCH  16   2
BRANCH  13  21
ATOM     21  C   UNL     1      18.795  10.669   5.480  0.00  0.00    +0.165 C 
BRANCH  21   3
ATOM      3  O   UNL     1      19.773  11.031   6.430  0.00  0.00    -0.394 OA
ATOM     41  H   UNL     1      19.469  10.709   7.295  0.00  0.00    +0.209 HD
ENDBRANCH  21   3
ENDBRANCH  13  21
BRANCH  14  24
ATOM     24  C   UNL     1      15.005   7.530   2.017  0.00  0.00    +0.106 C 
BRANCH  24  25
ATOM      4  O   UNL     1      15.280   6.156   0.044  0.00  0.00    -0.276 OA
ATOM      8  N   UNL     1      14.813   5.149   2.085  0.00  0.00    -0.314 N 
ATOM     25  C   UNL     1      15.056   6.228   1.249  0.00  0.00    +0.214 C 
ATOM     42  H   UNL     1      14.646   5.314   3.073  0.00  0.00    +0.149 HD
BRANCH   8  27
ATOM     27  C   UNL     1      14.797   3.780   1.623  0.00  0.00    +0.119 C 
BRANCH  27  30
ATOM     30  C   UNL     1      13.377   3.239   1.553  0.00  0.00    +0.103 C 
BRANCH  30  10
ATOM      6  O   UNL     1      10.593   3.953  -1.505  0.00  0.00    -0.377 OA
ATOM     10  N   UNL     1      12.638   3.890   0.473  0.00  0.00    -0.297 NA
ATOM     36  C   UNL     1      12.751   3.121  -0.774  0.00  0.00    +0.112 C 
ATOM     37  C   UNL     1      11.225   4.058   0.836  0.00  0.00    +0.112 C 
ATOM     38  C   UNL     1      11.963   3.814  -1.882  0.00  0.00    +0.175 C 
ATOM     39  C   UNL     1      10.471   4.727  -0.311  0.00  0.00    +0.175 C 
ENDBRANCH  30  10
ENDBRANCH  27  30
ENDBRANCH   8  27
ENDBRANCH  24  25
ENDBRANCH  14  24
TORSDOF 9
ENDMDL
MODEL 2
REMARK VINA RESULT:      -7.0     26.510     29.564
REMARK  Name = 11882964
REMARK  11 active torsions:
REMARK  status: ('A' for Active; 'I' for Inactive)
REMARK    1  A    between atoms: O_2  and  C_16
REMARK    2  A    between atoms: O_3  and  C_21
REMARK    3  A    between atoms: N_8  and  C_27
REMARK    4  A    between atoms: N_10  and  C_30
REMARK    5  A    between atoms: C_11  and  C_19
REMARK    6  A    between atoms: C_13  and  C_21
REMARK    7  A    between atoms: C_13  and  C_22
REMARK    8  A    between atoms: C_14  and  C_24
REMARK    9  A    between atoms: C_24  and  C_25
REMARK   10  A    between atoms: C_27  and  C_30
REMARK   11  A    between atoms: C_28  and  C_29
REMARK                            x       y       z     vdW  Elec       q    Type
REMARK                         _______ _______ _______ _____ _____    ______ ____
ROOT
ATOM      1  S   UNL     1      -6.251 -10.123  10.677  0.00  0.00    -0.057 S 
ATOM      5  O   UNL     1     -10.575  -8.541  11.436  0.00  0.00    -0.275 OA
ATOM      7  N   UNL     1      -7.982  -9.529  12.506  0.00  0.00    -0.229 NA
ATOM      9  N   UNL     1      -8.668  -9.219  10.216  0.00  0.00    -0.264 N 
ATOM     11  C   UNL     1      -5.516 -10.935  15.115  0.00  0.00    -0.019 C 
ATOM     12  C   UNL     1      -4.244 -10.523  14.251  0.00  0.00    +0.011 C 
ATOM     13  C   UNL     1      -2.833 -10.976  14.792  0.00  0.00    +0.021 C 
ATOM     14  C   UNL     1      -6.745 -10.027  14.646  0.00  0.00    +0.054 C 
ATOM     15  C   UNL     1      -5.237 -10.646  16.613  0.00  0.00    +0.010 C 
ATOM     16  C   UNL     1      -2.740 -10.656  16.311  0.00  0.00    +0.123 C 
ATOM     17  C   UNL     1      -4.461 -10.824  12.739  0.00  0.00    +0.049 C 
ATOM     18  C   UNL     1      -3.914 -11.206  17.114  0.00  0.00    +0.032 C 
ATOM     19  C   UNL     1      -5.890 -12.429  14.959  0.00  0.00    +0.012 C 
ATOM     20  C   UNL     1      -6.841  -9.979  13.143  0.00  0.00    +0.058 A 
ATOM     22  C   UNL     1      -1.726 -10.151  14.076  0.00  0.00    +0.016 C 
ATOM     23  C   UNL     1      -5.798 -10.322  12.307  0.00  0.00    +0.015 A 
ATOM     26  C   UNL     1      -7.788  -9.569  11.205  0.00  0.00    +0.165 A 
ATOM     28  C   UNL     1      -9.977  -8.737  10.383  0.00  0.00    +0.222 C 
ATOM     43  H   UNL     1      -8.307  -9.322   9.271  0.00  0.00    +0.157 HD
ENDROOT
BRANCH  28  29
ATOM     29  C   UNL     1     -10.639  -8.457   9.066  0.00  0.00    +0.075 C 
ATOM     31  C   UNL     1     -11.803  -7.478   9.232  0.00  0.00    +0.013 C 
ATOM     32  C   UNL     1      -9.602  -7.975   8.048  0.00  0.00    +0.013 C 
ATOM     33  C   UNL     1     -11.357  -6.029   9.425  0.00  0.00    +0.001 C 
ATOM     34  C   UNL     1      -9.174  -6.526   8.269  0.00  0.00    +0.001 C 
ATOM     35  C   UNL     1     -10.374  -5.589   8.345  0.00  0.00    +0.000 C 
ENDBRANCH  28  29
BRANCH  16   2
ATOM      2  O   UNL     1      -1.528 -11.171  16.860  0.00  0.00    -0.391 OA
ATOM     40  H   UNL     1      -0.817 -10.544  16.644  0.00  0.00    +0.210 HD
ENDBRANCH  16   2
BRANCH  13  21
ATOM     21  C   UNL     1      -2.488 -12.457  14.519  0.00  0.00    +0.165 C 
BRANCH  21   3
ATOM      3  O   UNL     1      -1.133 -12.521  14.134  0.00  0.00    -0.394 OA
ATOM     41  H   UNL     1      -1.096 -12.982  13.279  0.00  0.00    +0.209 HD
ENDBRANCH  21   3
ENDBRANCH  13  21
BRANCH  14  24
ATOM     24  C   UNL     1      -8.091 -10.399  15.283  0.00  0.00    +0.106 C 
BRANCH  24  25
ATOM      4  O   UNL     1      -8.440  -9.162  17.333  0.00  0.00    -0.276 OA
ATOM      8  N   UNL     1      -9.415  -8.412  15.362  0.00  0.00    -0.314 N 
ATOM     25  C   UNL     1      -8.648  -9.276  16.128  0.00  0.00    +0.214 C 
ATOM     42  H   UNL     1      -9.519  -8.589  14.367  0.00  0.00    +0.149 HD
BRANCH   8  27
ATOM     27  C   UNL     1     -10.074  -7.247  15.907  0.00  0.00    +0.119 C 
BRANCH  27  30
ATOM     30  C   UNL     1     -11.537  -7.534  16.212  0.00  0.00    +0.103 C 
BRANCH  30  10
ATOM      6  O   UNL     1     -12.971  -5.967  12.592  0.00  0.00    -0.377 OA
ATOM     10  N   UNL     1     -12.398  -6.886  15.224  0.00  0.00    -0.297 NA
ATOM     36  C   UNL     1     -11.747  -5.692  14.668  0.00  0.00    +0.112 C 
ATOM     37  C   UNL     1     -12.746  -7.819  14.144  0.00  0.00    +0.112 C 
ATOM     38  C   UNL     1     -12.659  -5.040  13.633  0.00  0.00    +0.175 C 
ATOM     39  C   UNL     1     -13.633  -7.117  13.119  0.00  0.00    +0.175 C 
ENDBRANCH  30  10
ENDBRANCH  27  30
ENDBRANCH   8  27
ENDBRANCH  24  25
ENDBRANCH  14  24
TORSDOF 9
ENDMDL
MODEL 3
REMARK VINA RESULT:      -6.8     25.809     28.998
REMARK  Name = 11882964
REMARK  11 active torsions:
REMARK  status: ('A' for Active; 'I' for Inactive)
REMARK    1  A    between atoms: O_2  and  C_16
REMARK    2  A    between atoms: O_3  and  C_21
REMARK    3  A    between atoms: N_8  and  C_27
REMARK    4  A    between atoms: N_10  and  C_30
REMARK    5  A    between atoms: C_11  and  C_19
REMARK    6  A    between atoms: C_13  and  C_21
REMARK    7  A    between atoms: C_13  and  C_22
REMARK    8  A    between atoms: C_14  and  C_24
REMARK    9  A    between atoms: C_24  and  C_25
REMARK   10  A    between atoms: C_27  and  C_30
REMARK   11  A    between atoms: C_28  and  C_29
REMARK                            x       y       z     vdW  Elec       q    Type
REMARK                         _______ _______ _______ _____ _____    ______ ____
ROOT
ATOM      1  S   UNL     1      -4.146  -9.183   9.667  0.00  0.00    -0.057 S 
ATOM      5  O   UNL     1      -8.658  -8.160   9.062  0.00  0.00    -0.275 OA
ATOM      7  N   UNL     1      -6.472  -9.184  10.798  0.00  0.00    -0.229 NA
ATOM      9  N   UNL     1      -6.365  -8.375   8.530  0.00  0.00    -0.264 N 
ATOM     11  C   UNL     1      -4.870 -11.001  13.798  0.00  0.00    -0.019 C 
ATOM     12  C   UNL     1      -3.459 -10.297  13.572  0.00  0.00    +0.011 C 
ATOM     13  C   UNL     1      -2.270 -10.763  14.496  0.00  0.00    +0.021 C 
ATOM     14  C   UNL     1      -5.988 -10.099  13.098  0.00  0.00    +0.054 C 
ATOM     15  C   UNL     1      -5.174 -11.068  15.317  0.00  0.00    +0.010 C 
ATOM     16  C   UNL     1      -2.758 -10.819  15.971  0.00  0.00    +0.123 C 
ATOM     17  C   UNL     1      -3.091 -10.233  12.060  0.00  0.00    +0.049 C 
ATOM     18  C   UNL     1      -4.035 -11.633  16.151  0.00  0.00    +0.032 C 
ATOM     19  C   UNL     1      -4.925 -12.434  13.216  0.00  0.00    +0.012 C 
ATOM     20  C   UNL     1      -5.565  -9.691  11.710  0.00  0.00    +0.058 A 
ATOM     22  C   UNL     1      -1.129  -9.708  14.427  0.00  0.00    +0.016 C 
ATOM     23  C   UNL     1      -4.258  -9.741  11.272  0.00  0.00    +0.015 A 
ATOM     26  C   UNL     1      -5.838  -8.891   9.684  0.00  0.00    +0.165 A 
ATOM     28  C   UNL     1      -7.710  -8.047   8.291  0.00  0.00    +0.222 C 
ATOM     43  H   UNL     1      -5.689  -8.216   7.788  0.00  0.00    +0.157 HD
ENDROOT
BRANCH  28  29
ATOM     29  C   UNL     1      -7.912  -7.502   6.907  0.00  0.00    +0.075 C 
ATOM     31  C   UNL     1      -7.266  -8.410   5.859  0.00  0.00    +0.013 C 
ATOM     32  C   UNL     1      -9.402  -7.264   6.647  0.00  0.00    +0.013 C 
ATOM     33  C   UNL     1      -8.068  -9.681   5.578  0.00  0.00    +0.001 C 
ATOM     34  C   UNL     1     -10.175  -8.553   6.375  0.00  0.00    +0.001 C 
ATOM     35  C   UNL     1      -9.529  -9.374   5.266  0.00  0.00    +0.000 C 
ENDBRANCH  28  29
BRANCH  16   2
ATOM      2  O   UNL     1      -1.745 -11.361  16.817  0.00  0.00    -0.391 OA
ATOM     40  H   UNL     1      -2.060 -12.223  17.139  0.00  0.00    +0.210 HD
ENDBRANCH  16   2
BRANCH  13  21
ATOM     21  C   UNL     1      -1.621 -12.102  14.080  0.00  0.00    +0.165 C 
BRANCH  21   3
ATOM      3  O   UNL     1      -2.222 -13.127  14.839  0.00  0.00    -0.394 OA
ATOM     41  H   UNL     1      -2.174 -13.943  14.313  0.00  0.00    +0.209 HD
ENDBRANCH  21   3
ENDBRANCH  13  21
BRANCH  14  24
ATOM     24  C   UNL     1      -7.394 -10.714  13.098  0.00  0.00    +0.106 C 
BRANCH  24  25
ATOM      4  O   UNL     1      -9.323  -9.260  13.242  0.00  0.00    -0.276 OA
ATOM      8  N   UNL     1      -8.126  -9.769  15.167  0.00  0.00    -0.314 N 
ATOM     25  C   UNL     1      -8.397  -9.835  13.809  0.00  0.00    +0.214 C 
ATOM     42  H   UNL     1      -7.339 -10.291  15.542  0.00  0.00    +0.149 HD
BRANCH   8  27
ATOM     27  C   UNL     1      -8.920  -8.998  16.095  0.00  0.00    +0.119 C 
BRANCH  27  30
ATOM     30  C   UNL     1      -8.249  -8.913  17.458  0.00  0.00    +0.103 C 
BRANCH  30  10
ATOM      6  O   UNL     1      -7.438 -12.080  20.090  0.00  0.00    -0.377 OA
ATOM     10  N   UNL     1      -7.977 -10.253  17.975  0.00  0.00    -0.297 NA
ATOM     36  C   UNL     1      -6.664 -10.300  18.634  0.00  0.00    +0.112 C 
ATOM     37  C   UNL     1      -9.027 -10.673  18.912  0.00  0.00    +0.112 C 
ATOM     38  C   UNL     1      -6.407 -11.703  19.175  0.00  0.00    +0.175 C 
ATOM     39  C   UNL     1      -8.715 -12.067  19.449  0.00  0.00    +0.175 C 
ENDBRANCH  30  10
ENDBRANCH  27  30
ENDBRANCH   8  27
ENDBRANCH  24  25
ENDBRANCH  14  24
TORSDOF 9
ENDMDL
MODEL 4
REMARK VINA RESULT:      -6.5     14.910     17.732
REMARK  Name = 11882964
REMARK  11 active torsions:
REMARK  status: ('A' for Active; 'I' for Inactive)
REMARK    1  A    between atoms: O_2  and  C_16
REMARK    2  A    between atoms: O_3  and  C_21
REMARK    3  A    between atoms: N_8  and  C_27
REMARK    4  A    between atoms: N_10  and  C_30
REMARK    5  A    between atoms: C_11  and  C_19
REMARK    6  A    between atoms: C_13  and  C_21
REMARK    7  A    between atoms: C_13  and  C_22
REMARK    8  A    between atoms: C_14  and  C_24
REMARK    9  A    between atoms: C_24  and  C_25
REMARK   10  A    between atoms: C_27  and  C_30
REMARK   11  A    between atoms: C_28  and  C_29
REMARK                            x       y       z     vdW  Elec       q    Type
REMARK                         _______ _______ _______ _____ _____    ______ ____
ROOT
ATOM      1  S   UNL     1      19.915  -6.116  -1.276  0.00  0.00    -0.057 S 
ATOM      5  O   UNL     1      16.704  -9.031  -3.001  0.00  0.00    -0.275 OA
ATOM      7  N   UNL     1      18.835  -8.452  -1.009  0.00  0.00    -0.229 NA
ATOM      9  N   UNL     1      18.003  -7.067  -2.797  0.00  0.00    -0.264 N 
ATOM     11  C   UNL     1      21.457  -9.210   1.715  0.00  0.00    -0.019 C 
ATOM     12  C   UNL     1      21.546  -7.685   2.164  0.00  0.00    +0.011 C 
ATOM     13  C   UNL     1      22.626  -7.322   3.256  0.00  0.00    +0.021 C 
ATOM     14  C   UNL     1      20.059  -9.423   0.971  0.00  0.00    +0.054 C 
ATOM     15  C   UNL     1      21.488 -10.120   2.970  0.00  0.00    +0.010 C 
ATOM     16  C   UNL     1      22.551  -8.356   4.415  0.00  0.00    +0.123 C 
ATOM     17  C   UNL     1      21.551  -6.728   0.936  0.00  0.00    +0.049 C 
ATOM     18  C   UNL     1      22.620  -9.802   3.935  0.00  0.00    +0.032 C 
ATOM     19  C   UNL     1      22.611  -9.626   0.771  0.00  0.00    +0.012 C 
ATOM     20  C   UNL     1      19.805  -8.327  -0.032  0.00  0.00    +0.058 A 
ATOM     22  C   UNL     1      22.291  -5.928   3.857  0.00  0.00    +0.016 C 
ATOM     23  C   UNL     1      20.472  -7.119  -0.017  0.00  0.00    +0.015 A 
ATOM     26  C   UNL     1      18.810  -7.351  -1.728  0.00  0.00    +0.165 A 
ATOM     28  C   UNL     1      17.022  -7.901  -3.358  0.00  0.00    +0.222 C 
ATOM     43  H   UNL     1      18.146  -6.146  -3.204  0.00  0.00    +0.157 HD
ENDROOT
BRANCH  28  29
ATOM     29  C   UNL     1      16.335  -7.247  -4.522  0.00  0.00    +0.075 C 
ATOM     31  C   UNL     1      14.865  -7.663  -4.597  0.00  0.00    +0.013 C 
ATOM     32  C   UNL     1      16.519  -5.729  -4.456  0.00  0.00    +0.013 C 
ATOM     33  C   UNL     1      13.981  -6.966  -3.563  0.00  0.00    +0.001 C 
ATOM     34  C   UNL     1      15.626  -5.063  -3.411  0.00  0.00    +0.001 C 
ATOM     35  C   UNL     1      14.163  -5.452  -3.589  0.00  0.00    +0.000 C 
ENDBRANCH  28  29
BRANCH  16   2
ATOM      2  O   UNL     1      23.600  -8.134   5.356  0.00  0.00    -0.391 OA
ATOM     40  H   UNL     1      24.437  -8.102   4.862  0.00  0.00    +0.210 HD
ENDBRANCH  16   2
BRANCH  13  21
ATOM     21  C   UNL     1      24.068  -7.205   2.716  0.00  0.00    +0.165 C 
BRANCH  21   3
ATOM      3  O   UNL     1      24.744  -6.244   3.495  0.00  0.00    -0.394 OA
ATOM     41  H   UNL     1      24.246  -6.139   4.323  0.00  0.00    +0.209 HD
ENDBRANCH  21   3
ENDBRANCH  13  21
BRANCH  14  24
ATOM     24  C   UNL     1      19.876 -10.812   0.344  0.00  0.00    +0.106 C 
BRANCH  24  25
ATOM      4  O   UNL     1      18.906 -12.438   1.850  0.00  0.00    -0.276 OA
ATOM      8  N   UNL     1      17.520 -11.185   0.467  0.00  0.00    -0.314 N 
ATOM     25  C   UNL     1      18.744 -11.580   0.986  0.00  0.00    +0.214 C 
ATOM     42  H   UNL     1      17.491 -10.458  -0.241  0.00  0.00    +0.149 HD
BRANCH   8  27
ATOM     27  C   UNL     1      16.261 -11.753   0.895  0.00  0.00    +0.119 C 
BRANCH  27  30
ATOM     30  C   UNL     1      15.780 -11.114   2.189  0.00  0.00    +0.103 C 
BRANCH  30  10
ATOM      6  O   UNL     1      16.077 -14.427   4.748  0.00  0.00    -0.377 OA
ATOM     10  N   UNL     1      15.445 -12.144   3.170  0.00  0.00    -0.297 NA
ATOM     36  C   UNL     1      15.551 -13.484   2.575  0.00  0.00    +0.112 C 
ATOM     37  C   UNL     1      16.316 -12.045   4.349  0.00  0.00    +0.112 C 
ATOM     38  C   UNL     1      15.208 -14.542   3.620  0.00  0.00    +0.175 C 
ATOM     39  C   UNL     1      15.957 -13.138   5.352  0.00  0.00    +0.175 C 
ENDBRANCH  30  10
ENDBRANCH  27  30
ENDBRANCH   8  27
ENDBRANCH  24  25
ENDBRANCH  14  24
TORSDOF 9
ENDMDL
MODEL 5
REMARK VINA RESULT:      -6.5     14.573     17.628
REMARK  Name = 11882964
REMARK  11 active torsions:
REMARK  status: ('A' for Active; 'I' for Inactive)
REMARK    1  A    between atoms: O_2  and  C_16
REMARK    2  A    between atoms: O_3  and  C_21
REMARK    3  A    between atoms: N_8  and  C_27
REMARK    4  A    between atoms: N_10  and  C_30
REMARK    5  A    between atoms: C_11  and  C_19
REMARK    6  A    between atoms: C_13  and  C_21
REMARK    7  A    between atoms: C_13  and  C_22
REMARK    8  A    between atoms: C_14  and  C_24
REMARK    9  A    between atoms: C_24  and  C_25
REMARK   10  A    between atoms: C_27  and  C_30
REMARK   11  A    between atoms: C_28  and  C_29
REMARK                            x       y       z     vdW  Elec       q    Type
REMARK                         _______ _______ _______ _____ _____    ______ ____
ROOT
ATOM      1  S   UNL     1      21.387  -5.198   0.805  0.00  0.00    -0.057 S 
ATOM      5  O   UNL     1      18.735  -6.342  -2.860  0.00  0.00    -0.275 OA
ATOM      7  N   UNL     1      20.077  -7.122  -0.324  0.00  0.00    -0.229 NA
ATOM      9  N   UNL     1      20.051  -4.986  -1.441  0.00  0.00    -0.264 N 
ATOM     11  C   UNL     1      21.501  -9.494   2.361  0.00  0.00    -0.019 C 
ATOM     12  C   UNL     1      21.564  -8.342   3.459  0.00  0.00    +0.011 C 
ATOM     13  C   UNL     1      22.221  -8.708   4.845  0.00  0.00    +0.021 C 
ATOM     14  C   UNL     1      20.438  -9.059   1.250  0.00  0.00    +0.054 C 
ATOM     15  C   UNL     1      21.010 -10.808   3.021  0.00  0.00    +0.010 C 
ATOM     16  C   UNL     1      21.653 -10.069   5.338  0.00  0.00    +0.123 C 
ATOM     17  C   UNL     1      22.083  -7.005   2.852  0.00  0.00    +0.049 C 
ATOM     18  C   UNL     1      21.756 -11.176   4.295  0.00  0.00    +0.032 C 
ATOM     19  C   UNL     1      22.870  -9.758   1.689  0.00  0.00    +0.012 C 
ATOM     20  C   UNL     1      20.651  -7.628   0.827  0.00  0.00    +0.058 A 
ATOM     22  C   UNL     1      21.823  -7.632   5.896  0.00  0.00    +0.016 C 
ATOM     23  C   UNL     1      21.376  -6.719   1.570  0.00  0.00    +0.015 A 
ATOM     26  C   UNL     1      20.403  -5.853  -0.441  0.00  0.00    +0.165 A 
ATOM     28  C   UNL     1      19.257  -5.272  -2.564  0.00  0.00    +0.222 C 
ATOM     43  H   UNL     1      20.409  -4.041  -1.329  0.00  0.00    +0.157 HD
ENDROOT
BRANCH  28  29
ATOM     29  C   UNL     1      19.083  -4.068  -3.443  0.00  0.00    +0.075 C 
ATOM     31  C   UNL     1      17.866  -4.226  -4.357  0.00  0.00    +0.013 C 
ATOM     32  C   UNL     1      19.022  -2.798  -2.590  0.00  0.00    +0.013 C 
ATOM     33  C   UNL     1      16.534  -4.012  -3.639  0.00  0.00    +0.001 C 
ATOM     34  C   UNL     1      17.681  -2.616  -1.883  0.00  0.00    +0.001 C 
ATOM     35  C   UNL     1      16.513  -2.702  -2.858  0.00  0.00    +0.000 C 
ENDBRANCH  28  29
BRANCH  16   2
ATOM      2  O   UNL     1      22.321 -10.493   6.525  0.00  0.00    -0.391 OA
ATOM     40  H   UNL     1      22.779  -9.720   6.898  0.00  0.00    +0.210 HD
ENDBRANCH  16   2
BRANCH  13  21
ATOM     21  C   UNL     1      23.765  -8.727   4.837  0.00  0.00    +0.165 C 
BRANCH  21   3
ATOM      3  O   UNL     1      24.210  -8.265   6.092  0.00  0.00    -0.394 OA
ATOM     41  H   UNL     1      23.450  -7.851   6.534  0.00  0.00    +0.209 HD
ENDBRANCH  21   3
ENDBRANCH  13  21
BRANCH  14  24
ATOM     24  C   UNL     1      20.363  -9.998   0.038  0.00  0.00    +0.106 C 
BRANCH  24  25
ATOM      4  O   UNL     1      18.270  -9.917  -1.173  0.00  0.00    -0.276 OA
ATOM      8  N   UNL     1      18.515 -11.406   0.594  0.00  0.00    -0.314 N 
ATOM     25  C   UNL     1      18.942 -10.411  -0.272  0.00  0.00    +0.214 C 
ATOM     42  H   UNL     1      19.153 -11.754   1.304  0.00  0.00    +0.149 HD
BRANCH   8  27
ATOM     27  C   UNL     1      17.196 -11.992   0.534  0.00  0.00    +0.119 C 
BRANCH  27  30
ATOM     30  C   UNL     1      17.112 -13.251   1.384  0.00  0.00    +0.103 C 
BRANCH  30  10
ATOM      6  O   UNL     1      15.782 -13.594   5.350  0.00  0.00    -0.377 OA
ATOM     10  N   UNL     1      16.734 -12.914   2.755  0.00  0.00    -0.297 NA
ATOM     36  C   UNL     1      15.319 -13.228   2.997  0.00  0.00    +0.112 C 
ATOM     37  C   UNL     1      17.581 -13.627   3.720  0.00  0.00    +0.112 C 
ATOM     38  C   UNL     1      14.950 -12.879   4.436  0.00  0.00    +0.175 C 
ATOM     39  C   UNL     1      17.158 -13.270   5.143  0.00  0.00    +0.175 C 
ENDBRANCH  30  10
ENDBRANCH  27  30
ENDBRANCH   8  27
ENDBRANCH  24  25
ENDBRANCH  14  24
TORSDOF 9
ENDMDL
MODEL 6
REMARK VINA RESULT:      -6.5     13.694     16.834
REMARK  Name = 11882964
REMARK  11 active torsions:
REMARK  status: ('A' for Active; 'I' for Inactive)
REMARK    1  A    between atoms: O_2  and  C_16
REMARK    2  A    between atoms: O_3  and  C_21
REMARK    3  A    between atoms: N_8  and  C_27
REMARK    4  A    between atoms: N_10  and  C_30
REMARK    5  A    between atoms: C_11  and  C_19
REMARK    6  A    between atoms: C_13  and  C_21
REMARK    7  A    between atoms: C_13  and  C_22
REMARK    8  A    between atoms: C_14  and  C_24
REMARK    9  A    between atoms: C_24  and  C_25
REMARK   10  A    between atoms: C_27  and  C_30
REMARK   11  A    between atoms: C_28  and  C_29
REMARK                            x       y       z     vdW  Elec       q    Type
REMARK                         _______ _______ _______ _____ _____    ______ ____
ROOT
ATOM      1  S   UNL     1      21.451  -5.052   0.887  0.00  0.00    -0.057 S 
ATOM      5  O   UNL     1      19.010  -6.135  -2.940  0.00  0.00    -0.275 OA
ATOM      7  N   UNL     1      20.272  -6.974  -0.382  0.00  0.00    -0.229 NA
ATOM      9  N   UNL     1      20.205  -4.793  -1.405  0.00  0.00    -0.264 N 
ATOM     11  C   UNL     1      21.678  -9.406   2.259  0.00  0.00    -0.019 C 
ATOM     12  C   UNL     1      21.644  -8.303   3.407  0.00  0.00    +0.011 C 
ATOM     13  C   UNL     1      22.256  -8.706   4.804  0.00  0.00    +0.021 C 
ATOM     14  C   UNL     1      20.646  -8.964   1.121  0.00  0.00    +0.054 C 
ATOM     15  C   UNL     1      21.213 -10.768   2.839  0.00  0.00    +0.010 C 
ATOM     16  C   UNL     1      21.725 -10.109   5.212  0.00  0.00    +0.123 C 
ATOM     17  C   UNL     1      22.133  -6.921   2.883  0.00  0.00    +0.049 C 
ATOM     18  C   UNL     1      21.919 -11.163   4.128  0.00  0.00    +0.032 C 
ATOM     19  C   UNL     1      23.084  -9.585   1.638  0.00  0.00    +0.012 C 
ATOM     20  C   UNL     1      20.817  -7.509   0.771  0.00  0.00    +0.058 A 
ATOM     22  C   UNL     1      21.768  -7.695   5.882  0.00  0.00    +0.016 C 
ATOM     23  C   UNL     1      21.471  -6.606   1.584  0.00  0.00    +0.015 A 
ATOM     26  C   UNL     1      20.550  -5.690  -0.429  0.00  0.00    +0.165 A 
ATOM     28  C   UNL     1      19.474  -5.059  -2.574  0.00  0.00    +0.222 C 
ATOM     43  H   UNL     1      20.519  -3.841  -1.237  0.00  0.00    +0.157 HD
ENDROOT
BRANCH  28  29
ATOM     29  C   UNL     1      19.287  -3.825  -3.407  0.00  0.00    +0.075 C 
ATOM     31  C   UNL     1      18.173  -4.020  -4.438  0.00  0.00    +0.013 C 
ATOM     32  C   UNL     1      19.052  -2.611  -2.504  0.00  0.00    +0.013 C 
ATOM     33  C   UNL     1      16.769  -3.943  -3.840  0.00  0.00    +0.001 C 
ATOM     34  C   UNL     1      17.642  -2.566  -1.918  0.00  0.00    +0.001 C 
ATOM     35  C   UNL     1      16.577  -2.683  -3.003  0.00  0.00    +0.000 C 
ENDBRANCH  28  29
BRANCH  16   2
ATOM      2  O   UNL     1      22.359 -10.559   6.408  0.00  0.00    -0.391 OA
ATOM     40  H   UNL     1      21.748 -11.171   6.853  0.00  0.00    +0.210 HD
ENDBRANCH  16   2
BRANCH  13  21
ATOM     21  C   UNL     1      23.799  -8.663   4.865  0.00  0.00    +0.165 C 
BRANCH  21   3
ATOM      3  O   UNL     1      24.169  -8.234   6.156  0.00  0.00    -0.394 OA
ATOM     41  H   UNL     1      23.353  -7.995   6.627  0.00  0.00    +0.209 HD
ENDBRANCH  21   3
ENDBRANCH  13  21
BRANCH  14  24
ATOM     24  C   UNL     1      20.663  -9.850  -0.132  0.00  0.00    +0.106 C 
BRANCH  24  25
ATOM      4  O   UNL     1      18.601 -11.116  -0.107  0.00  0.00    -0.276 OA
ATOM      8  N   UNL     1      18.859  -9.376  -1.625  0.00  0.00    -0.314 N 
ATOM     25  C   UNL     1      19.268 -10.206  -0.593  0.00  0.00    +0.214 C 
ATOM     42  H   UNL     1      19.483  -8.644  -1.952  0.00  0.00    +0.149 HD
BRANCH   8  27
ATOM     27  C   UNL     1      17.568  -9.487  -2.264  0.00  0.00    +0.119 C 
BRANCH  27  30
ATOM     30  C   UNL     1      17.706  -9.565  -3.777  0.00  0.00    +0.103 C 
BRANCH  30  10
ATOM      6  O   UNL     1      13.947  -8.559  -5.349  0.00  0.00    -0.377 OA
ATOM     10  N   UNL     1      16.626  -8.823  -4.425  0.00  0.00    -0.297 NA
ATOM     36  C   UNL     1      16.153  -9.531  -5.623  0.00  0.00    +0.112 C 
ATOM     37  C   UNL     1      15.511  -8.606  -3.494  0.00  0.00    +0.112 C 
ATOM     38  C   UNL     1      15.019  -8.745  -6.275  0.00  0.00    +0.175 C 
ATOM     39  C   UNL     1      14.391  -7.843  -4.196  0.00  0.00    +0.175 C 
ENDBRANCH  30  10
ENDBRANCH  27  30
ENDBRANCH   8  27
ENDBRANCH  24  25
ENDBRANCH  14  24
TORSDOF 9
ENDMDL
MODEL 7
REMARK VINA RESULT:      -6.4     27.256     30.489
REMARK  Name = 11882964
REMARK  11 active torsions:
REMARK  status: ('A' for Active; 'I' for Inactive)
REMARK    1  A    between atoms: O_2  and  C_16
REMARK    2  A    between atoms: O_3  and  C_21
REMARK    3  A    between atoms: N_8  and  C_27
REMARK    4  A    between atoms: N_10  and  C_30
REMARK    5  A    between atoms: C_11  and  C_19
REMARK    6  A    between atoms: C_13  and  C_21
REMARK    7  A    between atoms: C_13  and  C_22
REMARK    8  A    between atoms: C_14  and  C_24
REMARK    9  A    between atoms: C_24  and  C_25
REMARK   10  A    between atoms: C_27  and  C_30
REMARK   11  A    between atoms: C_28  and  C_29
REMARK                            x       y       z     vdW  Elec       q    Type
REMARK                         _______ _______ _______ _____ _____    ______ ____
ROOT
ATOM      1  S   UNL     1      -5.075 -10.905  12.677  0.00  0.00    -0.057 S 
ATOM      5  O   UNL     1      -8.158  -8.444  10.184  0.00  0.00    -0.275 OA
ATOM      7  N   UNL     1      -7.313  -9.610  12.785  0.00  0.00    -0.229 NA
ATOM      9  N   UNL     1      -6.216  -9.711  10.641  0.00  0.00    -0.264 N 
ATOM     11  C   UNL     1      -7.678 -10.806  16.433  0.00  0.00    -0.019 C 
ATOM     12  C   UNL     1      -6.103 -10.835  16.664  0.00  0.00    +0.011 C 
ATOM     13  C   UNL     1      -5.593 -11.398  18.046  0.00  0.00    +0.021 C 
ATOM     14  C   UNL     1      -7.978  -9.823  15.209  0.00  0.00    +0.054 C 
ATOM     15  C   UNL     1      -8.374 -10.239  17.697  0.00  0.00    +0.010 C 
ATOM     16  C   UNL     1      -6.424 -10.764  19.197  0.00  0.00    +0.123 C 
ATOM     17  C   UNL     1      -5.358 -11.428  15.432  0.00  0.00    +0.049 C 
ATOM     18  C   UNL     1      -7.929 -10.897  18.995  0.00  0.00    +0.032 C 
ATOM     19  C   UNL     1      -8.267 -12.204  16.127  0.00  0.00    +0.012 C 
ATOM     20  C   UNL     1      -7.053 -10.101  14.052  0.00  0.00    +0.058 A 
ATOM     22  C   UNL     1      -4.112 -10.970  18.254  0.00  0.00    +0.016 C 
ATOM     23  C   UNL     1      -5.874 -10.806  14.178  0.00  0.00    +0.015 A 
ATOM     26  C   UNL     1      -6.342  -9.979  11.978  0.00  0.00    +0.165 A 
ATOM     28  C   UNL     1      -7.108  -8.978   9.841  0.00  0.00    +0.222 C 
ATOM     43  H   UNL     1      -5.377 -10.089  10.210  0.00  0.00    +0.157 HD
ENDROOT
BRANCH  28  29
ATOM     29  C   UNL     1      -6.636  -8.890   8.419  0.00  0.00    +0.075 C 
ATOM     31  C   UNL     1      -5.847 -10.140   8.023  0.00  0.00    +0.013 C 
ATOM     32  C   UNL     1      -7.819  -8.618   7.487  0.00  0.00    +0.013 C 
ATOM     33  C   UNL     1      -6.730 -11.358   7.755  0.00  0.00    +0.001 C 
ATOM     34  C   UNL     1      -8.685  -9.852   7.243  0.00  0.00    +0.001 C 
ATOM     35  C   UNL     1      -7.853 -11.039   6.773  0.00  0.00    +0.000 C 
ENDBRANCH  28  29
BRANCH  16   2
ATOM      2  O   UNL     1      -6.076 -11.349  20.451  0.00  0.00    -0.391 OA
ATOM     40  H   UNL     1      -5.352 -10.823  20.831  0.00  0.00    +0.210 HD
ENDBRANCH  16   2
BRANCH  13  21
ATOM     21  C   UNL     1      -5.596 -12.940  18.151  0.00  0.00    +0.165 C 
BRANCH  21   3
ATOM      3  O   UNL     1      -4.344 -13.341  18.659  0.00  0.00    -0.394 OA
ATOM     41  H   UNL     1      -4.475 -13.590  19.590  0.00  0.00    +0.209 HD
ENDBRANCH  21   3
ENDBRANCH  13  21
BRANCH  14  24
ATOM     24  C   UNL     1      -9.445  -9.793  14.760  0.00  0.00    +0.106 C 
BRANCH  24  25
ATOM      4  O   UNL     1      -9.644  -7.650  15.865  0.00  0.00    -0.276 OA
ATOM      8  N   UNL     1     -11.303  -8.337  14.389  0.00  0.00    -0.314 N 
ATOM     25  C   UNL     1     -10.111  -8.475  15.084  0.00  0.00    +0.214 C 
ATOM     42  H   UNL     1     -11.598  -9.076  13.758  0.00  0.00    +0.149 HD
BRANCH   8  27
ATOM     27  C   UNL     1     -12.154  -7.175  14.505  0.00  0.00    +0.119 C 
BRANCH  27  30
ATOM     30  C   UNL     1     -13.302  -7.231  13.508  0.00  0.00    +0.103 C 
BRANCH  30  10
ATOM      6  O   UNL     1     -13.813  -3.112  12.888  0.00  0.00    -0.377 OA
ATOM     10  N   UNL     1     -13.466  -5.936  12.849  0.00  0.00    -0.297 NA
ATOM     36  C   UNL     1     -14.751  -5.325  13.216  0.00  0.00    +0.112 C 
ATOM     37  C   UNL     1     -12.361  -5.032  13.194  0.00  0.00    +0.112 C 
ATOM     38  C   UNL     1     -14.895  -3.971  12.526  0.00  0.00    +0.175 C 
ATOM     39  C   UNL     1     -12.561  -3.684  12.507  0.00  0.00    +0.175 C 
ENDBRANCH  30  10
ENDBRANCH  27  30
ENDBRANCH   8  27
ENDBRANCH  24  25
ENDBRANCH  14  24
TORSDOF 9
ENDMDL
MODEL 8
REMARK VINA RESULT:      -6.4     26.816     29.284
REMARK  Name = 11882964
REMARK  11 active torsions:
REMARK  status: ('A' for Active; 'I' for Inactive)
REMARK    1  A    between atoms: O_2  and  C_16
REMARK    2  A    between atoms: O_3  and  C_21
REMARK    3  A    between atoms: N_8  and  C_27
REMARK    4  A    between atoms: N_10  and  C_30
REMARK    5  A    between atoms: C_11  and  C_19
REMARK    6  A    between atoms: C_13  and  C_21
REMARK    7  A    between atoms: C_13  and  C_22
REMARK    8  A    between atoms: C_14  and  C_24
REMARK    9  A    between atoms: C_24  and  C_25
REMARK   10  A    between atoms: C_27  and  C_30
REMARK   11  A    between atoms: C_28  and  C_29
REMARK                            x       y       z     vdW  Elec       q    Type
REMARK                         _______ _______ _______ _____ _____    ______ ____
ROOT
ATOM      1  S   UNL     1      -5.100  -9.359  10.093  0.00  0.00    -0.057 S 
ATOM      5  O   UNL     1      -9.336  -7.546   9.353  0.00  0.00    -0.275 OA
ATOM      7  N   UNL     1      -7.421  -8.936  11.154  0.00  0.00    -0.229 NA
ATOM      9  N   UNL     1      -7.105  -8.172   8.890  0.00  0.00    -0.264 N 
ATOM     11  C   UNL     1      -6.259 -10.993  14.201  0.00  0.00    -0.019 C 
ATOM     12  C   UNL     1      -4.739 -10.555  14.016  0.00  0.00    +0.011 C 
ATOM     13  C   UNL     1      -3.680 -11.222  14.976  0.00  0.00    +0.021 C 
ATOM     14  C   UNL     1      -7.176  -9.909  13.468  0.00  0.00    +0.054 C 
ATOM     15  C   UNL     1      -6.615 -10.995  15.710  0.00  0.00    +0.010 C 
ATOM     16  C   UNL     1      -4.213 -11.181  16.436  0.00  0.00    +0.123 C 
ATOM     17  C   UNL     1      -4.321 -10.568  12.517  0.00  0.00    +0.049 C 
ATOM     18  C   UNL     1      -5.620 -11.752  16.578  0.00  0.00    +0.032 C 
ATOM     19  C   UNL     1      -6.554 -12.397  13.619  0.00  0.00    +0.012 C 
ATOM     20  C   UNL     1      -6.647  -9.592  12.093  0.00  0.00    +0.058 A 
ATOM     22  C   UNL     1      -2.367 -10.390  14.940  0.00  0.00    +0.016 C 
ATOM     23  C   UNL     1      -5.357  -9.879  11.694  0.00  0.00    +0.015 A 
ATOM     26  C   UNL     1      -6.712  -8.767  10.059  0.00  0.00    +0.165 A 
ATOM     28  C   UNL     1      -8.361  -7.609   8.611  0.00  0.00    +0.222 C 
ATOM     43  H   UNL     1      -6.390  -8.142   8.169  0.00  0.00    +0.157 HD
ENDROOT
BRANCH  28  29
ATOM     29  C   UNL     1      -8.422  -7.045   7.222  0.00  0.00    +0.075 C 
ATOM     31  C   UNL     1      -7.814  -8.016   6.207  0.00  0.00    +0.013 C 
ATOM     32  C   UNL     1      -9.860  -6.651   6.876  0.00  0.00    +0.013 C 
ATOM     33  C   UNL     1      -8.726  -9.195   5.870  0.00  0.00    +0.001 C 
ATOM     34  C   UNL     1     -10.747  -7.851   6.549  0.00  0.00    +0.001 C 
ATOM     35  C   UNL     1     -10.125  -8.735   5.474  0.00  0.00    +0.000 C 
ENDBRANCH  28  29
BRANCH  16   2
ATOM      2  O   UNL     1      -3.339 -11.891  17.312  0.00  0.00    -0.391 OA
ATOM     40  H   UNL     1      -3.839 -12.106  18.118  0.00  0.00    +0.210 HD
ENDBRANCH  16   2
BRANCH  13  21
ATOM     21  C   UNL     1      -3.271 -12.658  14.580  0.00  0.00    +0.165 C 
BRANCH  21   3
ATOM      3  O   UNL     1      -1.872 -12.764  14.723  0.00  0.00    -0.394 OA
ATOM     41  H   UNL     1      -1.662 -13.708  14.816  0.00  0.00    +0.209 HD
ENDBRANCH  21   3
ENDBRANCH  13  21
BRANCH  14  24
ATOM     24  C   UNL     1      -8.670 -10.262  13.427  0.00  0.00    +0.106 C 
BRANCH  24  25
ATOM      4  O   UNL     1      -9.182  -8.827  15.307  0.00  0.00    -0.276 OA
ATOM      8  N   UNL     1     -10.671  -8.962  13.527  0.00  0.00    -0.314 N 
ATOM     25  C   UNL     1      -9.506  -9.276  14.211  0.00  0.00    +0.214 C 
ATOM     42  H   UNL     1     -10.844  -9.382  12.619  0.00  0.00    +0.149 HD
BRANCH   8  27
ATOM     27  C   UNL     1     -11.664  -8.045  14.040  0.00  0.00    +0.119 C 
BRANCH  27  30
ATOM     30  C   UNL     1     -12.864  -7.955  13.109  0.00  0.00    +0.103 C 
BRANCH  30  10
ATOM      6  O   UNL     1     -11.984  -4.091  11.727  0.00  0.00    -0.377 OA
ATOM     10  N   UNL     1     -13.021  -6.588  12.614  0.00  0.00    -0.297 NA
ATOM     36  C   UNL     1     -12.433  -5.623  13.553  0.00  0.00    +0.112 C 
ATOM     37  C   UNL     1     -12.407  -6.440  11.288  0.00  0.00    +0.112 C 
ATOM     38  C   UNL     1     -12.600  -4.206  13.010  0.00  0.00    +0.175 C 
ATOM     39  C   UNL     1     -12.572  -5.004  10.798  0.00  0.00    +0.175 C 
ENDBRANCH  30  10
ENDBRANCH  27  30
ENDBRANCH   8  27
ENDBRANCH  24  25
ENDBRANCH  14  24
TORSDOF 9
ENDMDL
MODEL 9
REMARK VINA RESULT:      -6.2     29.183     35.159
REMARK  Name = 11882964
REMARK  11 active torsions:
REMARK  status: ('A' for Active; 'I' for Inactive)
REMARK    1  A    between atoms: O_2  and  C_16
REMARK    2  A    between atoms: O_3  and  C_21
REMARK    3  A    between atoms: N_8  and  C_27
REMARK    4  A    between atoms: N_10  and  C_30
REMARK    5  A    between atoms: C_11  and  C_19
REMARK    6  A    between atoms: C_13  and  C_21
REMARK    7  A    between atoms: C_13  and  C_22
REMARK    8  A    between atoms: C_14  and  C_24
REMARK    9  A    between atoms: C_24  and  C_25
REMARK   10  A    between atoms: C_27  and  C_30
REMARK   11  A    between atoms: C_28  and  C_29
REMARK                            x       y       z     vdW  Elec       q    Type
REMARK                         _______ _______ _______ _____ _____    ______ ____
ROOT
ATOM      1  S   UNL     1     -12.531   6.444  20.707  0.00  0.00    -0.057 S 
ATOM      5  O   UNL     1     -11.897  11.037  20.178  0.00  0.00    -0.275 OA
ATOM      7  N   UNL     1     -13.432   8.780  21.358  0.00  0.00    -0.229 NA
ATOM      9  N   UNL     1     -11.507   8.722  19.909  0.00  0.00    -0.264 N 
ATOM     11  C   UNL     1     -16.385   7.013  23.096  0.00  0.00    -0.019 C 
ATOM     12  C   UNL     1     -15.508   5.735  23.462  0.00  0.00    +0.011 C 
ATOM     13  C   UNL     1     -16.257   4.522  24.136  0.00  0.00    +0.021 C 
ATOM     14  C   UNL     1     -15.391   8.240  22.852  0.00  0.00    +0.054 C 
ATOM     15  C   UNL     1     -17.309   7.362  24.292  0.00  0.00    +0.010 C 
ATOM     16  C   UNL     1     -17.170   5.052  25.277  0.00  0.00    +0.123 C 
ATOM     17  C   UNL     1     -14.583   5.323  22.279  0.00  0.00    +0.049 C 
ATOM     18  C   UNL     1     -18.097   6.177  24.831  0.00  0.00    +0.032 C 
ATOM     19  C   UNL     1     -17.261   6.801  21.838  0.00  0.00    +0.012 C 
ATOM     20  C   UNL     1     -14.242   7.837  21.964  0.00  0.00    +0.058 A 
ATOM     22  C   UNL     1     -15.208   3.575  24.785  0.00  0.00    +0.016 C 
ATOM     23  C   UNL     1     -13.885   6.524  21.736  0.00  0.00    +0.015 A 
ATOM     26  C   UNL     1     -12.502   8.161  20.664  0.00  0.00    +0.165 A 
ATOM     28  C   UNL     1     -11.267  10.092  19.714  0.00  0.00    +0.222 C 
ATOM     43  H   UNL     1     -10.888   8.053  19.459  0.00  0.00    +0.157 HD
ENDROOT
BRANCH  28  29
ATOM     29  C   UNL     1     -10.083  10.328  18.823  0.00  0.00    +0.075 C 
ATOM     31  C   UNL     1      -9.797   9.104  17.951  0.00  0.00    +0.013 C 
ATOM     32  C   UNL     1     -10.287  11.604  18.003  0.00  0.00    +0.013 C 
ATOM     33  C   UNL     1     -10.768   8.951  16.780  0.00  0.00    +0.001 C 
ATOM     34  C   UNL     1     -11.265  11.420  16.844  0.00  0.00    +0.001 C 
ATOM     35  C   UNL     1     -10.881  10.236  15.965  0.00  0.00    +0.000 C 
ENDBRANCH  28  29
BRANCH  16   2
ATOM      2  O   UNL     1     -17.960   3.996  25.822  0.00  0.00    -0.391 OA
ATOM     40  H   UNL     1     -17.998   3.285  25.160  0.00  0.00    +0.210 HD
ENDBRANCH  16   2
BRANCH  13  21
ATOM     21  C   UNL     1     -17.060   3.639  23.154  0.00  0.00    +0.165 C 
BRANCH  21   3
ATOM      3  O   UNL     1     -16.832   2.291  23.500  0.00  0.00    -0.394 OA
ATOM     41  H   UNL     1     -17.195   1.743  22.784  0.00  0.00    +0.209 HD
ENDBRANCH  21   3
ENDBRANCH  13  21
BRANCH  14  24
ATOM     24  C   UNL     1     -16.070   9.520  22.346  0.00  0.00    +0.106 C 
BRANCH  24  25
ATOM      4  O   UNL     1     -16.324  11.805  23.101  0.00  0.00    -0.276 OA
ATOM      8  N   UNL     1     -15.040  10.321  24.347  0.00  0.00    -0.314 N 
ATOM     25  C   UNL     1     -15.847  10.687  23.281  0.00  0.00    +0.214 C 
ATOM     42  H   UNL     1     -14.703   9.366  24.410  0.00  0.00    +0.149 HD
BRANCH   8  27
ATOM     27  C   UNL     1     -14.658  11.237  25.398  0.00  0.00    +0.119 C 
BRANCH  27  30
ATOM     30  C   UNL     1     -13.282  11.830  25.138  0.00  0.00    +0.103 C 
BRANCH  30  10
ATOM      6  O   UNL     1     -10.984   9.575  27.830  0.00  0.00    -0.377 OA
ATOM     10  N   UNL     1     -12.362  11.471  26.216  0.00  0.00    -0.297 NA
ATOM     36  C   UNL     1     -13.055  10.701  27.258  0.00  0.00    +0.112 C 
ATOM     37  C   UNL     1     -11.223  10.703  25.695  0.00  0.00    +0.112 C 
ATOM     38  C   UNL     1     -12.073  10.328  28.365  0.00  0.00    +0.175 C 
ATOM     39  C   UNL     1     -10.284  10.328  26.839  0.00  0.00    +0.175 C 
ENDBRANCH  30  10
ENDBRANCH  27  30
ENDBRANCH   8  27
ENDBRANCH  24  25
ENDBRANCH  14  24
TORSDOF 9
ENDMDL
MODEL 10
REMARK VINA RESULT:      -6.2     26.886     29.939
REMARK  Name = 11882964
REMARK  11 active torsions:
REMARK  status: ('A' for Active; 'I' for Inactive)
REMARK    1  A    between atoms: O_2  and  C_16
REMARK    2  A    between atoms: O_3  and  C_21
REMARK    3  A    between atoms: N_8  and  C_27
REMARK    4  A    between atoms: N_10  and  C_30
REMARK    5  A    between atoms: C_11  and  C_19
REMARK    6  A    between atoms: C_13  and  C_21
REMARK    7  A    between atoms: C_13  and  C_22
REMARK    8  A    between atoms: C_14  and  C_24
REMARK    9  A    between atoms: C_24  and  C_25
REMARK   10  A    between atoms: C_27  and  C_30
REMARK   11  A    between atoms: C_28  and  C_29
REMARK                            x       y       z     vdW  Elec       q    Type
REMARK                         _______ _______ _______ _____ _____    ______ ____
ROOT
ATOM      1  S   UNL     1      -4.794  -9.233  10.614  0.00  0.00    -0.057 S 
ATOM      5  O   UNL     1      -9.125  -7.917   9.478  0.00  0.00    -0.275 OA
ATOM      7  N   UNL     1      -7.257  -9.197  11.406  0.00  0.00    -0.229 NA
ATOM      9  N   UNL     1      -6.791  -8.215   9.255  0.00  0.00    -0.264 N 
ATOM     11  C   UNL     1      -6.180 -11.334  14.429  0.00  0.00    -0.019 C 
ATOM     12  C   UNL     1      -4.723 -10.693  14.464  0.00  0.00    +0.011 C 
ATOM     13  C   UNL     1      -3.700 -11.297  15.501  0.00  0.00    +0.021 C 
ATOM     14  C   UNL     1      -7.147 -10.319  13.662  0.00  0.00    +0.054 C 
ATOM     15  C   UNL     1      -6.702 -11.506  15.879  0.00  0.00    +0.010 C 
ATOM     16  C   UNL     1      -4.397 -11.444  16.883  0.00  0.00    +0.123 C 
ATOM     17  C   UNL     1      -4.139 -10.529  13.030  0.00  0.00    +0.049 C 
ATOM     18  C   UNL     1      -5.719 -12.199  16.812  0.00  0.00    +0.032 C 
ATOM     19  C   UNL     1      -6.214 -12.711  13.723  0.00  0.00    +0.012 C 
ATOM     20  C   UNL     1      -6.513  -9.824  12.387  0.00  0.00    +0.058 A 
ATOM     22  C   UNL     1      -2.516 -10.304  15.683  0.00  0.00    +0.016 C 
ATOM     23  C   UNL     1      -5.159  -9.911  12.133  0.00  0.00    +0.015 A 
ATOM     26  C   UNL     1      -6.457  -8.850  10.421  0.00  0.00    +0.165 A 
ATOM     28  C   UNL     1      -8.072  -7.795   8.860  0.00  0.00    +0.222 C 
ATOM     43  H   UNL     1      -6.009  -8.035   8.630  0.00  0.00    +0.157 HD
ENDROOT
BRANCH  28  29
ATOM     29  C   UNL     1      -8.050  -7.131   7.514  0.00  0.00    +0.075 C 
ATOM     31  C   UNL     1      -7.863  -8.159   6.396  0.00  0.00    +0.013 C 
ATOM     32  C   UNL     1      -9.306  -6.277   7.328  0.00  0.00    +0.013 C 
ATOM     33  C   UNL     1      -9.128  -8.958   6.086  0.00  0.00    +0.001 C 
ATOM     34  C   UNL     1     -10.553  -7.104   7.024  0.00  0.00    +0.001 C 
ATOM     35  C   UNL     1     -10.330  -8.050   5.850  0.00  0.00    +0.000 C 
ENDBRANCH  28  29
BRANCH  16   2
ATOM      2  O   UNL     1      -3.539 -12.107  17.811  0.00  0.00    -0.391 OA
ATOM     40  H   UNL     1      -3.963 -12.066  18.685  0.00  0.00    +0.210 HD
ENDBRANCH  16   2
BRANCH  13  21
ATOM     21  C   UNL     1      -3.057 -12.632  15.064  0.00  0.00    +0.165 C 
BRANCH  21   3
ATOM      3  O   UNL     1      -1.694 -12.389  14.798  0.00  0.00    -0.394 OA
ATOM     41  H   UNL     1      -1.340 -11.877  15.545  0.00  0.00    +0.209 HD
ENDBRANCH  21   3
ENDBRANCH  13  21
BRANCH  14  24
ATOM     24  C   UNL     1      -8.564 -10.854  13.413  0.00  0.00    +0.106 C 
BRANCH  24  25
ATOM      4  O   UNL     1     -10.630 -10.751  14.668  0.00  0.00    -0.276 OA
ATOM      8  N   UNL     1      -9.168  -8.946  14.719  0.00  0.00    -0.314 N 
ATOM     25  C   UNL     1      -9.581 -10.211  14.328  0.00  0.00    +0.214 C 
ATOM     42  H   UNL     1      -8.275  -8.591  14.390  0.00  0.00    +0.149 HD
BRANCH   8  27
ATOM     27  C   UNL     1      -9.943  -8.097  15.594  0.00  0.00    +0.119 C 
BRANCH  27  30
ATOM     30  C   UNL     1      -9.394  -8.118  17.013  0.00  0.00    +0.103 C 
BRANCH  30  10
ATOM      6  O   UNL     1     -12.184 -10.897  18.466  0.00  0.00    -0.377 OA
ATOM     10  N   UNL     1     -10.310  -8.829  17.902  0.00  0.00    -0.297 NA
ATOM     36  C   UNL     1     -11.682  -8.787  17.378  0.00  0.00    +0.112 C 
ATOM     37  C   UNL     1      -9.883 -10.223  18.085  0.00  0.00    +0.112 C 
ATOM     38  C   UNL     1     -12.618  -9.545  18.316  0.00  0.00    +0.175 C 
ATOM     39  C   UNL     1     -10.862 -10.948  19.005  0.00  0.00    +0.175 C 
ENDBRANCH  30  10
ENDBRANCH  27  30
ENDBRANCH   8  27
ENDBRANCH  24  25
ENDBRANCH  14  24
TORSDOF 9
ENDMDL
