MODEL 1
REMARK VINA RESULT:      -7.9      0.000      0.000
REMARK  Name = 7143702
REMARK  2 active torsions:
REMARK  status: ('A' for Active; 'I' for Inactive)
REMARK    1  A    between atoms: C_14  and  C_17
REMARK    2  A    between atoms: C_15  and  C_18
REMARK                            x       y       z     vdW  Elec       q    Type
REMARK                         _______ _______ _______ _____ _____    ______ ____
ROOT
ATOM      1  O   UNL     1      15.275   7.390  22.469  0.00  0.00    -0.267 OA
ATOM      2  O   UNL     1      11.128   7.790  19.520  0.00  0.00    -0.270 OA
ATOM      3  N   UNL     1      11.747   9.969  20.101  0.00  0.00    -0.297 N 
ATOM      4  N   UNL     1      14.393   9.421  21.737  0.00  0.00    -0.311 N 
ATOM      5  C   UNL     1      12.124  10.306  22.536  0.00  0.00    +0.027 C 
ATOM      6  C   UNL     1      13.440  11.599  20.904  0.00  0.00    +0.054 C 
ATOM      7  C   UNL     1      12.717  11.681  22.248  0.00  0.00    +0.018 C 
ATOM      8  C   UNL     1      11.133   9.906  21.427  0.00  0.00    +0.113 C 
ATOM      9  C   UNL     1      13.270   9.295  22.677  0.00  0.00    +0.130 C 
ATOM     10  C   UNL     1      12.430  11.237  19.795  0.00  0.00    +0.117 C 
ATOM     11  C   UNL     1      14.544  10.560  20.941  0.00  0.00    +0.027 A 
ATOM     12  C   UNL     1      15.640  10.710  20.180  0.00  0.00    +0.022 A 
ATOM     13  C   UNL     1      15.355   8.393  21.756  0.00  0.00    +0.259 A 
ATOM     14  C   UNL     1      11.697   8.850  19.267  0.00  0.00    +0.247 C 
ATOM     15  C   UNL     1      16.549   8.569  20.858  0.00  0.00    +0.047 A 
ATOM     16  C   UNL     1      16.653   9.696  20.137  0.00  0.00    +0.015 A 
ENDROOT
BRANCH  15  18
ATOM     18  C   UNL     1      17.582   7.525  20.750  0.00  0.00    -0.012 A 
ATOM     21  C   UNL     1      18.652   7.506  21.646  0.00  0.00    +0.017 A 
ATOM     22  C   UNL     1      17.491   6.554  19.755  0.00  0.00    +0.009 A 
ATOM     23  C   UNL     1      19.645   6.516  21.557  0.00  0.00    -0.017 A 
ATOM     24  C   UNL     1      18.468   5.564  19.652  0.00  0.00    +0.009 A 
ATOM     25  C   UNL     1      19.552   5.531  20.545  0.00  0.00    -0.018 A 
ATOM     29  C   UNL     1      20.728   6.483  22.450  0.00  0.00    +0.008 A 
ATOM     30  C   UNL     1      20.545   4.543  20.457  0.00  0.00    +0.008 A 
ATOM     31  C   UNL     1      21.706   5.493  22.347  0.00  0.00    +0.001 A 
ATOM     32  C   UNL     1      21.614   4.524  21.352  0.00  0.00    +0.001 A 
ENDBRANCH  15  18
BRANCH  14  17
ATOM     17  C   UNL     1      12.399   8.917  17.980  0.00  0.00    +0.037 A 
ATOM     19  C   UNL     1      11.706   9.292  16.832  0.00  0.00    +0.013 A 
ATOM     20  C   UNL     1      13.755   8.605  17.914  0.00  0.00    +0.013 A 
ATOM     26  C   UNL     1      12.374   9.355  15.609  0.00  0.00    +0.001 A 
ATOM     27  C   UNL     1      14.421   8.667  16.691  0.00  0.00    +0.001 A 
ATOM     28  C   UNL     1      13.731   9.043  15.538  0.00  0.00    +0.000 A 
ENDBRANCH  14  17
TORSDOF 2
ENDMDL
MODEL 2
REMARK VINA RESULT:      -7.7      2.996      8.017
REMARK  Name = 7143702
REMARK  2 active torsions:
REMARK  status: ('A' for Active; 'I' for Inactive)
REMARK    1  A    between atoms: C_14  and  C_17
REMARK    2  A    between atoms: C_15  and  C_18
REMARK                            x       y       z     vdW  Elec       q    Type
REMARK                         _______ _______ _______ _____ _____    ______ ____
ROOT
ATOM      1  O   UNL     1      10.727  10.234  23.068  0.00  0.00    -0.267 OA
ATOM      2  O   UNL     1      14.812   7.271  22.297  0.00  0.00    -0.270 OA
ATOM      3  N   UNL     1      14.151   8.060  20.196  0.00  0.00    -0.297 N 
ATOM      4  N   UNL     1      11.768   9.971  20.998  0.00  0.00    -0.311 N 
ATOM      5  C   UNL     1      11.732   7.756  19.709  0.00  0.00    +0.027 C 
ATOM      6  C   UNL     1      12.932   9.697  18.781  0.00  0.00    +0.054 C 
ATOM      7  C   UNL     1      11.876   8.636  18.472  0.00  0.00    +0.018 C 
ATOM      8  C   UNL     1      13.074   7.082  20.047  0.00  0.00    +0.113 C 
ATOM      9  C   UNL     1      11.211   8.617  20.868  0.00  0.00    +0.130 C 
ATOM     10  C   UNL     1      14.282   9.011  19.079  0.00  0.00    +0.117 C 
ATOM     11  C   UNL     1      12.522  10.544  19.971  0.00  0.00    +0.027 A 
ATOM     12  C   UNL     1      12.917  11.824  20.057  0.00  0.00    +0.022 A 
ATOM     13  C   UNL     1      11.418  10.692  22.156  0.00  0.00    +0.259 A 
ATOM     14  C   UNL     1      14.919   8.064  21.362  0.00  0.00    +0.247 C 
ATOM     15  C   UNL     1      11.916  12.109  22.246  0.00  0.00    +0.047 A 
ATOM     16  C   UNL     1      12.612  12.614  21.216  0.00  0.00    +0.015 A 
ENDROOT
BRANCH  15  18
ATOM     18  C   UNL     1      11.665  12.931  23.441  0.00  0.00    -0.012 A 
ATOM     21  C   UNL     1      12.633  13.021  24.443  0.00  0.00    +0.017 A 
ATOM     22  C   UNL     1      10.462  13.620  23.573  0.00  0.00    +0.009 A 
ATOM     23  C   UNL     1      12.409  13.802  25.589  0.00  0.00    -0.017 A 
ATOM     24  C   UNL     1      10.222  14.399  24.705  0.00  0.00    +0.009 A 
ATOM     25  C   UNL     1      11.186  14.501  25.722  0.00  0.00    -0.018 A 
ATOM     29  C   UNL     1      13.372  13.903  26.606  0.00  0.00    +0.008 A 
ATOM     30  C   UNL     1      10.963  15.280  26.868  0.00  0.00    +0.008 A 
ATOM     31  C   UNL     1      13.133  14.683  27.738  0.00  0.00    +0.001 A 
ATOM     32  C   UNL     1      11.930  15.370  27.869  0.00  0.00    +0.001 A 
ENDBRANCH  15  18
BRANCH  14  17
ATOM     17  C   UNL     1      15.932   9.114  21.518  0.00  0.00    +0.037 A 
ATOM     19  C   UNL     1      15.580  10.337  22.085  0.00  0.00    +0.013 A 
ATOM     20  C   UNL     1      17.239   8.884  21.098  0.00  0.00    +0.013 A 
ATOM     26  C   UNL     1      16.543  11.335  22.233  0.00  0.00    +0.001 A 
ATOM     27  C   UNL     1      18.201   9.882  21.245  0.00  0.00    +0.001 A 
ATOM     28  C   UNL     1      17.853  11.108  21.813  0.00  0.00    +0.000 A 
ENDBRANCH  14  17
TORSDOF 2
ENDMDL
MODEL 3
REMARK VINA RESULT:      -7.7      1.361      2.070
REMARK  Name = 7143702
REMARK  2 active torsions:
REMARK  status: ('A' for Active; 'I' for Inactive)
REMARK    1  A    between atoms: C_14  and  C_17
REMARK    2  A    between atoms: C_15  and  C_18
REMARK                            x       y       z     vdW  Elec       q    Type
REMARK                         _______ _______ _______ _____ _____    ______ ____
ROOT
ATOM      1  O   UNL     1      15.535   6.600  21.752  0.00  0.00    -0.267 OA
ATOM      2  O   UNL     1      12.251   7.199  17.890  0.00  0.00    -0.270 OA
ATOM      3  N   UNL     1      11.730   8.842  19.472  0.00  0.00    -0.297 N 
ATOM      4  N   UNL     1      13.999   8.350  21.613  0.00  0.00    -0.311 N 
ATOM      5  C   UNL     1      11.469   7.979  21.789  0.00  0.00    +0.027 C 
ATOM      6  C   UNL     1      12.354  10.248  21.421  0.00  0.00    +0.054 C 
ATOM      7  C   UNL     1      11.438   9.411  22.313  0.00  0.00    +0.018 C 
ATOM      8  C   UNL     1      10.976   7.930  20.331  0.00  0.00    +0.113 C 
ATOM      9  C   UNL     1      12.896   7.433  21.934  0.00  0.00    +0.130 C 
ATOM     10  C   UNL     1      11.828  10.224  19.971  0.00  0.00    +0.117 C 
ATOM     11  C   UNL     1      13.776   9.720  21.452  0.00  0.00    +0.027 A 
ATOM     12  C   UNL     1      14.812  10.556  21.282  0.00  0.00    +0.022 A 
ATOM     13  C   UNL     1      15.294   7.797  21.580  0.00  0.00    +0.259 A 
ATOM     14  C   UNL     1      12.330   8.353  18.310  0.00  0.00    +0.247 C 
ATOM     15  C   UNL     1      16.431   8.754  21.340  0.00  0.00    +0.047 A 
ATOM     16  C   UNL     1      16.157  10.062  21.221  0.00  0.00    +0.015 A 
ENDROOT
BRANCH  15  18
ATOM     18  C   UNL     1      17.818   8.275  21.221  0.00  0.00    -0.012 A 
ATOM     21  C   UNL     1      18.071   6.953  20.850  0.00  0.00    +0.017 A 
ATOM     22  C   UNL     1      18.879   9.140  21.478  0.00  0.00    +0.009 A 
ATOM     23  C   UNL     1      19.389   6.480  20.731  0.00  0.00    -0.017 A 
ATOM     24  C   UNL     1      20.193   8.688  21.365  0.00  0.00    +0.009 A 
ATOM     25  C   UNL     1      20.465   7.361  20.993  0.00  0.00    -0.018 A 
ATOM     29  C   UNL     1      19.660   5.155  20.359  0.00  0.00    +0.008 A 
ATOM     30  C   UNL     1      21.782   6.888  20.874  0.00  0.00    +0.008 A 
ATOM     31  C   UNL     1      20.975   4.702  20.246  0.00  0.00    +0.001 A 
ATOM     32  C   UNL     1      22.034   5.568  20.503  0.00  0.00    +0.001 A 
ENDBRANCH  15  18
BRANCH  14  17
ATOM     17  C   UNL     1      13.153   9.274  17.518  0.00  0.00    +0.037 A 
ATOM     19  C   UNL     1      14.375   9.716  18.019  0.00  0.00    +0.013 A 
ATOM     20  C   UNL     1      12.710   9.700  16.268  0.00  0.00    +0.013 A 
ATOM     26  C   UNL     1      15.158  10.592  17.266  0.00  0.00    +0.001 A 
ATOM     27  C   UNL     1      13.492  10.576  15.517  0.00  0.00    +0.001 A 
ATOM     28  C   UNL     1      14.716  11.022  16.015  0.00  0.00    +0.000 A 
ENDBRANCH  14  17
TORSDOF 2
ENDMDL
MODEL 4
REMARK VINA RESULT:      -7.6     26.062     28.886
REMARK  Name = 7143702
REMARK  2 active torsions:
REMARK  status: ('A' for Active; 'I' for Inactive)
REMARK    1  A    between atoms: C_14  and  C_17
REMARK    2  A    between atoms: C_15  and  C_18
REMARK                            x       y       z     vdW  Elec       q    Type
REMARK                         _______ _______ _______ _____ _____    ______ ____
ROOT
ATOM      1  O   UNL     1     -13.982   9.130  17.991  0.00  0.00    -0.267 OA
ATOM      2  O   UNL     1     -16.357  10.178  22.387  0.00  0.00    -0.270 OA
ATOM      3  N   UNL     1     -15.587   7.975  22.551  0.00  0.00    -0.297 N 
ATOM      4  N   UNL     1     -14.033   7.681  19.818  0.00  0.00    -0.311 N 
ATOM      5  C   UNL     1     -16.186   6.540  20.612  0.00  0.00    +0.027 C 
ATOM      6  C   UNL     1     -14.074   6.149  21.817  0.00  0.00    +0.054 C 
ATOM      7  C   UNL     1     -15.251   5.453  21.134  0.00  0.00    +0.018 C 
ATOM      8  C   UNL     1     -16.691   7.416  21.773  0.00  0.00    +0.113 C 
ATOM      9  C   UNL     1     -15.443   7.361  19.550  0.00  0.00    +0.130 C 
ATOM     10  C   UNL     1     -14.588   6.992  23.002  0.00  0.00    +0.117 C 
ATOM     11  C   UNL     1     -13.330   7.044  20.844  0.00  0.00    +0.027 A 
ATOM     12  C   UNL     1     -12.013   7.258  20.994  0.00  0.00    +0.022 A 
ATOM     13  C   UNL     1     -13.406   8.575  18.929  0.00  0.00    +0.259 A 
ATOM     14  C   UNL     1     -15.524   9.354  22.762  0.00  0.00    +0.247 C 
ATOM     15  C   UNL     1     -11.940   8.831  19.152  0.00  0.00    +0.047 A 
ATOM     16  C   UNL     1     -11.312   8.170  20.136  0.00  0.00    +0.015 A 
ENDROOT
BRANCH  15  18
ATOM     18  C   UNL     1     -11.201   9.798  18.324  0.00  0.00    -0.012 A 
ATOM     21  C   UNL     1     -11.200  11.152  18.664  0.00  0.00    +0.017 A 
ATOM     22  C   UNL     1     -10.502   9.363  17.200  0.00  0.00    +0.009 A 
ATOM     23  C   UNL     1     -10.498  12.088  17.884  0.00  0.00    -0.017 A 
ATOM     24  C   UNL     1      -9.801  10.278  16.414  0.00  0.00    +0.009 A 
ATOM     25  C   UNL     1      -9.789  11.644  16.743  0.00  0.00    -0.018 A 
ATOM     29  C   UNL     1     -10.487  13.453  18.212  0.00  0.00    +0.008 A 
ATOM     30  C   UNL     1      -9.090  12.579  15.964  0.00  0.00    +0.008 A 
ATOM     31  C   UNL     1      -9.786  14.367  17.426  0.00  0.00    +0.001 A 
ATOM     32  C   UNL     1      -9.088  13.931  16.304  0.00  0.00    +0.001 A 
ENDBRANCH  15  18
BRANCH  14  17
ATOM     17  C   UNL     1     -14.357   9.892  23.471  0.00  0.00    +0.037 A 
ATOM     19  C   UNL     1     -13.253  10.338  22.748  0.00  0.00    +0.013 A 
ATOM     20  C   UNL     1     -14.359   9.953  24.862  0.00  0.00    +0.013 A 
ATOM     26  C   UNL     1     -12.144  10.848  23.422  0.00  0.00    +0.001 A 
ATOM     27  C   UNL     1     -13.250  10.463  25.536  0.00  0.00    +0.001 A 
ATOM     28  C   UNL     1     -12.142  10.911  24.816  0.00  0.00    +0.000 A 
ENDBRANCH  14  17
TORSDOF 2
ENDMDL
MODEL 5
REMARK VINA RESULT:      -7.6     28.213     30.403
REMARK  Name = 7143702
REMARK  2 active torsions:
REMARK  status: ('A' for Active; 'I' for Inactive)
REMARK    1  A    between atoms: C_14  and  C_17
REMARK    2  A    between atoms: C_15  and  C_18
REMARK                            x       y       z     vdW  Elec       q    Type
REMARK                         _______ _______ _______ _____ _____    ______ ____
ROOT
ATOM      1  O   UNL     1      -6.198 -12.881  14.968  0.00  0.00    -0.267 OA
ATOM      2  O   UNL     1     -11.098 -12.093  16.163  0.00  0.00    -0.270 OA
ATOM      3  N   UNL     1      -9.863 -11.697  18.110  0.00  0.00    -0.297 N 
ATOM      4  N   UNL     1      -6.917 -12.073  17.035  0.00  0.00    -0.311 N 
ATOM      5  C   UNL     1      -8.257 -13.506  18.683  0.00  0.00    +0.027 C 
ATOM      6  C   UNL     1      -7.719 -11.170  19.245  0.00  0.00    +0.054 C 
ATOM      7  C   UNL     1      -7.636 -12.610  19.750  0.00  0.00    +0.018 C 
ATOM      8  C   UNL     1      -9.727 -13.114  18.442  0.00  0.00    +0.113 C 
ATOM      9  C   UNL     1      -7.416 -13.406  17.404  0.00  0.00    +0.130 C 
ATOM     10  C   UNL     1      -9.197 -10.775  19.045  0.00  0.00    +0.117 C 
ATOM     11  C   UNL     1      -6.970 -11.007  17.936  0.00  0.00    +0.027 A 
ATOM     12  C   UNL     1      -6.399  -9.832  17.625  0.00  0.00    +0.022 A 
ATOM     13  C   UNL     1      -6.295 -11.955  15.777  0.00  0.00    +0.259 A 
ATOM     14  C   UNL     1     -10.541 -11.326  16.946  0.00  0.00    +0.247 C 
ATOM     15  C   UNL     1      -5.706 -10.612  15.438  0.00  0.00    +0.047 A 
ATOM     16  C   UNL     1      -5.763  -9.634  16.355  0.00  0.00    +0.015 A 
ENDROOT
BRANCH  15  18
ATOM     18  C   UNL     1      -5.091 -10.359  14.125  0.00  0.00    -0.012 A 
ATOM     21  C   UNL     1      -5.840  -9.770  13.104  0.00  0.00    +0.017 A 
ATOM     22  C   UNL     1      -3.762 -10.708  13.899  0.00  0.00    +0.009 A 
ATOM     23  C   UNL     1      -5.268  -9.521  11.846  0.00  0.00    -0.017 A 
ATOM     24  C   UNL     1      -3.177 -10.468  12.655  0.00  0.00    +0.009 A 
ATOM     25  C   UNL     1      -3.917  -9.876  11.618  0.00  0.00    -0.018 A 
ATOM     29  C   UNL     1      -6.007  -8.930  10.809  0.00  0.00    +0.008 A 
ATOM     30  C   UNL     1      -3.346  -9.627  10.359  0.00  0.00    +0.008 A 
ATOM     31  C   UNL     1      -5.423  -8.690   9.565  0.00  0.00    +0.001 A 
ATOM     32  C   UNL     1      -4.094  -9.038   9.341  0.00  0.00    +0.001 A 
ENDBRANCH  15  18
BRANCH  14  17
ATOM     17  C   UNL     1     -10.582  -9.902  16.596  0.00  0.00    +0.037 A 
ATOM     19  C   UNL     1      -9.546  -9.341  15.852  0.00  0.00    +0.013 A 
ATOM     20  C   UNL     1     -11.657  -9.118  17.008  0.00  0.00    +0.013 A 
ATOM     26  C   UNL     1      -9.586  -7.987  15.520  0.00  0.00    +0.001 A 
ATOM     27  C   UNL     1     -11.696  -7.764  16.676  0.00  0.00    +0.001 A 
ATOM     28  C   UNL     1     -10.661  -7.199  15.931  0.00  0.00    +0.000 A 
ENDBRANCH  14  17
TORSDOF 2
ENDMDL
MODEL 6
REMARK VINA RESULT:      -7.6     25.836     28.787
REMARK  Name = 7143702
REMARK  2 active torsions:
REMARK  status: ('A' for Active; 'I' for Inactive)
REMARK    1  A    between atoms: C_14  and  C_17
REMARK    2  A    between atoms: C_15  and  C_18
REMARK                            x       y       z     vdW  Elec       q    Type
REMARK                         _______ _______ _______ _____ _____    ______ ____
ROOT
ATOM      1  O   UNL     1     -12.553  10.176  20.463  0.00  0.00    -0.267 OA
ATOM      2  O   UNL     1     -14.289  12.151  16.088  0.00  0.00    -0.270 OA
ATOM      3  N   UNL     1     -11.985  11.852  15.818  0.00  0.00    -0.297 N 
ATOM      4  N   UNL     1     -11.238  10.474  18.560  0.00  0.00    -0.311 N 
ATOM      5  C   UNL     1     -10.613  12.793  17.666  0.00  0.00    +0.027 C 
ATOM      6  C   UNL     1      -9.848  10.774  16.480  0.00  0.00    +0.054 C 
ATOM      7  C   UNL     1      -9.382  12.090  17.103  0.00  0.00    +0.018 C 
ATOM      8  C   UNL     1     -11.632  13.070  16.545  0.00  0.00    +0.113 C 
ATOM      9  C   UNL     1     -11.207  11.926  18.784  0.00  0.00    +0.130 C 
ATOM     10  C   UNL     1     -10.838  11.066  15.333  0.00  0.00    +0.117 C 
ATOM     11  C   UNL     1     -10.519   9.889  17.514  0.00  0.00    +0.027 A 
ATOM     12  C   UNL     1     -10.460   8.553  17.400  0.00  0.00    +0.022 A 
ATOM     13  C   UNL     1     -11.936   9.701  19.507  0.00  0.00    +0.259 A 
ATOM     14  C   UNL     1     -13.329  11.497  15.683  0.00  0.00    +0.247 C 
ATOM     15  C   UNL     1     -11.891   8.207  19.326  0.00  0.00    +0.047 A 
ATOM     16  C   UNL     1     -11.162   7.703  18.319  0.00  0.00    +0.015 A 
ENDROOT
BRANCH  15  18
ATOM     18  C   UNL     1     -12.640   7.308  20.219  0.00  0.00    -0.012 A 
ATOM     21  C   UNL     1     -14.034   7.273  20.165  0.00  0.00    +0.017 A 
ATOM     22  C   UNL     1     -11.958   6.491  21.117  0.00  0.00    +0.009 A 
ATOM     23  C   UNL     1     -14.764   6.419  21.010  0.00  0.00    -0.017 A 
ATOM     24  C   UNL     1     -12.666   5.638  21.964  0.00  0.00    +0.009 A 
ATOM     25  C   UNL     1     -14.069   5.590  21.922  0.00  0.00    -0.018 A 
ATOM     29  C   UNL     1     -16.166   6.372  20.969  0.00  0.00    +0.008 A 
ATOM     30  C   UNL     1     -14.799   4.738  22.767  0.00  0.00    +0.008 A 
ATOM     31  C   UNL     1     -16.874   5.519  21.816  0.00  0.00    +0.001 A 
ATOM     32  C   UNL     1     -16.192   4.703  22.713  0.00  0.00    +0.001 A 
ENDBRANCH  15  18
BRANCH  14  17
ATOM     17  C   UNL     1     -13.644  10.223  15.026  0.00  0.00    +0.037 A 
ATOM     19  C   UNL     1     -13.807   9.071  15.792  0.00  0.00    +0.013 A 
ATOM     20  C   UNL     1     -13.779  10.173  13.641  0.00  0.00    +0.013 A 
ATOM     26  C   UNL     1     -14.106   7.861  15.167  0.00  0.00    +0.001 A 
ATOM     27  C   UNL     1     -14.078   8.962  13.017  0.00  0.00    +0.001 A 
ATOM     28  C   UNL     1     -14.242   7.806  13.780  0.00  0.00    +0.000 A 
ENDBRANCH  14  17
TORSDOF 2
ENDMDL
MODEL 7
REMARK VINA RESULT:      -7.5     13.252     16.770
REMARK  Name = 7143702
REMARK  2 active torsions:
REMARK  status: ('A' for Active; 'I' for Inactive)
REMARK    1  A    between atoms: C_14  and  C_17
REMARK    2  A    between atoms: C_15  and  C_18
REMARK                            x       y       z     vdW  Elec       q    Type
REMARK                         _______ _______ _______ _____ _____    ______ ____
ROOT
ATOM      1  O   UNL     1      18.855  -5.953  28.735  0.00  0.00    -0.267 OA
ATOM      2  O   UNL     1      20.402  -2.806  25.025  0.00  0.00    -0.270 OA
ATOM      3  N   UNL     1      20.120  -4.909  24.043  0.00  0.00    -0.297 N 
ATOM      4  N   UNL     1      19.004  -6.566  26.489  0.00  0.00    -0.311 N 
ATOM      5  C   UNL     1      21.245  -6.762  25.261  0.00  0.00    +0.027 C 
ATOM      6  C   UNL     1      19.142  -7.192  24.053  0.00  0.00    +0.054 C 
ATOM      7  C   UNL     1      20.516  -7.774  24.384  0.00  0.00    +0.018 C 
ATOM      8  C   UNL     1      21.404  -5.423  24.516  0.00  0.00    +0.113 C 
ATOM      9  C   UNL     1      20.471  -6.602  26.576  0.00  0.00    +0.130 C 
ATOM     10  C   UNL     1      19.314  -5.872  23.273  0.00  0.00    +0.117 C 
ATOM     11  C   UNL     1      18.341  -6.933  25.315  0.00  0.00    +0.027 A 
ATOM     12  C   UNL     1      17.001  -7.012  25.294  0.00  0.00    +0.022 A 
ATOM     13  C   UNL     1      18.307  -6.247  27.670  0.00  0.00    +0.259 A 
ATOM     14  C   UNL     1      19.731  -3.612  24.383  0.00  0.00    +0.247 C 
ATOM     15  C   UNL     1      16.804  -6.299  27.602  0.00  0.00    +0.047 A 
ATOM     16  C   UNL     1      16.224  -6.685  26.455  0.00  0.00    +0.015 A 
ENDROOT
BRANCH  15  18
ATOM     18  C   UNL     1      15.975  -5.921  28.758  0.00  0.00    -0.012 A 
ATOM     21  C   UNL     1      14.785  -6.603  29.017  0.00  0.00    +0.017 A 
ATOM     22  C   UNL     1      16.378  -4.883  29.595  0.00  0.00    +0.009 A 
ATOM     23  C   UNL     1      13.983  -6.255  30.118  0.00  0.00    -0.017 A 
ATOM     24  C   UNL     1      15.594  -4.524  30.692  0.00  0.00    +0.009 A 
ATOM     25  C   UNL     1      14.394  -5.200  30.967  0.00  0.00    -0.018 A 
ATOM     29  C   UNL     1      12.783  -6.930  30.392  0.00  0.00    +0.008 A 
ATOM     30  C   UNL     1      13.592  -4.853  32.066  0.00  0.00    +0.008 A 
ATOM     31  C   UNL     1      12.000  -6.572  31.489  0.00  0.00    +0.001 A 
ATOM     32  C   UNL     1      12.403  -5.534  32.324  0.00  0.00    +0.001 A 
ENDBRANCH  15  18
BRANCH  14  17
ATOM     17  C   UNL     1      18.399  -3.159  23.967  0.00  0.00    +0.037 A 
ATOM     19  C   UNL     1      17.291  -3.446  24.760  0.00  0.00    +0.013 A 
ATOM     20  C   UNL     1      18.249  -2.443  22.781  0.00  0.00    +0.013 A 
ATOM     26  C   UNL     1      16.025  -3.016  24.365  0.00  0.00    +0.001 A 
ATOM     27  C   UNL     1      16.983  -2.013  22.386  0.00  0.00    +0.001 A 
ATOM     28  C   UNL     1      15.871  -2.299  23.178  0.00  0.00    +0.000 A 
ENDBRANCH  14  17
TORSDOF 2
ENDMDL
MODEL 8
REMARK VINA RESULT:      -7.3     27.495     30.429
REMARK  Name = 7143702
REMARK  2 active torsions:
REMARK  status: ('A' for Active; 'I' for Inactive)
REMARK    1  A    between atoms: C_14  and  C_17
REMARK    2  A    between atoms: C_15  and  C_18
REMARK                            x       y       z     vdW  Elec       q    Type
REMARK                         _______ _______ _______ _____ _____    ______ ____
ROOT
ATOM      1  O   UNL     1      -6.705  -9.979  14.184  0.00  0.00    -0.267 OA
ATOM      2  O   UNL     1      -4.769 -14.406  12.539  0.00  0.00    -0.270 OA
ATOM      3  N   UNL     1      -2.953 -13.084  13.192  0.00  0.00    -0.297 N 
ATOM      4  N   UNL     1      -4.444 -10.535  14.313  0.00  0.00    -0.311 N 
ATOM      5  C   UNL     1      -2.967 -10.790  12.234  0.00  0.00    +0.027 C 
ATOM      6  C   UNL     1      -2.013 -11.175  14.471  0.00  0.00    +0.054 C 
ATOM      7  C   UNL     1      -1.827 -10.398  13.168  0.00  0.00    +0.018 C 
ATOM      8  C   UNL     1      -2.937 -12.304  11.955  0.00  0.00    +0.113 C 
ATOM      9  C   UNL     1      -4.295 -10.345  12.863  0.00  0.00    +0.130 C 
ATOM     10  C   UNL     1      -1.941 -12.689  14.186  0.00  0.00    +0.117 C 
ATOM     11  C   UNL     1      -3.345 -10.845  15.118  0.00  0.00    +0.027 A 
ATOM     12  C   UNL     1      -3.479 -10.892  16.453  0.00  0.00    +0.022 A 
ATOM     13  C   UNL     1      -5.720 -10.288  14.856  0.00  0.00    +0.259 A 
ATOM     14  C   UNL     1      -3.922 -14.074  13.367  0.00  0.00    +0.247 C 
ATOM     15  C   UNL     1      -5.849 -10.396  16.352  0.00  0.00    +0.047 A 
ATOM     16  C   UNL     1      -4.752 -10.669  17.075  0.00  0.00    +0.015 A 
ENDROOT
BRANCH  15  18
ATOM     18  C   UNL     1      -7.150 -10.223  17.019  0.00  0.00    -0.012 A 
ATOM     21  C   UNL     1      -7.593 -11.171  17.942  0.00  0.00    +0.017 A 
ATOM     22  C   UNL     1      -7.939  -9.112  16.729  0.00  0.00    +0.009 A 
ATOM     23  C   UNL     1      -8.831 -11.020  18.588  0.00  0.00    -0.017 A 
ATOM     24  C   UNL     1      -9.172  -8.947  17.360  0.00  0.00    +0.009 A 
ATOM     25  C   UNL     1      -9.632  -9.891  18.292  0.00  0.00    -0.018 A 
ATOM     29  C   UNL     1      -9.292 -11.964  19.519  0.00  0.00    +0.008 A 
ATOM     30  C   UNL     1     -10.871  -9.741  18.938  0.00  0.00    +0.008 A 
ATOM     31  C   UNL     1     -10.525 -11.798  20.151  0.00  0.00    +0.001 A 
ATOM     32  C   UNL     1     -11.313 -10.689  19.860  0.00  0.00    +0.001 A 
ENDBRANCH  15  18
BRANCH  14  17
ATOM     17  C   UNL     1      -3.966 -14.777  14.654  0.00  0.00    +0.037 A 
ATOM     19  C   UNL     1      -3.211 -15.933  14.838  0.00  0.00    +0.013 A 
ATOM     20  C   UNL     1      -4.761 -14.285  15.686  0.00  0.00    +0.013 A 
ATOM     26  C   UNL     1      -3.253 -16.601  16.062  0.00  0.00    +0.001 A 
ATOM     27  C   UNL     1      -4.803 -14.953  16.909  0.00  0.00    +0.001 A 
ATOM     28  C   UNL     1      -4.049 -16.111  17.097  0.00  0.00    +0.000 A 
ENDBRANCH  14  17
TORSDOF 2
ENDMDL
MODEL 9
REMARK VINA RESULT:      -7.0     22.479     24.194
REMARK  Name = 7143702
REMARK  2 active torsions:
REMARK  status: ('A' for Active; 'I' for Inactive)
REMARK    1  A    between atoms: C_14  and  C_17
REMARK    2  A    between atoms: C_15  and  C_18
REMARK                            x       y       z     vdW  Elec       q    Type
REMARK                         _______ _______ _______ _____ _____    ______ ____
ROOT
ATOM      1  O   UNL     1       9.534  -9.261  32.585  0.00  0.00    -0.267 OA
ATOM      2  O   UNL     1       9.240  -8.130  37.554  0.00  0.00    -0.270 OA
ATOM      3  N   UNL     1       8.808  -6.147  36.390  0.00  0.00    -0.297 N 
ATOM      4  N   UNL     1       8.874  -7.180  33.406  0.00  0.00    -0.311 N 
ATOM      5  C   UNL     1      10.486  -5.611  34.635  0.00  0.00    +0.027 C 
ATOM      6  C   UNL     1       8.133  -4.953  34.321  0.00  0.00    +0.054 C 
ATOM      7  C   UNL     1       9.578  -4.500  34.115  0.00  0.00    +0.018 C 
ATOM      8  C   UNL     1      10.219  -5.865  36.131  0.00  0.00    +0.113 C 
ATOM      9  C   UNL     1      10.260  -6.869  33.787  0.00  0.00    +0.130 C 
ATOM     10  C   UNL     1       7.867  -5.166  35.825  0.00  0.00    +0.117 C 
ATOM     11  C   UNL     1       7.853  -6.241  33.570  0.00  0.00    +0.027 A 
ATOM     12  C   UNL     1       6.620  -6.497  33.104  0.00  0.00    +0.022 A 
ATOM     13  C   UNL     1       8.653  -8.421  32.779  0.00  0.00    +0.259 A 
ATOM     14  C   UNL     1       8.456  -7.308  37.081  0.00  0.00    +0.247 C 
ATOM     15  C   UNL     1       7.250  -8.698  32.309  0.00  0.00    +0.047 A 
ATOM     16  C   UNL     1       6.317  -7.747  32.469  0.00  0.00    +0.015 A 
ENDROOT
BRANCH  15  18
ATOM     18  C   UNL     1       6.892  -9.990  31.700  0.00  0.00    -0.012 A 
ATOM     21  C   UNL     1       6.423 -11.034  32.500  0.00  0.00    +0.017 A 
ATOM     22  C   UNL     1       7.020 -10.171  30.325  0.00  0.00    +0.009 A 
ATOM     23  C   UNL     1       6.076 -12.272  31.934  0.00  0.00    -0.017 A 
ATOM     24  C   UNL     1       6.680 -11.394  29.746  0.00  0.00    +0.009 A 
ATOM     25  C   UNL     1       6.207 -12.454  30.537  0.00  0.00    -0.018 A 
ATOM     29  C   UNL     1       5.604 -13.332  32.724  0.00  0.00    +0.008 A 
ATOM     30  C   UNL     1       5.861 -13.692  29.971  0.00  0.00    +0.008 A 
ATOM     31  C   UNL     1       5.265 -14.555  32.145  0.00  0.00    +0.001 A 
ATOM     32  C   UNL     1       5.393 -14.735  30.771  0.00  0.00    +0.001 A 
ENDBRANCH  15  18
BRANCH  14  17
ATOM     17  C   UNL     1       7.029  -7.606  37.247  0.00  0.00    +0.037 A 
ATOM     19  C   UNL     1       6.341  -7.106  38.351  0.00  0.00    +0.013 A 
ATOM     20  C   UNL     1       6.369  -8.386  36.301  0.00  0.00    +0.013 A 
ATOM     26  C   UNL     1       4.984  -7.389  38.508  0.00  0.00    +0.001 A 
ATOM     27  C   UNL     1       5.013  -8.669  36.459  0.00  0.00    +0.001 A 
ATOM     28  C   UNL     1       4.320  -8.171  37.563  0.00  0.00    +0.000 A 
ENDBRANCH  14  17
TORSDOF 2
ENDMDL
MODEL 10
REMARK VINA RESULT:      -7.0     23.074     24.625
REMARK  Name = 7143702
REMARK  2 active torsions:
REMARK  status: ('A' for Active; 'I' for Inactive)
REMARK    1  A    between atoms: C_14  and  C_17
REMARK    2  A    between atoms: C_15  and  C_18
REMARK                            x       y       z     vdW  Elec       q    Type
REMARK                         _______ _______ _______ _____ _____    ______ ____
ROOT
ATOM      1  O   UNL     1       9.644 -10.692  31.807  0.00  0.00    -0.267 OA
ATOM      2  O   UNL     1       8.261 -10.116  36.687  0.00  0.00    -0.270 OA
ATOM      3  N   UNL     1       8.100  -8.005  35.693  0.00  0.00    -0.297 N 
ATOM      4  N   UNL     1       8.823  -8.699  32.698  0.00  0.00    -0.311 N 
ATOM      5  C   UNL     1      10.125  -7.321  34.422  0.00  0.00    +0.027 C 
ATOM      6  C   UNL     1       7.901  -6.569  33.677  0.00  0.00    +0.054 C 
ATOM      7  C   UNL     1       9.357  -6.136  33.847  0.00  0.00    +0.018 C 
ATOM      8  C   UNL     1       9.534  -7.733  35.784  0.00  0.00    +0.113 C 
ATOM      9  C   UNL     1      10.090  -8.470  33.406  0.00  0.00    +0.130 C 
ATOM     10  C   UNL     1       7.308  -6.942  35.052  0.00  0.00    +0.117 C 
ATOM     11  C   UNL     1       7.791  -7.757  32.740  0.00  0.00    +0.027 A 
ATOM     12  C   UNL     1       6.692  -7.927  31.989  0.00  0.00    +0.022 A 
ATOM     13  C   UNL     1       8.743  -9.856  31.899  0.00  0.00    +0.259 A 
ATOM     14  C   UNL     1       7.602  -9.226  36.152  0.00  0.00    +0.247 C 
ATOM     15  C   UNL     1       7.478 -10.041  31.104  0.00  0.00    +0.047 A 
ATOM     16  C   UNL     1       6.534  -9.090  31.163  0.00  0.00    +0.015 A 
ENDROOT
BRANCH  15  18
ATOM     18  C   UNL     1       7.262 -11.247  30.287  0.00  0.00    -0.012 A 
ATOM     21  C   UNL     1       6.169 -12.077  30.542  0.00  0.00    +0.017 A 
ATOM     22  C   UNL     1       8.147 -11.560  29.258  0.00  0.00    +0.009 A 
ATOM     23  C   UNL     1       5.948 -13.230  29.771  0.00  0.00    -0.017 A 
ATOM     24  C   UNL     1       7.943 -12.701  28.482  0.00  0.00    +0.009 A 
ATOM     25  C   UNL     1       6.848 -13.546  28.726  0.00  0.00    -0.018 A 
ATOM     29  C   UNL     1       4.854 -14.076  30.015  0.00  0.00    +0.008 A 
ATOM     30  C   UNL     1       6.627 -14.700  27.956  0.00  0.00    +0.008 A 
ATOM     31  C   UNL     1       4.650 -15.217  29.239  0.00  0.00    +0.001 A 
ATOM     32  C   UNL     1       5.535 -15.528  28.211  0.00  0.00    +0.001 A 
ENDBRANCH  15  18
BRANCH  14  17
ATOM     17  C   UNL     1       6.173  -9.502  35.965  0.00  0.00    +0.037 A 
ATOM     19  C   UNL     1       5.248  -9.016  36.886  0.00  0.00    +0.013 A 
ATOM     20  C   UNL     1       5.748 -10.248  34.869  0.00  0.00    +0.013 A 
ATOM     26  C   UNL     1       3.889  -9.278  36.709  0.00  0.00    +0.001 A 
ATOM     27  C   UNL     1       4.391 -10.511  34.692  0.00  0.00    +0.001 A 
ATOM     28  C   UNL     1       3.461 -10.026  35.612  0.00  0.00    +0.000 A 
ENDBRANCH  14  17
TORSDOF 2
ENDMDL
