MODEL 1
REMARK VINA RESULT:      -6.6      0.000      0.000
REMARK  Name = 40777920
REMARK  11 active torsions:
REMARK  status: ('A' for Active; 'I' for Inactive)
REMARK    1  A    between atoms: O_2  and  C_9
REMARK    2  A    between atoms: O_3  and  C_10
REMARK    3  A    between atoms: N_6  and  C_13
REMARK    4  A    between atoms: N_7  and  C_18
REMARK    5  A    between atoms: N_8  and  C_17
REMARK    6  A    between atoms: C_11  and  C_13
REMARK    7  A    between atoms: C_12  and  C_14
REMARK    8  A    between atoms: C_14  and  C_15
REMARK    9  A    between atoms: C_17  and  C_19
REMARK   10  A    between atoms: C_17  and  C_20
REMARK   11  A    between atoms: C_18  and  C_21
REMARK                            x       y       z     vdW  Elec       q    Type
REMARK                         _______ _______ _______ _____ _____    ______ ____
ROOT
ATOM      1  O   UNL     1      12.749   9.251  21.211  0.00  0.00    -0.366 OA
ATOM      9  C   UNL     1      10.776   8.095  20.556  0.00  0.00    +0.176 C 
ATOM     10  C   UNL     1      11.914   7.105  20.706  0.00  0.00    +0.175 C 
ATOM     11  C   UNL     1      11.308   9.306  21.315  0.00  0.00    +0.167 C 
ATOM     12  C   UNL     1      13.126   8.013  20.582  0.00  0.00    +0.158 C 
ENDROOT
BRANCH   9   2
ATOM      2  O   UNL     1      10.618   8.464  19.187  0.00  0.00    -0.387 OA
ATOM     23  H   UNL     1      10.007   9.220  19.159  0.00  0.00    +0.210 HD
ENDBRANCH   9   2
BRANCH  10   3
ATOM      3  O   UNL     1      11.907   6.094  19.721  0.00  0.00    -0.387 OA
ATOM     24  H   UNL     1      11.703   5.254  20.167  0.00  0.00    +0.210 HD
ENDBRANCH  10   3
BRANCH  11  13
ATOM     13  C   UNL     1      10.947   9.289  22.793  0.00  0.00    +0.140 C 
BRANCH  13   6
ATOM      5  O   UNL     1      12.170  11.720  23.752  0.00  0.00    -0.253 OA
ATOM      6  N   UNL     1      10.279  10.497  23.178  0.00  0.00    -0.297 N 
ATOM      8  N   UNL     1      10.059  12.666  23.939  0.00  0.00    -0.297 N 
ATOM     16  C   UNL     1      10.947  11.638  23.635  0.00  0.00    +0.300 C 
ATOM     25  H   UNL     1       9.267  10.530  23.106  0.00  0.00    +0.150 HD
ATOM     27  H   UNL     1       9.073  12.528  23.736  0.00  0.00    +0.150 HD
BRANCH   8  17
ATOM     17  C   UNL     1      10.490  13.954  24.431  0.00  0.00    +0.068 C 
ATOM     19  C   UNL     1      10.529  13.954  25.953  0.00  0.00    +0.027 C 
ATOM     20  C   UNL     1       9.585  15.060  23.902  0.00  0.00    +0.027 C 
ENDBRANCH   8  17
ENDBRANCH  13   6
ENDBRANCH  11  13
BRANCH  12  14
ATOM     14  C   UNL     1      14.367   7.455  21.254  0.00  0.00    +0.130 C 
BRANCH  14  15
ATOM      4  O   UNL     1      16.135   8.543  20.008  0.00  0.00    -0.276 OA
ATOM      7  N   UNL     1      15.990   6.226  19.974  0.00  0.00    -0.304 N 
ATOM     15  C   UNL     1      15.586   7.500  20.352  0.00  0.00    +0.216 C 
ATOM     26  H   UNL     1      15.482   5.419  20.324  0.00  0.00    +0.150 HD
BRANCH   7  18
ATOM     18  C   UNL     1      17.120   5.998  19.120  0.00  0.00    +0.193 C 
BRANCH  18  21
ATOM     21  C   UNL     1      18.365   5.972  19.889  0.00  0.00    -0.087 C 
ATOM     22  C   UNL     1      19.385   5.947  20.521  0.00  0.00    +0.005 C 
ENDBRANCH  18  21
ENDBRANCH   7  18
ENDBRANCH  14  15
ENDBRANCH  12  14
TORSDOF 9
ENDMDL
MODEL 2
REMARK VINA RESULT:      -6.6      1.489      1.858
REMARK  Name = 40777920
REMARK  11 active torsions:
REMARK  status: ('A' for Active; 'I' for Inactive)
REMARK    1  A    between atoms: O_2  and  C_9
REMARK    2  A    between atoms: O_3  and  C_10
REMARK    3  A    between atoms: N_6  and  C_13
REMARK    4  A    between atoms: N_7  and  C_18
REMARK    5  A    between atoms: N_8  and  C_17
REMARK    6  A    between atoms: C_11  and  C_13
REMARK    7  A    between atoms: C_12  and  C_14
REMARK    8  A    between atoms: C_14  and  C_15
REMARK    9  A    between atoms: C_17  and  C_19
REMARK   10  A    between atoms: C_17  and  C_20
REMARK   11  A    between atoms: C_18  and  C_21
REMARK                            x       y       z     vdW  Elec       q    Type
REMARK                         _______ _______ _______ _____ _____    ______ ____
ROOT
ATOM      1  O   UNL     1      11.348   8.610  20.189  0.00  0.00    -0.366 OA
ATOM      9  C   UNL     1      10.775   7.620  22.276  0.00  0.00    +0.176 C 
ATOM     10  C   UNL     1      11.823   6.771  21.586  0.00  0.00    +0.175 C 
ATOM     11  C   UNL     1      10.890   8.940  21.521  0.00  0.00    +0.167 C 
ATOM     12  C   UNL     1      11.667   7.208  20.139  0.00  0.00    +0.158 C 
ENDROOT
BRANCH   9   2
ATOM      2  O   UNL     1       9.473   7.087  22.039  0.00  0.00    -0.387 OA
ATOM     23  H   UNL     1       8.879   7.838  21.869  0.00  0.00    +0.210 HD
ENDBRANCH   9   2
BRANCH  10   3
ATOM      3  O   UNL     1      11.613   5.384  21.746  0.00  0.00    -0.387 OA
ATOM     24  H   UNL     1      11.517   5.000  20.857  0.00  0.00    +0.210 HD
ENDBRANCH  10   3
BRANCH  11  13
ATOM     13  C   UNL     1      11.903   9.893  22.138  0.00  0.00    +0.140 C 
BRANCH  13   6
ATOM      5  O   UNL     1      10.505  11.370  24.184  0.00  0.00    -0.253 OA
ATOM      6  N   UNL     1      11.450  11.250  22.065  0.00  0.00    -0.297 N 
ATOM      8  N   UNL     1      10.452  13.210  22.770  0.00  0.00    -0.297 N 
ATOM     16  C   UNL     1      10.776  11.898  23.106  0.00  0.00    +0.300 C 
ATOM     25  H   UNL     1      11.638  11.774  21.215  0.00  0.00    +0.150 HD
ATOM     27  H   UNL     1      10.787  13.578  21.885  0.00  0.00    +0.150 HD
BRANCH   8  17
ATOM     17  C   UNL     1       9.753  14.098  23.669  0.00  0.00    +0.068 C 
ATOM     19  C   UNL     1       8.706  14.903  22.911  0.00  0.00    +0.027 C 
ATOM     20  C   UNL     1      10.736  15.012  24.391  0.00  0.00    +0.027 C 
ENDBRANCH   8  17
ENDBRANCH  13   6
ENDBRANCH  11  13
BRANCH  12  14
ATOM     14  C   UNL     1      12.919   6.997  19.307  0.00  0.00    +0.130 C 
BRANCH  14  15
ATOM      4  O   UNL     1      14.564   8.594  20.086  0.00  0.00    -0.276 OA
ATOM      7  N   UNL     1      14.826   6.350  20.620  0.00  0.00    -0.304 N 
ATOM     15  C   UNL     1      14.179   7.429  20.034  0.00  0.00    +0.216 C 
ATOM     26  H   UNL     1      14.422   5.422  20.538  0.00  0.00    +0.150 HD
BRANCH   7  18
ATOM     18  C   UNL     1      16.043   6.494  21.366  0.00  0.00    +0.193 C 
BRANCH  18  21
ATOM     21  C   UNL     1      17.213   6.310  20.506  0.00  0.00    -0.087 C 
ATOM     22  C   UNL     1      18.171   6.155  19.800  0.00  0.00    +0.005 C 
ENDBRANCH  18  21
ENDBRANCH   7  18
ENDBRANCH  14  15
ENDBRANCH  12  14
TORSDOF 9
ENDMDL
MODEL 3
REMARK VINA RESULT:      -6.4      2.795      3.508
REMARK  Name = 40777920
REMARK  11 active torsions:
REMARK  status: ('A' for Active; 'I' for Inactive)
REMARK    1  A    between atoms: O_2  and  C_9
REMARK    2  A    between atoms: O_3  and  C_10
REMARK    3  A    between atoms: N_6  and  C_13
REMARK    4  A    between atoms: N_7  and  C_18
REMARK    5  A    between atoms: N_8  and  C_17
REMARK    6  A    between atoms: C_11  and  C_13
REMARK    7  A    between atoms: C_12  and  C_14
REMARK    8  A    between atoms: C_14  and  C_15
REMARK    9  A    between atoms: C_17  and  C_19
REMARK   10  A    between atoms: C_17  and  C_20
REMARK   11  A    between atoms: C_18  and  C_21
REMARK                            x       y       z     vdW  Elec       q    Type
REMARK                         _______ _______ _______ _____ _____    ______ ____
ROOT
ATOM      1  O   UNL     1      11.280   8.919  20.376  0.00  0.00    -0.366 OA
ATOM      9  C   UNL     1      10.715   7.677  22.325  0.00  0.00    +0.176 C 
ATOM     10  C   UNL     1      11.897   7.025  21.637  0.00  0.00    +0.175 C 
ATOM     11  C   UNL     1      10.710   9.067  21.697  0.00  0.00    +0.167 C 
ATOM     12  C   UNL     1      11.770   7.575  20.226  0.00  0.00    +0.158 C 
ENDROOT
BRANCH   9   2
ATOM      2  O   UNL     1       9.503   7.021  21.956  0.00  0.00    -0.387 OA
ATOM     23  H   UNL     1       9.736   6.121  21.671  0.00  0.00    +0.210 HD
ENDBRANCH   9   2
BRANCH  10   3
ATOM      3  O   UNL     1      11.849   5.615  21.662  0.00  0.00    -0.387 OA
ATOM     24  H   UNL     1      12.754   5.295  21.818  0.00  0.00    +0.210 HD
ENDBRANCH  10   3
BRANCH  11  13
ATOM     13  C   UNL     1      11.563  10.069  22.462  0.00  0.00    +0.140 C 
BRANCH  13   6
ATOM      5  O   UNL     1      10.502  11.796  24.515  0.00  0.00    -0.253 OA
ATOM      6  N   UNL     1      11.068  11.404  22.296  0.00  0.00    -0.297 N 
ATOM      8  N   UNL     1      10.156  13.435  22.909  0.00  0.00    -0.297 N 
ATOM     16  C   UNL     1      10.569  12.179  23.347  0.00  0.00    +0.300 C 
ATOM     25  H   UNL     1      11.092  11.813  21.367  0.00  0.00    +0.150 HD
ATOM     27  H   UNL     1      10.322  13.686  21.939  0.00  0.00    +0.150 HD
BRANCH   8  17
ATOM     17  C   UNL     1       9.600  14.430  23.796  0.00  0.00    +0.068 C 
ATOM     19  C   UNL     1       8.603  15.307  23.049  0.00  0.00    +0.027 C 
ATOM     20  C   UNL     1      10.709  15.267  24.424  0.00  0.00    +0.027 C 
ENDBRANCH   8  17
ENDBRANCH  13   6
ENDBRANCH  11  13
BRANCH  12  14
ATOM     14  C   UNL     1      13.084   7.590  19.466  0.00  0.00    +0.130 C 
BRANCH  14  15
ATOM      4  O   UNL     1      11.876   7.357  17.381  0.00  0.00    -0.276 OA
ATOM      7  N   UNL     1      13.983   8.330  17.362  0.00  0.00    -0.304 N 
ATOM     15  C   UNL     1      12.887   7.732  17.968  0.00  0.00    +0.216 C 
ATOM     26  H   UNL     1      14.770   8.624  17.934  0.00  0.00    +0.150 HD
BRANCH   7  18
ATOM     18  C   UNL     1      14.045   8.576  15.950  0.00  0.00    +0.193 C 
BRANCH  18  21
ATOM     21  C   UNL     1      14.061  10.012  15.666  0.00  0.00    -0.087 C 
ATOM     22  C   UNL     1      14.077  11.188  15.429  0.00  0.00    +0.005 C 
ENDBRANCH  18  21
ENDBRANCH   7  18
ENDBRANCH  14  15
ENDBRANCH  12  14
TORSDOF 9
ENDMDL
MODEL 4
REMARK VINA RESULT:      -6.3      2.711      3.816
REMARK  Name = 40777920
REMARK  11 active torsions:
REMARK  status: ('A' for Active; 'I' for Inactive)
REMARK    1  A    between atoms: O_2  and  C_9
REMARK    2  A    between atoms: O_3  and  C_10
REMARK    3  A    between atoms: N_6  and  C_13
REMARK    4  A    between atoms: N_7  and  C_18
REMARK    5  A    between atoms: N_8  and  C_17
REMARK    6  A    between atoms: C_11  and  C_13
REMARK    7  A    between atoms: C_12  and  C_14
REMARK    8  A    between atoms: C_14  and  C_15
REMARK    9  A    between atoms: C_17  and  C_19
REMARK   10  A    between atoms: C_17  and  C_20
REMARK   11  A    between atoms: C_18  and  C_21
REMARK                            x       y       z     vdW  Elec       q    Type
REMARK                         _______ _______ _______ _____ _____    ______ ____
ROOT
ATOM      1  O   UNL     1      11.383   8.626  20.510  0.00  0.00    -0.366 OA
ATOM      9  C   UNL     1      11.677   6.570  21.670  0.00  0.00    +0.176 C 
ATOM     10  C   UNL     1      13.031   7.131  21.288  0.00  0.00    +0.175 C 
ATOM     11  C   UNL     1      10.775   7.791  21.521  0.00  0.00    +0.167 C 
ATOM     12  C   UNL     1      12.663   8.073  20.155  0.00  0.00    +0.158 C 
ENDROOT
BRANCH   9   2
ATOM      2  O   UNL     1      11.259   5.593  20.718  0.00  0.00    -0.387 OA
ATOM     23  H   UNL     1      11.343   4.721  21.140  0.00  0.00    +0.210 HD
ENDBRANCH   9   2
BRANCH  10   3
ATOM      3  O   UNL     1      13.950   6.142  20.876  0.00  0.00    -0.387 OA
ATOM     24  H   UNL     1      14.758   6.598  20.585  0.00  0.00    +0.210 HD
ENDBRANCH  10   3
BRANCH  11  13
ATOM     13  C   UNL     1      10.668   8.611  22.799  0.00  0.00    +0.140 C 
BRANCH  13   6
ATOM      5  O   UNL     1      11.096  10.813  24.614  0.00  0.00    -0.253 OA
ATOM      6  N   UNL     1      10.531  10.008  22.509  0.00  0.00    -0.297 N 
ATOM      8  N   UNL     1      10.553  12.283  22.901  0.00  0.00    -0.297 N 
ATOM     16  C   UNL     1      10.758  11.019  23.448  0.00  0.00    +0.300 C 
ATOM     25  H   UNL     1      10.264  10.278  21.567  0.00  0.00    +0.150 HD
ATOM     27  H   UNL     1      10.350  12.353  21.909  0.00  0.00    +0.150 HD
BRANCH   8  17
ATOM     17  C   UNL     1      10.721  13.501  23.660  0.00  0.00    +0.068 C 
ATOM     19  C   UNL     1       9.556  14.447  23.408  0.00  0.00    +0.027 C 
ATOM     20  C   UNL     1      12.052  14.162  23.323  0.00  0.00    +0.027 C 
ENDBRANCH   8  17
ENDBRANCH  13   6
ENDBRANCH  11  13
BRANCH  12  14
ATOM     14  C   UNL     1      13.666   9.195  19.953  0.00  0.00    +0.130 C 
BRANCH  14  15
ATOM      4  O   UNL     1      13.280  11.136  18.559  0.00  0.00    -0.276 OA
ATOM      7  N   UNL     1      13.515   9.056  17.558  0.00  0.00    -0.304 N 
ATOM     15  C   UNL     1      13.465   9.925  18.639  0.00  0.00    +0.216 C 
ATOM     26  H   UNL     1      13.691   8.068  17.720  0.00  0.00    +0.150 HD
BRANCH   7  18
ATOM     18  C   UNL     1      13.353   9.500  16.203  0.00  0.00    +0.193 C 
BRANCH  18  21
ATOM     21  C   UNL     1      11.961   9.372  15.770  0.00  0.00    -0.087 C 
ATOM     22  C   UNL     1      10.819   9.264  15.416  0.00  0.00    +0.005 C 
ENDBRANCH  18  21
ENDBRANCH   7  18
ENDBRANCH  14  15
ENDBRANCH  12  14
TORSDOF 9
ENDMDL
MODEL 5
REMARK VINA RESULT:      -6.0      2.783      6.110
REMARK  Name = 40777920
REMARK  11 active torsions:
REMARK  status: ('A' for Active; 'I' for Inactive)
REMARK    1  A    between atoms: O_2  and  C_9
REMARK    2  A    between atoms: O_3  and  C_10
REMARK    3  A    between atoms: N_6  and  C_13
REMARK    4  A    between atoms: N_7  and  C_18
REMARK    5  A    between atoms: N_8  and  C_17
REMARK    6  A    between atoms: C_11  and  C_13
REMARK    7  A    between atoms: C_12  and  C_14
REMARK    8  A    between atoms: C_14  and  C_15
REMARK    9  A    between atoms: C_17  and  C_19
REMARK   10  A    between atoms: C_17  and  C_20
REMARK   11  A    between atoms: C_18  and  C_21
REMARK                            x       y       z     vdW  Elec       q    Type
REMARK                         _______ _______ _______ _____ _____    ______ ____
ROOT
ATOM      1  O   UNL     1      12.817   9.687  20.767  0.00  0.00    -0.366 OA
ATOM      9  C   UNL     1      11.717  10.654  22.642  0.00  0.00    +0.176 C 
ATOM     10  C   UNL     1      11.133   9.284  22.367  0.00  0.00    +0.175 C 
ATOM     11  C   UNL     1      13.030  10.600  21.868  0.00  0.00    +0.167 C 
ATOM     12  C   UNL     1      11.526   9.070  20.915  0.00  0.00    +0.158 C 
ENDROOT
BRANCH   9   2
ATOM      2  O   UNL     1      10.900  11.667  22.056  0.00  0.00    -0.387 OA
ATOM     23  H   UNL     1      10.035  11.267  21.864  0.00  0.00    +0.210 HD
ENDBRANCH   9   2
BRANCH  10   3
ATOM      3  O   UNL     1       9.734   9.226  22.551  0.00  0.00    -0.387 OA
ATOM     24  H   UNL     1       9.542   8.427  23.071  0.00  0.00    +0.210 HD
ENDBRANCH  10   3
BRANCH  11  13
ATOM     13  C   UNL     1      14.188  10.065  22.698  0.00  0.00    +0.140 C 
BRANCH  13   6
ATOM      5  O   UNL     1      16.823   9.755  21.562  0.00  0.00    -0.253 OA
ATOM      6  N   UNL     1      14.742   8.880  22.113  0.00  0.00    -0.297 N 
ATOM      8  N   UNL     1      16.316   7.543  21.079  0.00  0.00    -0.297 N 
ATOM     16  C   UNL     1      16.034   8.811  21.582  0.00  0.00    +0.300 C 
ATOM     25  H   UNL     1      14.168   8.042  22.092  0.00  0.00    +0.150 HD
ATOM     27  H   UNL     1      15.627   6.808  21.211  0.00  0.00    +0.150 HD
BRANCH   8  17
ATOM     17  C   UNL     1      17.583   7.204  20.475  0.00  0.00    +0.068 C 
ATOM     19  C   UNL     1      17.388   6.157  19.387  0.00  0.00    +0.027 C 
ATOM     20  C   UNL     1      18.569   6.723  21.533  0.00  0.00    +0.027 C 
ENDBRANCH   8  17
ENDBRANCH  13   6
ENDBRANCH  11  13
BRANCH  12  14
ATOM     14  C   UNL     1      11.610   7.606  20.523  0.00  0.00    +0.130 C 
BRANCH  14  15
ATOM      4  O   UNL     1      13.770   6.647  19.999  0.00  0.00    -0.276 OA
ATOM      7  N   UNL     1      12.658   7.879  18.376  0.00  0.00    -0.304 N 
ATOM     15  C   UNL     1      12.803   7.310  19.634  0.00  0.00    +0.216 C 
ATOM     26  H   UNL     1      11.811   8.398  18.159  0.00  0.00    +0.150 HD
BRANCH   7  18
ATOM     18  C   UNL     1      13.651   7.745  17.350  0.00  0.00    +0.193 C 
BRANCH  18  21
ATOM     21  C   UNL     1      14.074   9.054  16.851  0.00  0.00    -0.087 C 
ATOM     22  C   UNL     1      14.423  10.126  16.441  0.00  0.00    +0.005 C 
ENDBRANCH  18  21
ENDBRANCH   7  18
ENDBRANCH  14  15
ENDBRANCH  12  14
TORSDOF 9
ENDMDL
MODEL 6
REMARK VINA RESULT:      -6.0      3.140      5.210
REMARK  Name = 40777920
REMARK  11 active torsions:
REMARK  status: ('A' for Active; 'I' for Inactive)
REMARK    1  A    between atoms: O_2  and  C_9
REMARK    2  A    between atoms: O_3  and  C_10
REMARK    3  A    between atoms: N_6  and  C_13
REMARK    4  A    between atoms: N_7  and  C_18
REMARK    5  A    between atoms: N_8  and  C_17
REMARK    6  A    between atoms: C_11  and  C_13
REMARK    7  A    between atoms: C_12  and  C_14
REMARK    8  A    between atoms: C_14  and  C_15
REMARK    9  A    between atoms: C_17  and  C_19
REMARK   10  A    between atoms: C_17  and  C_20
REMARK   11  A    between atoms: C_18  and  C_21
REMARK                            x       y       z     vdW  Elec       q    Type
REMARK                         _______ _______ _______ _____ _____    ______ ____
ROOT
ATOM      1  O   UNL     1      11.430   8.656  20.280  0.00  0.00    -0.366 OA
ATOM      9  C   UNL     1      10.818   7.611  22.328  0.00  0.00    +0.176 C 
ATOM     10  C   UNL     1      11.829   6.746  21.602  0.00  0.00    +0.175 C 
ATOM     11  C   UNL     1      10.988   8.954  21.624  0.00  0.00    +0.167 C 
ATOM     12  C   UNL     1      11.689   7.245  20.174  0.00  0.00    +0.158 C 
ENDROOT
BRANCH   9   2
ATOM      2  O   UNL     1       9.494   7.144  22.075  0.00  0.00    -0.387 OA
ATOM     23  H   UNL     1       8.887   7.699  22.593  0.00  0.00    +0.210 HD
ENDBRANCH   9   2
BRANCH  10   3
ATOM      3  O   UNL     1      11.559   5.364  21.709  0.00  0.00    -0.387 OA
ATOM     24  H   UNL     1      11.563   5.139  22.655  0.00  0.00    +0.210 HD
ENDBRANCH  10   3
BRANCH  11  13
ATOM     13  C   UNL     1      12.043   9.837  22.275  0.00  0.00    +0.140 C 
BRANCH  13   6
ATOM      5  O   UNL     1      14.677   8.673  22.450  0.00  0.00    -0.253 OA
ATOM      6  N   UNL     1      13.147  10.065  21.391  0.00  0.00    -0.297 N 
ATOM      8  N   UNL     1      15.286   9.854  20.548  0.00  0.00    -0.297 N 
ATOM     16  C   UNL     1      14.398   9.459  21.545  0.00  0.00    +0.300 C 
ATOM     25  H   UNL     1      13.010  10.692  20.604  0.00  0.00    +0.150 HD
ATOM     27  H   UNL     1      14.940  10.447  19.800  0.00  0.00    +0.150 HD
BRANCH   8  17
ATOM     17  C   UNL     1      16.646   9.374  20.475  0.00  0.00    +0.068 C 
ATOM     19  C   UNL     1      16.666   7.855  20.361  0.00  0.00    +0.027 C 
ATOM     20  C   UNL     1      17.446   9.847  21.683  0.00  0.00    +0.027 C 
ENDBRANCH   8  17
ENDBRANCH  13   6
ENDBRANCH  11  13
BRANCH  12  14
ATOM     14  C   UNL     1      12.930   7.013  19.331  0.00  0.00    +0.130 C 
BRANCH  14  15
ATOM      4  O   UNL     1      11.828   7.343  17.201  0.00  0.00    -0.276 OA
ATOM      7  N   UNL     1      13.880   8.360  17.580  0.00  0.00    -0.304 N 
ATOM     15  C   UNL     1      12.791   7.571  17.927  0.00  0.00    +0.216 C 
ATOM     26  H   UNL     1      14.624   8.506  18.256  0.00  0.00    +0.150 HD
BRANCH   7  18
ATOM     18  C   UNL     1      13.989   9.004  16.303  0.00  0.00    +0.193 C 
BRANCH  18  21
ATOM     21  C   UNL     1      14.611  10.322  16.429  0.00  0.00    -0.087 C 
ATOM     22  C   UNL     1      15.118  11.405  16.534  0.00  0.00    +0.005 C 
ENDBRANCH  18  21
ENDBRANCH   7  18
ENDBRANCH  14  15
ENDBRANCH  12  14
TORSDOF 9
ENDMDL
MODEL 7
REMARK VINA RESULT:      -6.0      3.443      7.614
REMARK  Name = 40777920
REMARK  11 active torsions:
REMARK  status: ('A' for Active; 'I' for Inactive)
REMARK    1  A    between atoms: O_2  and  C_9
REMARK    2  A    between atoms: O_3  and  C_10
REMARK    3  A    between atoms: N_6  and  C_13
REMARK    4  A    between atoms: N_7  and  C_18
REMARK    5  A    between atoms: N_8  and  C_17
REMARK    6  A    between atoms: C_11  and  C_13
REMARK    7  A    between atoms: C_12  and  C_14
REMARK    8  A    between atoms: C_14  and  C_15
REMARK    9  A    between atoms: C_17  and  C_19
REMARK   10  A    between atoms: C_17  and  C_20
REMARK   11  A    between atoms: C_18  and  C_21
REMARK                            x       y       z     vdW  Elec       q    Type
REMARK                         _______ _______ _______ _____ _____    ______ ____
ROOT
ATOM      1  O   UNL     1      13.234   8.574  20.228  0.00  0.00    -0.366 OA
ATOM      9  C   UNL     1      11.859   6.633  20.194  0.00  0.00    +0.176 C 
ATOM     10  C   UNL     1      11.033   7.829  20.623  0.00  0.00    +0.175 C 
ATOM     11  C   UNL     1      13.077   7.299  19.563  0.00  0.00    +0.167 C 
ATOM     12  C   UNL     1      12.110   8.789  21.099  0.00  0.00    +0.158 C 
ENDROOT
BRANCH   9   2
ATOM      2  O   UNL     1      12.298   5.900  21.337  0.00  0.00    -0.387 OA
ATOM     23  H   UNL     1      13.104   5.419  21.081  0.00  0.00    +0.210 HD
ENDBRANCH   9   2
BRANCH  10   3
ATOM      3  O   UNL     1      10.103   7.529  21.642  0.00  0.00    -0.387 OA
ATOM     24  H   UNL     1       9.941   8.349  22.139  0.00  0.00    +0.210 HD
ENDBRANCH  10   3
BRANCH  11  13
ATOM     13  C   UNL     1      12.904   7.569  18.075  0.00  0.00    +0.140 C 
BRANCH  13   6
ATOM      5  O   UNL     1      13.599   8.391  15.398  0.00  0.00    -0.253 OA
ATOM      6  N   UNL     1      13.561   8.782  17.688  0.00  0.00    -0.297 N 
ATOM      8  N   UNL     1      14.500  10.344  16.270  0.00  0.00    -0.297 N 
ATOM     16  C   UNL     1      13.863   9.108  16.363  0.00  0.00    +0.300 C 
ATOM     25  H   UNL     1      13.811   9.446  18.416  0.00  0.00    +0.150 HD
ATOM     27  H   UNL     1      14.607  10.896  17.115  0.00  0.00    +0.150 HD
BRANCH   8  17
ATOM     17  C   UNL     1      14.920  10.916  15.012  0.00  0.00    +0.068 C 
ATOM     19  C   UNL     1      16.236  11.663  15.183  0.00  0.00    +0.027 C 
ATOM     20  C   UNL     1      13.837  11.828  14.450  0.00  0.00    +0.027 C 
ENDBRANCH   8  17
ENDBRANCH  13   6
ENDBRANCH  11  13
BRANCH  12  14
ATOM     14  C   UNL     1      11.687  10.246  21.039  0.00  0.00    +0.130 C 
BRANCH  14  15
ATOM      4  O   UNL     1      13.012  11.400  22.704  0.00  0.00    -0.276 OA
ATOM      7  N   UNL     1      10.745  11.085  23.086  0.00  0.00    -0.304 N 
ATOM     15  C   UNL     1      11.917  10.972  22.351  0.00  0.00    +0.216 C 
ATOM     26  H   UNL     1       9.880  10.714  22.703  0.00  0.00    +0.150 HD
BRANCH   7  18
ATOM     18  C   UNL     1      10.696  11.731  24.366  0.00  0.00    +0.193 C 
BRANCH  18  21
ATOM     21  C   UNL     1      10.335  13.142  24.230  0.00  0.00    -0.087 C 
ATOM     22  C   UNL     1      10.041  14.301  24.123  0.00  0.00    +0.005 C 
ENDBRANCH  18  21
ENDBRANCH   7  18
ENDBRANCH  14  15
ENDBRANCH  12  14
TORSDOF 9
ENDMDL
MODEL 8
REMARK VINA RESULT:      -5.9      4.631      6.320
REMARK  Name = 40777920
REMARK  11 active torsions:
REMARK  status: ('A' for Active; 'I' for Inactive)
REMARK    1  A    between atoms: O_2  and  C_9
REMARK    2  A    between atoms: O_3  and  C_10
REMARK    3  A    between atoms: N_6  and  C_13
REMARK    4  A    between atoms: N_7  and  C_18
REMARK    5  A    between atoms: N_8  and  C_17
REMARK    6  A    between atoms: C_11  and  C_13
REMARK    7  A    between atoms: C_12  and  C_14
REMARK    8  A    between atoms: C_14  and  C_15
REMARK    9  A    between atoms: C_17  and  C_19
REMARK   10  A    between atoms: C_17  and  C_20
REMARK   11  A    between atoms: C_18  and  C_21
REMARK                            x       y       z     vdW  Elec       q    Type
REMARK                         _______ _______ _______ _____ _____    ______ ____
ROOT
ATOM      1  O   UNL     1      13.642   7.250  18.259  0.00  0.00    -0.366 OA
ATOM      9  C   UNL     1      11.856   8.630  17.506  0.00  0.00    +0.176 C 
ATOM     10  C   UNL     1      11.774   8.476  19.011  0.00  0.00    +0.175 C 
ATOM     11  C   UNL     1      13.289   8.192  17.221  0.00  0.00    +0.167 C 
ATOM     12  C   UNL     1      12.584   7.210  19.234  0.00  0.00    +0.158 C 
ENDROOT
BRANCH   9   2
ATOM      2  O   UNL     1      10.976   7.706  16.866  0.00  0.00    -0.387 OA
ATOM     23  H   UNL     1      10.314   7.432  17.523  0.00  0.00    +0.210 HD
ENDBRANCH   9   2
BRANCH  10   3
ATOM      3  O   UNL     1      10.451   8.348  19.488  0.00  0.00    -0.387 OA
ATOM     24  H   UNL     1       9.969   7.781  18.862  0.00  0.00    +0.210 HD
ENDBRANCH  10   3
BRANCH  11  13
ATOM     13  C   UNL     1      14.284   9.342  17.278  0.00  0.00    +0.140 C 
BRANCH  13   6
ATOM      5  O   UNL     1      14.871  10.167  14.576  0.00  0.00    -0.253 OA
ATOM      6  N   UNL     1      13.779  10.499  16.600  0.00  0.00    -0.297 N 
ATOM      8  N   UNL     1      13.483  12.004  14.873  0.00  0.00    -0.297 N 
ATOM     16  C   UNL     1      14.113  10.831  15.283  0.00  0.00    +0.300 C 
ATOM     25  H   UNL     1      13.136  11.106  17.100  0.00  0.00    +0.150 HD
ATOM     27  H   UNL     1      12.816  12.439  15.503  0.00  0.00    +0.150 HD
BRANCH   8  17
ATOM     17  C   UNL     1      13.658  12.567  13.555  0.00  0.00    +0.068 C 
ATOM     19  C   UNL     1      14.763  13.615  13.569  0.00  0.00    +0.027 C 
ATOM     20  C   UNL     1      12.347  13.153  13.045  0.00  0.00    +0.027 C 
ENDBRANCH   8  17
ENDBRANCH  13   6
ENDBRANCH  11  13
BRANCH  12  14
ATOM     14  C   UNL     1      13.176   7.111  20.628  0.00  0.00    +0.130 C 
BRANCH  14  15
ATOM      4  O   UNL     1      14.496   9.066  21.171  0.00  0.00    -0.276 OA
ATOM      7  N   UNL     1      15.568   7.158  20.399  0.00  0.00    -0.304 N 
ATOM     15  C   UNL     1      14.460   7.905  20.772  0.00  0.00    +0.216 C 
ATOM     26  H   UNL     1      15.442   6.196  20.097  0.00  0.00    +0.150 HD
BRANCH   7  18
ATOM     18  C   UNL     1      16.903   7.682  20.444  0.00  0.00    +0.193 C 
BRANCH  18  21
ATOM     21  C   UNL     1      17.893   6.624  20.242  0.00  0.00    -0.087 C 
ATOM     22  C   UNL     1      18.707   5.758  20.076  0.00  0.00    +0.005 C 
ENDBRANCH  18  21
ENDBRANCH   7  18
ENDBRANCH  14  15
ENDBRANCH  12  14
TORSDOF 9
ENDMDL
MODEL 9
REMARK VINA RESULT:      -5.9     15.868     17.694
REMARK  Name = 40777920
REMARK  11 active torsions:
REMARK  status: ('A' for Active; 'I' for Inactive)
REMARK    1  A    between atoms: O_2  and  C_9
REMARK    2  A    between atoms: O_3  and  C_10
REMARK    3  A    between atoms: N_6  and  C_13
REMARK    4  A    between atoms: N_7  and  C_18
REMARK    5  A    between atoms: N_8  and  C_17
REMARK    6  A    between atoms: C_11  and  C_13
REMARK    7  A    between atoms: C_12  and  C_14
REMARK    8  A    between atoms: C_14  and  C_15
REMARK    9  A    between atoms: C_17  and  C_19
REMARK   10  A    between atoms: C_17  and  C_20
REMARK   11  A    between atoms: C_18  and  C_21
REMARK                            x       y       z     vdW  Elec       q    Type
REMARK                         _______ _______ _______ _____ _____    ______ ____
ROOT
ATOM      1  O   UNL     1       9.484   5.814   5.951  0.00  0.00    -0.366 OA
ATOM      9  C   UNL     1      10.717   6.249   7.938  0.00  0.00    +0.176 C 
ATOM     10  C   UNL     1      11.580   6.560   6.732  0.00  0.00    +0.175 C 
ATOM     11  C   UNL     1       9.319   6.219   7.329  0.00  0.00    +0.167 C 
ATOM     12  C   UNL     1      10.889   5.752   5.647  0.00  0.00    +0.158 C 
ENDROOT
BRANCH   9   2
ATOM      2  O   UNL     1      11.011   4.944   8.434  0.00  0.00    -0.387 OA
ATOM     23  H   UNL     1      11.717   5.037   9.097  0.00  0.00    +0.210 HD
ENDBRANCH   9   2
BRANCH  10   3
ATOM      3  O   UNL     1      12.929   6.179   6.897  0.00  0.00    -0.387 OA
ATOM     24  H   UNL     1      13.294   6.010   6.012  0.00  0.00    +0.210 HD
ENDBRANCH  10   3
BRANCH  11  13
ATOM     13  C   UNL     1       8.638   7.580   7.335  0.00  0.00    +0.140 C 
BRANCH  13   6
ATOM      5  O   UNL     1       8.553   9.969   5.718  0.00  0.00    -0.253 OA
ATOM      6  N   UNL     1       7.878   7.785   6.138  0.00  0.00    -0.297 N 
ATOM      8  N   UNL     1       7.063   8.906   4.290  0.00  0.00    -0.297 N 
ATOM     16  C   UNL     1       7.891   8.978   5.408  0.00  0.00    +0.300 C 
ATOM     25  H   UNL     1       7.306   7.018   5.796  0.00  0.00    +0.150 HD
ATOM     27  H   UNL     1       6.617   8.019   4.077  0.00  0.00    +0.150 HD
BRANCH   8  17
ATOM     17  C   UNL     1       6.897  10.004   3.367  0.00  0.00    +0.068 C 
ATOM     19  C   UNL     1       5.518  10.629   3.530  0.00  0.00    +0.027 C 
ATOM     20  C   UNL     1       7.125   9.538   1.934  0.00  0.00    +0.027 C 
ENDBRANCH   8  17
ENDBRANCH  13   6
ENDBRANCH  11  13
BRANCH  12  14
ATOM     14  C   UNL     1      11.134   6.289   4.248  0.00  0.00    +0.130 C 
BRANCH  14  15
ATOM      4  O   UNL     1      10.102   4.608   2.844  0.00  0.00    -0.276 OA
ATOM      7  N   UNL     1      12.392   4.955   2.693  0.00  0.00    -0.304 N 
ATOM     15  C   UNL     1      11.121   5.196   3.195  0.00  0.00    +0.216 C 
ATOM     26  H   UNL     1      13.175   5.506   3.033  0.00  0.00    +0.150 HD
BRANCH   7  18
ATOM     18  C   UNL     1      12.648   3.966   1.685  0.00  0.00    +0.193 C 
BRANCH  18  21
ATOM     21  C   UNL     1      14.084   3.741   1.520  0.00  0.00    -0.087 C 
ATOM     22  C   UNL     1      15.262   3.553   1.383  0.00  0.00    +0.005 C 
ENDBRANCH  18  21
ENDBRANCH   7  18
ENDBRANCH  14  15
ENDBRANCH  12  14
TORSDOF 9
ENDMDL
MODEL 10
REMARK VINA RESULT:      -5.7      2.385      4.749
REMARK  Name = 40777920
REMARK  11 active torsions:
REMARK  status: ('A' for Active; 'I' for Inactive)
REMARK    1  A    between atoms: O_2  and  C_9
REMARK    2  A    between atoms: O_3  and  C_10
REMARK    3  A    between atoms: N_6  and  C_13
REMARK    4  A    between atoms: N_7  and  C_18
REMARK    5  A    between atoms: N_8  and  C_17
REMARK    6  A    between atoms: C_11  and  C_13
REMARK    7  A    between atoms: C_12  and  C_14
REMARK    8  A    between atoms: C_14  and  C_15
REMARK    9  A    between atoms: C_17  and  C_19
REMARK   10  A    between atoms: C_17  and  C_20
REMARK   11  A    between atoms: C_18  and  C_21
REMARK                            x       y       z     vdW  Elec       q    Type
REMARK                         _______ _______ _______ _____ _____    ______ ____
ROOT
ATOM      1  O   UNL     1      14.265   7.328  21.115  0.00  0.00    -0.366 OA
ATOM      9  C   UNL     1      16.618   7.494  21.424  0.00  0.00    +0.176 C 
ATOM     10  C   UNL     1      16.312   7.352  19.947  0.00  0.00    +0.175 C 
ATOM     11  C   UNL     1      15.262   7.903  21.990  0.00  0.00    +0.167 C 
ATOM     12  C   UNL     1      14.923   6.738  19.980  0.00  0.00    +0.158 C 
ENDROOT
BRANCH   9   2
ATOM      2  O   UNL     1      16.965   6.227  21.982  0.00  0.00    -0.387 OA
ATOM     23  H   UNL     1      16.168   5.869  22.408  0.00  0.00    +0.210 HD
ENDBRANCH   9   2
BRANCH  10   3
ATOM      3  O   UNL     1      17.236   6.534  19.262  0.00  0.00    -0.387 OA
ATOM     24  H   UNL     1      17.025   5.610  19.480  0.00  0.00    +0.210 HD
ENDBRANCH  10   3
BRANCH  11  13
ATOM     13  C   UNL     1      15.054   9.411  22.004  0.00  0.00    +0.140 C 
BRANCH  13   6
ATOM      5  O   UNL     1      14.036  12.057  22.543  0.00  0.00    -0.253 OA
ATOM      6  N   UNL     1      14.222   9.809  23.102  0.00  0.00    -0.297 N 
ATOM      8  N   UNL     1      12.979  11.226  24.435  0.00  0.00    -0.297 N 
ATOM     16  C   UNL     1      13.769  11.118  23.293  0.00  0.00    +0.300 C 
ATOM     25  H   UNL     1      13.939   9.099  23.771  0.00  0.00    +0.150 HD
ATOM     27  H   UNL     1      12.753  10.379  24.947  0.00  0.00    +0.150 HD
BRANCH   8  17
ATOM     17  C   UNL     1      12.384  12.472  24.860  0.00  0.00    +0.068 C 
ATOM     19  C   UNL     1      13.204  13.095  25.982  0.00  0.00    +0.027 C 
ATOM     20  C   UNL     1      10.938  12.256  25.289  0.00  0.00    +0.027 C 
ENDBRANCH   8  17
ENDBRANCH  13   6
ENDBRANCH  11  13
BRANCH  12  14
ATOM     14  C   UNL     1      14.115   7.006  18.723  0.00  0.00    +0.130 C 
BRANCH  14  15
ATOM      4  O   UNL     1      13.273   9.269  18.538  0.00  0.00    -0.276 OA
ATOM      7  N   UNL     1      11.955   7.652  19.556  0.00  0.00    -0.304 N 
ATOM     15  C   UNL     1      13.095   8.113  18.913  0.00  0.00    +0.216 C 
ATOM     26  H   UNL     1      11.890   6.672  19.814  0.00  0.00    +0.150 HD
BRANCH   7  18
ATOM     18  C   UNL     1      10.840   8.505  19.855  0.00  0.00    +0.193 C 
BRANCH  18  21
ATOM     21  C   UNL     1      10.793   8.830  21.281  0.00  0.00    -0.087 C 
ATOM     22  C   UNL     1      10.755   9.094  22.451  0.00  0.00    +0.005 C 
ENDBRANCH  18  21
ENDBRANCH   7  18
ENDBRANCH  14  15
ENDBRANCH  12  14
TORSDOF 9
ENDMDL
