MODEL 1
REMARK VINA RESULT:      -6.7      0.000      0.000
REMARK  Name = 25389753
REMARK  10 active torsions:
REMARK  status: ('A' for Active; 'I' for Inactive)
REMARK    1  A    between atoms: O_4  and  C_23
REMARK    2  A    between atoms: O_4  and  C_35
REMARK    3  A    between atoms: O_6  and  C_29
REMARK    4  A    between atoms: O_7  and  C_34
REMARK    5  A    between atoms: O_7  and  C_36
REMARK    6  A    between atoms: N_10  and  C_14
REMARK    7  A    between atoms: N_10  and  C_24
REMARK    8  A    between atoms: C_12  and  C_20
REMARK    9  A    between atoms: C_16  and  C_23
REMARK   10  A    between atoms: C_24  and  C_29
REMARK                            x       y       z     vdW  Elec       q    Type
REMARK                         _______ _______ _______ _____ _____    ______ ____
ROOT
ATOM      8  N   UNL     1       9.438   7.463   5.488  0.00  0.00    -0.274 NA
ATOM      9  N   UNL     1       9.315   9.724   8.521  0.00  0.00    -0.356 N 
ATOM     11  C   UNL     1       8.855   7.843   6.828  0.00  0.00    +0.106 C 
ATOM     12  C   UNL     1      10.850   6.982   5.606  0.00  0.00    +0.090 C 
ATOM     13  C   UNL     1       9.031   6.751   7.891  0.00  0.00    +0.044 C 
ATOM     14  C   UNL     1      10.493   6.345   8.048  0.00  0.00    +0.057 C 
ATOM     15  C   UNL     1      11.017   5.888   6.692  0.00  0.00    +0.042 C 
ATOM     16  C   UNL     1       9.232   8.632   4.568  0.00  0.00    +0.172 C 
ATOM     17  C   UNL     1       9.352   9.201   7.259  0.00  0.00    +0.038 A 
ATOM     18  C   UNL     1      10.023   9.904   4.953  0.00  0.00    +0.068 C 
ATOM     19  C   UNL     1       9.874  10.161   6.414  0.00  0.00    -0.016 A 
ATOM     21  C   UNL     1      10.201  11.299   7.198  0.00  0.00    +0.003 A 
ATOM     22  C   UNL     1       9.842  10.999   8.516  0.00  0.00    +0.047 A 
ATOM     27  C   UNL     1      10.766  12.560   6.920  0.00  0.00    +0.010 A 
ATOM     28  C   UNL     1      10.020  11.902   9.569  0.00  0.00    +0.026 A 
ATOM     30  C   UNL     1      10.951  13.471   7.966  0.00  0.00    +0.001 A 
ATOM     33  C   UNL     1      10.584  13.146   9.269  0.00  0.00    +0.002 A 
ATOM     37  H   UNL     1       8.965   9.253   9.344  0.00  0.00    +0.166 HD
ENDROOT
BRANCH  12  20
ATOM     20  C   UNL     1      11.431   6.403   4.319  0.00  0.00    -0.030 A 
ATOM     25  C   UNL     1      12.507   7.032   3.694  0.00  0.00    +0.009 A 
ATOM     26  C   UNL     1      10.885   5.243   3.768  0.00  0.00    +0.009 A 
ATOM     31  C   UNL     1      13.038   6.502   2.517  0.00  0.00    +0.046 A 
ATOM     32  C   UNL     1      11.415   4.712   2.592  0.00  0.00    +0.046 A 
ATOM     34  C   UNL     1      12.492   5.343   1.967  0.00  0.00    +0.130 A 
BRANCH  34   7
ATOM      7  O   UNL     1      13.010   4.825   0.819  0.00  0.00    -0.406 OA
BRANCH   7  36
ATOM      1  F   UNL     1      14.660   3.605  -0.121  0.00  0.00    -0.133 F 
ATOM      2  F   UNL     1      14.487   3.592   2.058  0.00  0.00    -0.133 F 
ATOM      3  F   UNL     1      12.997   2.537   0.812  0.00  0.00    -0.133 F 
ATOM     36  C   UNL     1      13.782   3.632   0.907  0.00  0.00    +0.575 C 
ENDBRANCH   7  36
ENDBRANCH  34   7
ENDBRANCH  12  20
BRANCH  16  23
ATOM      5  O   UNL     1       8.889   7.316   2.587  0.00  0.00    -0.249 OA
ATOM     23  C   UNL     1       9.453   8.249   3.142  0.00  0.00    +0.325 C 
BRANCH  23   4
ATOM      4  O   UNL     1      10.365   9.092   2.581  0.00  0.00    -0.467 OA
ATOM     35  C   UNL     1      10.517   8.979   1.162  0.00  0.00    +0.280 C 
ENDBRANCH  23   4
ENDBRANCH  16  23
BRANCH  14  10
ATOM     10  N   UNL     1      10.629   5.268   9.028  0.00  0.00    -0.311 NA
ATOM     38  H   UNL     1      10.978   5.647   9.910  0.00  0.00    +0.122 HD
BRANCH  10  24
ATOM     24  C   UNL     1       9.348   4.625   9.271  0.00  0.00    +0.109 C 
BRANCH  24  29
ATOM     29  C   UNL     1       9.123   4.419  10.760  0.00  0.00    +0.171 C 
BRANCH  29   6
ATOM      6  O   UNL     1       7.784   4.780  11.074  0.00  0.00    -0.394 OA
ATOM     39  H   UNL     1       7.684   5.723  10.858  0.00  0.00    +0.209 HD
ENDBRANCH  29   6
ENDBRANCH  24  29
ENDBRANCH  10  24
ENDBRANCH  14  10
TORSDOF 9
ENDMDL
MODEL 2
REMARK VINA RESULT:      -6.5     27.521     31.402
REMARK  Name = 25389753
REMARK  10 active torsions:
REMARK  status: ('A' for Active; 'I' for Inactive)
REMARK    1  A    between atoms: O_4  and  C_23
REMARK    2  A    between atoms: O_4  and  C_35
REMARK    3  A    between atoms: O_6  and  C_29
REMARK    4  A    between atoms: O_7  and  C_34
REMARK    5  A    between atoms: O_7  and  C_36
REMARK    6  A    between atoms: N_10  and  C_14
REMARK    7  A    between atoms: N_10  and  C_24
REMARK    8  A    between atoms: C_12  and  C_20
REMARK    9  A    between atoms: C_16  and  C_23
REMARK   10  A    between atoms: C_24  and  C_29
REMARK                            x       y       z     vdW  Elec       q    Type
REMARK                         _______ _______ _______ _____ _____    ______ ____
ROOT
ATOM      8  N   UNL     1     -10.646 -10.495  16.703  0.00  0.00    -0.274 NA
ATOM      9  N   UNL     1      -6.979  -9.980  15.915  0.00  0.00    -0.356 N 
ATOM     11  C   UNL     1      -9.538 -10.167  15.731  0.00  0.00    +0.106 C 
ATOM     12  C   UNL     1     -10.819  -9.428  17.738  0.00  0.00    +0.090 C 
ATOM     13  C   UNL     1      -9.665  -8.761  15.129  0.00  0.00    +0.044 C 
ATOM     14  C   UNL     1      -9.752  -7.688  16.210  0.00  0.00    +0.057 C 
ATOM     15  C   UNL     1     -10.933  -8.011  17.117  0.00  0.00    +0.042 C 
ATOM     16  C   UNL     1     -10.370 -11.871  17.238  0.00  0.00    +0.172 C 
ATOM     17  C   UNL     1      -8.189 -10.449  16.345  0.00  0.00    +0.038 A 
ATOM     18  C   UNL     1      -9.092 -11.984  18.103  0.00  0.00    +0.068 C 
ATOM     19  C   UNL     1      -7.964 -11.289  17.418  0.00  0.00    -0.016 A 
ATOM     21  C   UNL     1      -6.568 -11.304  17.675  0.00  0.00    +0.003 A 
ATOM     22  C   UNL     1      -5.973 -10.475  16.719  0.00  0.00    +0.047 A 
ATOM     27  C   UNL     1      -5.745 -11.942  18.625  0.00  0.00    +0.010 A 
ATOM     28  C   UNL     1      -4.592 -10.255  16.668  0.00  0.00    +0.026 A 
ATOM     30  C   UNL     1      -4.363 -11.728  18.585  0.00  0.00    +0.001 A 
ATOM     33  C   UNL     1      -3.797 -10.897  17.621  0.00  0.00    +0.002 A 
ATOM     37  H   UNL     1      -6.833  -9.358  15.132  0.00  0.00    +0.166 HD
ENDROOT
BRANCH  12  20
ATOM     20  C   UNL     1     -12.043  -9.606  18.631  0.00  0.00    -0.030 A 
ATOM     25  C   UNL     1     -13.322  -9.570  18.077  0.00  0.00    +0.009 A 
ATOM     26  C   UNL     1     -11.883  -9.806  20.003  0.00  0.00    +0.009 A 
ATOM     31  C   UNL     1     -14.442  -9.733  18.894  0.00  0.00    +0.046 A 
ATOM     32  C   UNL     1     -13.001  -9.969  20.820  0.00  0.00    +0.046 A 
ATOM     34  C   UNL     1     -14.281  -9.932  20.265  0.00  0.00    +0.130 A 
BRANCH  34   7
ATOM      7  O   UNL     1     -15.373 -10.092  21.062  0.00  0.00    -0.406 OA
BRANCH   7  36
ATOM      1  F   UNL     1     -17.000  -9.225  22.364  0.00  0.00    -0.133 F 
ATOM      2  F   UNL     1     -15.460  -7.872  21.608  0.00  0.00    -0.133 F 
ATOM      3  F   UNL     1     -16.991  -8.697  20.244  0.00  0.00    -0.133 F 
ATOM     36  C   UNL     1     -16.201  -8.960  21.306  0.00  0.00    +0.575 C 
ENDBRANCH   7  36
ENDBRANCH  34   7
ENDBRANCH  12  20
BRANCH  16  23
ATOM      5  O   UNL     1     -12.672 -12.537  17.424  0.00  0.00    -0.249 OA
ATOM     23  C   UNL     1     -11.565 -12.434  17.936  0.00  0.00    +0.325 C 
BRANCH  23   4
ATOM      4  O   UNL     1     -11.221 -12.800  19.203  0.00  0.00    -0.467 OA
ATOM     35  C   UNL     1     -12.217 -13.535  19.922  0.00  0.00    +0.280 C 
ENDBRANCH  23   4
ENDBRANCH  16  23
BRANCH  14  10
ATOM     10  N   UNL     1      -9.924  -6.364  15.613  0.00  0.00    -0.311 NA
ATOM     38  H   UNL     1      -9.733  -6.411  14.612  0.00  0.00    +0.122 HD
BRANCH  10  24
ATOM     24  C   UNL     1     -11.282  -5.883  15.807  0.00  0.00    +0.109 C 
BRANCH  24  29
ATOM     29  C   UNL     1     -12.036  -5.852  14.488  0.00  0.00    +0.171 C 
BRANCH  29   6
ATOM      6  O   UNL     1     -11.666  -4.678  13.777  0.00  0.00    -0.394 OA
ATOM     39  H   UNL     1     -12.352  -4.012  13.951  0.00  0.00    +0.209 HD
ENDBRANCH  29   6
ENDBRANCH  24  29
ENDBRANCH  10  24
ENDBRANCH  14  10
TORSDOF 9
ENDMDL
MODEL 3
REMARK VINA RESULT:      -6.5      1.629      2.167
REMARK  Name = 25389753
REMARK  10 active torsions:
REMARK  status: ('A' for Active; 'I' for Inactive)
REMARK    1  A    between atoms: O_4  and  C_23
REMARK    2  A    between atoms: O_4  and  C_35
REMARK    3  A    between atoms: O_6  and  C_29
REMARK    4  A    between atoms: O_7  and  C_34
REMARK    5  A    between atoms: O_7  and  C_36
REMARK    6  A    between atoms: N_10  and  C_14
REMARK    7  A    between atoms: N_10  and  C_24
REMARK    8  A    between atoms: C_12  and  C_20
REMARK    9  A    between atoms: C_16  and  C_23
REMARK   10  A    between atoms: C_24  and  C_29
REMARK                            x       y       z     vdW  Elec       q    Type
REMARK                         _______ _______ _______ _____ _____    ______ ____
ROOT
ATOM      8  N   UNL     1       9.418   6.778   3.692  0.00  0.00    -0.274 NA
ATOM      9  N   UNL     1       8.671   9.309   6.406  0.00  0.00    -0.356 N 
ATOM     11  C   UNL     1       8.544   7.297   4.808  0.00  0.00    +0.106 C 
ATOM     12  C   UNL     1      10.730   6.266   4.199  0.00  0.00    +0.090 C 
ATOM     13  C   UNL     1       8.394   6.302   5.966  0.00  0.00    +0.044 C 
ATOM     14  C   UNL     1       9.748   5.866   6.517  0.00  0.00    +0.057 C 
ATOM     15  C   UNL     1      10.565   5.271   5.377  0.00  0.00    +0.042 C 
ATOM     16  C   UNL     1       9.508   7.864   2.659  0.00  0.00    +0.172 C 
ATOM     17  C   UNL     1       8.991   8.672   5.240  0.00  0.00    +0.038 A 
ATOM     18  C   UNL     1      10.246   9.141   3.126  0.00  0.00    +0.068 C 
ATOM     19  C   UNL     1       9.755   9.535   4.478  0.00  0.00    -0.016 A 
ATOM     21  C   UNL     1       9.939  10.728   5.224  0.00  0.00    +0.003 A 
ATOM     22  C   UNL     1       9.250  10.562   6.429  0.00  0.00    +0.047 A 
ATOM     27  C   UNL     1      10.621  11.940   4.996  0.00  0.00    +0.010 A 
ATOM     28  C   UNL     1       9.211  11.551   7.418  0.00  0.00    +0.026 A 
ATOM     30  C   UNL     1      10.590  12.937   5.977  0.00  0.00    +0.001 A 
ATOM     33  C   UNL     1       9.896  12.744   7.169  0.00  0.00    +0.002 A 
ATOM     37  H   UNL     1       8.104   8.926   7.149  0.00  0.00    +0.166 HD
ENDROOT
BRANCH  12  20
ATOM     20  C   UNL     1      11.579   5.553   3.149  0.00  0.00    -0.030 A 
ATOM     25  C   UNL     1      11.181   4.311   2.656  0.00  0.00    +0.009 A 
ATOM     26  C   UNL     1      12.753   6.145   2.682  0.00  0.00    +0.009 A 
ATOM     31  C   UNL     1      11.957   3.659   1.697  0.00  0.00    +0.046 A 
ATOM     32  C   UNL     1      13.529   5.495   1.723  0.00  0.00    +0.046 A 
ATOM     34  C   UNL     1      13.130   4.252   1.230  0.00  0.00    +0.130 A 
BRANCH  34   7
ATOM      7  O   UNL     1      13.887   3.617   0.294  0.00  0.00    -0.406 OA
BRANCH   7  36
ATOM      1  F   UNL     1      14.521   3.727  -1.869  0.00  0.00    -0.133 F 
ATOM      2  F   UNL     1      12.781   2.502  -1.370  0.00  0.00    -0.133 F 
ATOM      3  F   UNL     1      12.654   4.707  -1.295  0.00  0.00    -0.133 F 
ATOM     36  C   UNL     1      13.442   3.637  -1.058  0.00  0.00    +0.575 C 
ENDBRANCH   7  36
ENDBRANCH  34   7
ENDBRANCH  12  20
BRANCH  16  23
ATOM      5  O   UNL     1       9.649   6.335   0.810  0.00  0.00    -0.249 OA
ATOM     23  C   UNL     1      10.053   7.346   1.369  0.00  0.00    +0.325 C 
BRANCH  23   4
ATOM      4  O   UNL     1      11.051   8.166   0.935  0.00  0.00    -0.467 OA
ATOM     35  C   UNL     1      11.518   7.917  -0.395  0.00  0.00    +0.280 C 
ENDBRANCH  23   4
ENDBRANCH  16  23
BRANCH  14  10
ATOM     10  N   UNL     1       9.581   4.879   7.583  0.00  0.00    -0.311 NA
ATOM     38  H   UNL     1      10.216   4.095   7.429  0.00  0.00    +0.122 HD
BRANCH  10  24
ATOM     24  C   UNL     1       9.871   5.467   8.881  0.00  0.00    +0.109 C 
BRANCH  24  29
ATOM     29  C   UNL     1       9.133   4.726   9.984  0.00  0.00    +0.171 C 
BRANCH  29   6
ATOM      6  O   UNL     1      10.064   4.375  11.000  0.00  0.00    -0.394 OA
ATOM     39  H   UNL     1      10.441   5.204  11.340  0.00  0.00    +0.209 HD
ENDBRANCH  29   6
ENDBRANCH  24  29
ENDBRANCH  10  24
ENDBRANCH  14  10
TORSDOF 9
ENDMDL
MODEL 4
REMARK VINA RESULT:      -6.2     25.061     28.245
REMARK  Name = 25389753
REMARK  10 active torsions:
REMARK  status: ('A' for Active; 'I' for Inactive)
REMARK    1  A    between atoms: O_4  and  C_23
REMARK    2  A    between atoms: O_4  and  C_35
REMARK    3  A    between atoms: O_6  and  C_29
REMARK    4  A    between atoms: O_7  and  C_34
REMARK    5  A    between atoms: O_7  and  C_36
REMARK    6  A    between atoms: N_10  and  C_14
REMARK    7  A    between atoms: N_10  and  C_24
REMARK    8  A    between atoms: C_12  and  C_20
REMARK    9  A    between atoms: C_16  and  C_23
REMARK   10  A    between atoms: C_24  and  C_29
REMARK                            x       y       z     vdW  Elec       q    Type
REMARK                         _______ _______ _______ _____ _____    ______ ____
ROOT
ATOM      8  N   UNL     1      -6.728 -10.132  16.796  0.00  0.00    -0.274 NA
ATOM      9  N   UNL     1      -9.577 -10.554  19.253  0.00  0.00    -0.356 N 
ATOM     11  C   UNL     1      -7.730  -9.554  17.767  0.00  0.00    +0.106 C 
ATOM     12  C   UNL     1      -7.387 -10.683  15.571  0.00  0.00    +0.090 C 
ATOM     13  C   UNL     1      -8.701  -8.565  17.110  0.00  0.00    +0.044 C 
ATOM     14  C   UNL     1      -9.421  -9.186  15.917  0.00  0.00    +0.057 C 
ATOM     15  C   UNL     1      -8.375  -9.678  14.924  0.00  0.00    +0.042 C 
ATOM     16  C   UNL     1      -5.880 -11.105  17.563  0.00  0.00    +0.172 C 
ATOM     17  C   UNL     1      -8.412 -10.653  18.546  0.00  0.00    +0.038 A 
ATOM     18  C   UNL     1      -6.634 -12.352  18.080  0.00  0.00    +0.068 C 
ATOM     19  C   UNL     1      -7.918 -11.932  18.713  0.00  0.00    -0.016 A 
ATOM     21  C   UNL     1      -8.836 -12.651  19.523  0.00  0.00    +0.003 A 
ATOM     22  C   UNL     1      -9.867 -11.764  19.848  0.00  0.00    +0.047 A 
ATOM     27  C   UNL     1      -8.894 -13.969  20.018  0.00  0.00    +0.010 A 
ATOM     28  C   UNL     1     -10.955 -12.135  20.647  0.00  0.00    +0.026 A 
ATOM     30  C   UNL     1      -9.978 -14.352  20.816  0.00  0.00    +0.001 A 
ATOM     33  C   UNL     1     -10.992 -13.448  21.124  0.00  0.00    +0.002 A 
ATOM     37  H   UNL     1     -10.151  -9.726  19.329  0.00  0.00    +0.166 HD
ENDROOT
BRANCH  12  20
ATOM     20  C   UNL     1      -6.419 -11.106  14.469  0.00  0.00    -0.030 A 
ATOM     25  C   UNL     1      -6.412 -12.424  14.015  0.00  0.00    +0.009 A 
ATOM     26  C   UNL     1      -5.542 -10.172  13.915  0.00  0.00    +0.009 A 
ATOM     31  C   UNL     1      -5.527 -12.811  13.007  0.00  0.00    +0.046 A 
ATOM     32  C   UNL     1      -4.658 -10.557  12.907  0.00  0.00    +0.046 A 
ATOM     34  C   UNL     1      -4.651 -11.877  12.453  0.00  0.00    +0.130 A 
BRANCH  34   7
ATOM      7  O   UNL     1      -3.789 -12.253  11.470  0.00  0.00    -0.406 OA
BRANCH   7  36
ATOM      1  F   UNL     1      -3.404 -10.672   9.907  0.00  0.00    -0.133 F 
ATOM      2  F   UNL     1      -3.625 -12.741   9.240  0.00  0.00    -0.133 F 
ATOM      3  F   UNL     1      -5.379 -11.605   9.959  0.00  0.00    -0.133 F 
ATOM     36  C   UNL     1      -4.061 -11.831  10.138  0.00  0.00    +0.575 C 
ENDBRANCH   7  36
ENDBRANCH  34   7
ENDBRANCH  12  20
BRANCH  16  23
ATOM      5  O   UNL     1      -4.399 -12.609  16.415  0.00  0.00    -0.249 OA
ATOM     23  C   UNL     1      -4.650 -11.475  16.801  0.00  0.00    +0.325 C 
BRANCH  23   4
ATOM      4  O   UNL     1      -3.878 -10.367  16.618  0.00  0.00    -0.467 OA
ATOM     35  C   UNL     1      -2.551 -10.615  16.141  0.00  0.00    +0.280 C 
ENDBRANCH  23   4
ENDBRANCH  16  23
BRANCH  14  10
ATOM     10  N   UNL     1     -10.301  -8.209  15.276  0.00  0.00    -0.311 NA
ATOM     38  H   UNL     1     -10.786  -8.647  14.491  0.00  0.00    +0.122 HD
BRANCH  10  24
ATOM     24  C   UNL     1     -11.291  -7.711  16.217  0.00  0.00    +0.109 C 
BRANCH  24  29
ATOM     29  C   UNL     1     -11.417  -6.200  16.114  0.00  0.00    +0.171 C 
BRANCH  29   6
ATOM      6  O   UNL     1     -10.244  -5.684  15.497  0.00  0.00    -0.394 OA
ATOM     39  H   UNL     1      -9.489  -5.973  16.037  0.00  0.00    +0.209 HD
ENDBRANCH  29   6
ENDBRANCH  24  29
ENDBRANCH  10  24
ENDBRANCH  14  10
TORSDOF 9
ENDMDL
MODEL 5
REMARK VINA RESULT:      -6.0     24.600     28.109
REMARK  Name = 25389753
REMARK  10 active torsions:
REMARK  status: ('A' for Active; 'I' for Inactive)
REMARK    1  A    between atoms: O_4  and  C_23
REMARK    2  A    between atoms: O_4  and  C_35
REMARK    3  A    between atoms: O_6  and  C_29
REMARK    4  A    between atoms: O_7  and  C_34
REMARK    5  A    between atoms: O_7  and  C_36
REMARK    6  A    between atoms: N_10  and  C_14
REMARK    7  A    between atoms: N_10  and  C_24
REMARK    8  A    between atoms: C_12  and  C_20
REMARK    9  A    between atoms: C_16  and  C_23
REMARK   10  A    between atoms: C_24  and  C_29
REMARK                            x       y       z     vdW  Elec       q    Type
REMARK                         _______ _______ _______ _____ _____    ______ ____
ROOT
ATOM      8  N   UNL     1      -4.790 -11.173  15.683  0.00  0.00    -0.274 NA
ATOM      9  N   UNL     1      -3.088 -10.518  12.366  0.00  0.00    -0.356 N 
ATOM     11  C   UNL     1      -3.542 -10.981  14.855  0.00  0.00    +0.106 C 
ATOM     12  C   UNL     1      -5.503 -12.442  15.338  0.00  0.00    +0.090 C 
ATOM     13  C   UNL     1      -2.622 -12.209  14.863  0.00  0.00    +0.044 C 
ATOM     14  C   UNL     1      -3.358 -13.471  14.424  0.00  0.00    +0.057 C 
ATOM     15  C   UNL     1      -4.560 -13.673  15.338  0.00  0.00    +0.042 C 
ATOM     16  C   UNL     1      -5.606  -9.920  15.548  0.00  0.00    +0.172 C 
ATOM     17  C   UNL     1      -3.890 -10.489  13.472  0.00  0.00    +0.038 A 
ATOM     18  C   UNL     1      -6.158  -9.658  14.126  0.00  0.00    +0.068 C 
ATOM     19  C   UNL     1      -5.074  -9.867  13.124  0.00  0.00    -0.016 A 
ATOM     21  C   UNL     1      -5.005  -9.538  11.745  0.00  0.00    +0.003 A 
ATOM     22  C   UNL     1      -3.749  -9.957  11.293  0.00  0.00    +0.047 A 
ATOM     27  C   UNL     1      -5.883  -8.922  10.831  0.00  0.00    +0.010 A 
ATOM     28  C   UNL     1      -3.331  -9.787   9.968  0.00  0.00    +0.026 A 
ATOM     30  C   UNL     1      -5.476  -8.748   9.504  0.00  0.00    +0.001 A 
ATOM     33  C   UNL     1      -4.220  -9.175   9.080  0.00  0.00    +0.002 A 
ATOM     37  H   UNL     1      -2.152 -10.898  12.327  0.00  0.00    +0.166 HD
ENDROOT
BRANCH  12  20
ATOM     20  C   UNL     1      -6.663 -12.789  16.268  0.00  0.00    -0.030 A 
ATOM     25  C   UNL     1      -6.432 -12.981  17.630  0.00  0.00    +0.009 A 
ATOM     26  C   UNL     1      -7.955 -12.914  15.756  0.00  0.00    +0.009 A 
ATOM     31  C   UNL     1      -7.492 -13.298  18.480  0.00  0.00    +0.046 A 
ATOM     32  C   UNL     1      -9.015 -13.230  16.605  0.00  0.00    +0.046 A 
ATOM     34  C   UNL     1      -8.783 -13.422  17.968  0.00  0.00    +0.130 A 
BRANCH  34   7
ATOM      7  O   UNL     1      -9.817 -13.731  18.797  0.00  0.00    -0.406 OA
BRANCH   7  36
ATOM      1  F   UNL     1      -9.944 -12.784  20.841  0.00  0.00    -0.133 F 
ATOM      2  F   UNL     1     -10.035 -11.473  19.096  0.00  0.00    -0.133 F 
ATOM      3  F   UNL     1     -11.741 -12.786  19.598  0.00  0.00    -0.133 F 
ATOM     36  C   UNL     1     -10.395 -12.685  19.571  0.00  0.00    +0.575 C 
ENDBRANCH   7  36
ENDBRANCH  34   7
ENDBRANCH  12  20
BRANCH  16  23
ATOM      5  O   UNL     1      -6.478  -9.920  17.787  0.00  0.00    -0.249 OA
ATOM     23  C   UNL     1      -6.682  -9.855  16.582  0.00  0.00    +0.325 C 
BRANCH  23   4
ATOM      4  O   UNL     1      -7.892  -9.716  15.972  0.00  0.00    -0.467 OA
ATOM     35  C   UNL     1      -8.954  -9.252  16.812  0.00  0.00    +0.280 C 
ENDBRANCH  23   4
ENDBRANCH  16  23
BRANCH  14  10
ATOM     10  N   UNL     1      -2.475 -14.635  14.490  0.00  0.00    -0.311 NA
ATOM     38  H   UNL     1      -2.970 -15.461  14.149  0.00  0.00    +0.122 HD
BRANCH  10  24
ATOM     24  C   UNL     1      -1.289 -14.431  13.674  0.00  0.00    +0.109 C 
BRANCH  24  29
ATOM     29  C   UNL     1      -0.512 -15.728  13.521  0.00  0.00    +0.171 C 
BRANCH  29   6
ATOM      6  O   UNL     1       0.043 -15.777  12.213  0.00  0.00    -0.394 OA
ATOM     39  H   UNL     1      -0.520 -15.225  11.644  0.00  0.00    +0.209 HD
ENDBRANCH  29   6
ENDBRANCH  24  29
ENDBRANCH  10  24
ENDBRANCH  14  10
TORSDOF 9
ENDMDL
MODEL 6
REMARK VINA RESULT:      -5.9     23.607     25.832
REMARK  Name = 25389753
REMARK  10 active torsions:
REMARK  status: ('A' for Active; 'I' for Inactive)
REMARK    1  A    between atoms: O_4  and  C_23
REMARK    2  A    between atoms: O_4  and  C_35
REMARK    3  A    between atoms: O_6  and  C_29
REMARK    4  A    between atoms: O_7  and  C_34
REMARK    5  A    between atoms: O_7  and  C_36
REMARK    6  A    between atoms: N_10  and  C_14
REMARK    7  A    between atoms: N_10  and  C_24
REMARK    8  A    between atoms: C_12  and  C_20
REMARK    9  A    between atoms: C_16  and  C_23
REMARK   10  A    between atoms: C_24  and  C_29
REMARK                            x       y       z     vdW  Elec       q    Type
REMARK                         _______ _______ _______ _____ _____    ______ ____
ROOT
ATOM      8  N   UNL     1      -5.672 -11.745   9.547  0.00  0.00    -0.274 NA
ATOM      9  N   UNL     1      -6.039 -11.779   5.780  0.00  0.00    -0.356 N 
ATOM     11  C   UNL     1      -6.526 -11.677   8.304  0.00  0.00    +0.106 C 
ATOM     12  C   UNL     1      -4.792 -10.543   9.690  0.00  0.00    +0.090 C 
ATOM     13  C   UNL     1      -7.289 -10.353   8.171  0.00  0.00    +0.044 C 
ATOM     14  C   UNL     1      -6.353  -9.150   8.234  0.00  0.00    +0.057 C 
ATOM     15  C   UNL     1      -5.574  -9.212   9.542  0.00  0.00    +0.042 C 
ATOM     16  C   UNL     1      -4.958 -13.065   9.522  0.00  0.00    +0.172 C 
ATOM     17  C   UNL     1      -5.718 -12.040   7.082  0.00  0.00    +0.038 A 
ATOM     18  C   UNL     1      -3.931 -13.223   8.375  0.00  0.00    +0.068 C 
ATOM     19  C   UNL     1      -4.539 -12.760   7.095  0.00  0.00    -0.016 A 
ATOM     21  C   UNL     1      -4.106 -12.911   5.751  0.00  0.00    +0.003 A 
ATOM     22  C   UNL     1      -5.064 -12.286   4.946  0.00  0.00    +0.047 A 
ATOM     27  C   UNL     1      -2.995 -13.519   5.133  0.00  0.00    +0.010 A 
ATOM     28  C   UNL     1      -4.962 -12.242   3.551  0.00  0.00    +0.026 A 
ATOM     30  C   UNL     1      -2.882 -13.481   3.739  0.00  0.00    +0.001 A 
ATOM     33  C   UNL     1      -3.851 -12.851   2.962  0.00  0.00    +0.002 A 
ATOM     37  H   UNL     1      -6.860 -11.282   5.464  0.00  0.00    +0.166 HD
ENDROOT
BRANCH  12  20
ATOM     20  C   UNL     1      -4.047 -10.459  11.020  0.00  0.00    -0.030 A 
ATOM     25  C   UNL     1      -2.654 -10.414  11.038  0.00  0.00    +0.009 A 
ATOM     26  C   UNL     1      -4.761 -10.427  12.218  0.00  0.00    +0.009 A 
ATOM     31  C   UNL     1      -1.973 -10.337  12.253  0.00  0.00    +0.046 A 
ATOM     32  C   UNL     1      -4.082 -10.350  13.433  0.00  0.00    +0.046 A 
ATOM     34  C   UNL     1      -2.687 -10.305  13.451  0.00  0.00    +0.130 A 
BRANCH  34   7
ATOM      7  O   UNL     1      -2.024 -10.229  14.637  0.00  0.00    -0.406 OA
BRANCH   7  36
ATOM      1  F   UNL     1      -1.073 -11.196  16.440  0.00  0.00    -0.133 F 
ATOM      2  F   UNL     1      -3.185 -11.599  16.055  0.00  0.00    -0.133 F 
ATOM      3  F   UNL     1      -1.625 -12.478  14.759  0.00  0.00    -0.133 F 
ATOM     36  C   UNL     1      -1.989 -11.387  15.465  0.00  0.00    +0.575 C 
ENDBRANCH   7  36
ENDBRANCH  34   7
ENDBRANCH  12  20
BRANCH  16  23
ATOM      5  O   UNL     1      -3.161 -13.529  11.048  0.00  0.00    -0.249 OA
ATOM     23  C   UNL     1      -4.361 -13.389  10.852  0.00  0.00    +0.325 C 
BRANCH  23   4
ATOM      4  O   UNL     1      -5.352 -13.498  11.781  0.00  0.00    -0.467 OA
ATOM     35  C   UNL     1      -4.949 -14.026  13.049  0.00  0.00    +0.280 C 
ENDBRANCH  23   4
ENDBRANCH  16  23
BRANCH  14  10
ATOM     10  N   UNL     1      -7.108  -7.900   8.158  0.00  0.00    -0.311 NA
ATOM     38  H   UNL     1      -6.561  -7.198   7.659  0.00  0.00    +0.122 HD
BRANCH  10  24
ATOM     24  C   UNL     1      -8.365  -8.099   7.454  0.00  0.00    +0.109 C 
BRANCH  24  29
ATOM     29  C   UNL     1      -8.402  -7.276   6.177  0.00  0.00    +0.171 C 
BRANCH  29   6
ATOM      6  O   UNL     1      -7.288  -7.635   5.370  0.00  0.00    -0.394 OA
ATOM     39  H   UNL     1      -7.070  -6.861   4.824  0.00  0.00    +0.209 HD
ENDBRANCH  29   6
ENDBRANCH  24  29
ENDBRANCH  10  24
ENDBRANCH  14  10
TORSDOF 9
ENDMDL
MODEL 7
REMARK VINA RESULT:      -5.8     23.113     26.619
REMARK  Name = 25389753
REMARK  10 active torsions:
REMARK  status: ('A' for Active; 'I' for Inactive)
REMARK    1  A    between atoms: O_4  and  C_23
REMARK    2  A    between atoms: O_4  and  C_35
REMARK    3  A    between atoms: O_6  and  C_29
REMARK    4  A    between atoms: O_7  and  C_34
REMARK    5  A    between atoms: O_7  and  C_36
REMARK    6  A    between atoms: N_10  and  C_14
REMARK    7  A    between atoms: N_10  and  C_24
REMARK    8  A    between atoms: C_12  and  C_20
REMARK    9  A    between atoms: C_16  and  C_23
REMARK   10  A    between atoms: C_24  and  C_29
REMARK                            x       y       z     vdW  Elec       q    Type
REMARK                         _______ _______ _______ _____ _____    ______ ____
ROOT
ATOM      8  N   UNL     1      18.236  -5.420  28.276  0.00  0.00    -0.274 NA
ATOM      9  N   UNL     1      16.068  -4.977  31.347  0.00  0.00    -0.356 N 
ATOM     11  C   UNL     1      18.081  -5.219  29.764  0.00  0.00    +0.106 C 
ATOM     12  C   UNL     1      17.796  -4.219  27.499  0.00  0.00    +0.090 C 
ATOM     13  C   UNL     1      18.716  -3.915  30.263  0.00  0.00    +0.044 C 
ATOM     14  C   UNL     1      18.182  -2.701  29.510  0.00  0.00    +0.057 C 
ATOM     15  C   UNL     1      18.435  -2.906  28.022  0.00  0.00    +0.042 C 
ATOM     16  C   UNL     1      17.537  -6.702  27.928  0.00  0.00    +0.172 C 
ATOM     17  C   UNL     1      16.641  -5.395  30.179  0.00  0.00    +0.038 A 
ATOM     18  C   UNL     1      16.003  -6.676  28.126  0.00  0.00    +0.068 C 
ATOM     19  C   UNL     1      15.682  -6.072  29.451  0.00  0.00    -0.016 A 
ATOM     21  C   UNL     1      14.468  -6.033  30.187  0.00  0.00    +0.003 A 
ATOM     22  C   UNL     1      14.737  -5.341  31.372  0.00  0.00    +0.047 A 
ATOM     27  C   UNL     1      13.164  -6.520  29.968  0.00  0.00    +0.010 A 
ATOM     28  C   UNL     1      13.761  -5.113  32.349  0.00  0.00    +0.026 A 
ATOM     30  C   UNL     1      12.180  -6.298  30.937  0.00  0.00    +0.001 A 
ATOM     33  C   UNL     1      12.475  -5.605  32.108  0.00  0.00    +0.002 A 
ATOM     37  H   UNL     1      16.537  -4.471  32.085  0.00  0.00    +0.166 HD
ENDROOT
BRANCH  12  20
ATOM     20  C   UNL     1      18.106  -4.283  26.006  0.00  0.00    -0.030 A 
ATOM     25  C   UNL     1      17.067  -4.390  25.082  0.00  0.00    +0.009 A 
ATOM     26  C   UNL     1      19.429  -4.235  25.565  0.00  0.00    +0.009 A 
ATOM     31  C   UNL     1      17.350  -4.449  23.716  0.00  0.00    +0.046 A 
ATOM     32  C   UNL     1      19.713  -4.294  24.201  0.00  0.00    +0.046 A 
ATOM     34  C   UNL     1      18.673  -4.401  23.276  0.00  0.00    +0.130 A 
BRANCH  34   7
ATOM      7  O   UNL     1      18.950  -4.457  21.945  0.00  0.00    -0.406 OA
BRANCH   7  36
ATOM      1  F   UNL     1      19.690  -5.515  20.095  0.00  0.00    -0.133 F 
ATOM      2  F   UNL     1      20.826  -5.766  21.944  0.00  0.00    -0.133 F 
ATOM      3  F   UNL     1      18.852  -6.730  21.705  0.00  0.00    -0.133 F 
ATOM     36  C   UNL     1      19.582  -5.627  21.438  0.00  0.00    +0.575 C 
ENDBRANCH   7  36
ENDBRANCH  34   7
ENDBRANCH  12  20
BRANCH  16  23
ATOM      5  O   UNL     1      17.107  -7.400  25.669  0.00  0.00    -0.249 OA
ATOM     23  C   UNL     1      17.913  -7.175  26.562  0.00  0.00    +0.325 C 
BRANCH  23   4
ATOM      4  O   UNL     1      19.267  -7.310  26.484  0.00  0.00    -0.467 OA
ATOM     35  C   UNL     1      19.753  -7.966  25.308  0.00  0.00    +0.280 C 
ENDBRANCH  23   4
ENDBRANCH  16  23
BRANCH  14  10
ATOM     10  N   UNL     1      18.839  -1.476  29.967  0.00  0.00    -0.311 NA
ATOM     38  H   UNL     1      18.816  -0.776  29.225  0.00  0.00    +0.122 HD
BRANCH  10  24
ATOM     24  C   UNL     1      18.168  -0.937  31.139  0.00  0.00    +0.109 C 
BRANCH  24  29
ATOM     29  C   UNL     1      16.684  -1.263  31.106  0.00  0.00    +0.171 C 
BRANCH  29   6
ATOM      6  O   UNL     1      16.350  -1.990  32.281  0.00  0.00    -0.394 OA
ATOM     39  H   UNL     1      17.178  -2.142  32.768  0.00  0.00    +0.209 HD
ENDBRANCH  29   6
ENDBRANCH  24  29
ENDBRANCH  10  24
ENDBRANCH  14  10
TORSDOF 9
ENDMDL
MODEL 8
REMARK VINA RESULT:      -5.7     24.071     26.106
REMARK  Name = 25389753
REMARK  10 active torsions:
REMARK  status: ('A' for Active; 'I' for Inactive)
REMARK    1  A    between atoms: O_4  and  C_23
REMARK    2  A    between atoms: O_4  and  C_35
REMARK    3  A    between atoms: O_6  and  C_29
REMARK    4  A    between atoms: O_7  and  C_34
REMARK    5  A    between atoms: O_7  and  C_36
REMARK    6  A    between atoms: N_10  and  C_14
REMARK    7  A    between atoms: N_10  and  C_24
REMARK    8  A    between atoms: C_12  and  C_20
REMARK    9  A    between atoms: C_16  and  C_23
REMARK   10  A    between atoms: C_24  and  C_29
REMARK                            x       y       z     vdW  Elec       q    Type
REMARK                         _______ _______ _______ _____ _____    ______ ____
ROOT
ATOM      8  N   UNL     1      -3.519 -10.799  12.287  0.00  0.00    -0.274 NA
ATOM      9  N   UNL     1      -2.136 -13.586  14.444  0.00  0.00    -0.356 N 
ATOM     11  C   UNL     1      -2.608 -11.288  13.387  0.00  0.00    +0.106 C 
ATOM     12  C   UNL     1      -4.962 -10.898  12.668  0.00  0.00    +0.090 C 
ATOM     13  C   UNL     1      -2.915 -10.650  14.748  0.00  0.00    +0.044 C 
ATOM     14  C   UNL     1      -4.375 -10.843  15.148  0.00  0.00    +0.057 C 
ATOM     15  C   UNL     1      -5.257 -10.260  14.050  0.00  0.00    +0.042 C 
ATOM     16  C   UNL     1      -3.133 -11.534  11.035  0.00  0.00    +0.172 C 
ATOM     17  C   UNL     1      -2.568 -12.797  13.415  0.00  0.00    +0.038 A 
ATOM     18  C   UNL     1      -3.402 -13.057  11.070  0.00  0.00    +0.068 C 
ATOM     19  C   UNL     1      -2.911 -13.620  12.361  0.00  0.00    -0.016 A 
ATOM     21  C   UNL     1      -2.716 -14.964  12.776  0.00  0.00    +0.003 A 
ATOM     22  C   UNL     1      -2.230 -14.915  14.086  0.00  0.00    +0.047 A 
ATOM     27  C   UNL     1      -2.901 -16.222  12.169  0.00  0.00    +0.010 A 
ATOM     28  C   UNL     1      -1.919 -16.067  14.818  0.00  0.00    +0.026 A 
ATOM     30  C   UNL     1      -2.595 -17.381  12.890  0.00  0.00    +0.001 A 
ATOM     33  C   UNL     1      -2.113 -17.303  14.194  0.00  0.00    +0.002 A 
ATOM     37  H   UNL     1      -1.803 -13.256  15.340  0.00  0.00    +0.166 HD
ENDROOT
BRANCH  12  20
ATOM     20  C   UNL     1      -5.923 -10.243  11.679  0.00  0.00    -0.030 A 
ATOM     25  C   UNL     1      -5.821  -8.879  11.406  0.00  0.00    +0.009 A 
ATOM     26  C   UNL     1      -6.903 -11.009  11.047  0.00  0.00    +0.009 A 
ATOM     31  C   UNL     1      -6.700  -8.280  10.502  0.00  0.00    +0.046 A 
ATOM     32  C   UNL     1      -7.781 -10.412  10.143  0.00  0.00    +0.046 A 
ATOM     34  C   UNL     1      -7.679  -9.047   9.871  0.00  0.00    +0.130 A 
BRANCH  34   7
ATOM      7  O   UNL     1      -8.536  -8.464   8.988  0.00  0.00    -0.406 OA
BRANCH   7  36
ATOM      1  F   UNL     1      -8.950  -8.109   6.798  0.00  0.00    -0.133 F 
ATOM      2  F   UNL     1      -7.692  -6.666   7.852  0.00  0.00    -0.133 F 
ATOM      3  F   UNL     1      -6.924  -8.685   7.380  0.00  0.00    -0.133 F 
ATOM     36  C   UNL     1      -8.008  -7.976   7.759  0.00  0.00    +0.575 C 
ENDBRANCH   7  36
ENDBRANCH  34   7
ENDBRANCH  12  20
BRANCH  16  23
ATOM      5  O   UNL     1      -3.569  -9.715   9.526  0.00  0.00    -0.249 OA
ATOM     23  C   UNL     1      -3.723 -10.892   9.822  0.00  0.00    +0.325 C 
BRANCH  23   4
ATOM      4  O   UNL     1      -4.443 -11.815   9.125  0.00  0.00    -0.467 OA
ATOM     35  C   UNL     1      -4.922 -11.383   7.846  0.00  0.00    +0.280 C 
ENDBRANCH  23   4
ENDBRANCH  16  23
BRANCH  14  10
ATOM     10  N   UNL     1      -4.655 -10.183  16.422  0.00  0.00    -0.311 NA
ATOM     38  H   UNL     1      -3.956  -9.459  16.595  0.00  0.00    +0.122 HD
BRANCH  10  24
ATOM     24  C   UNL     1      -5.972  -9.566  16.405  0.00  0.00    +0.109 C 
BRANCH  24  29
ATOM     29  C   UNL     1      -6.793 -10.018  17.602  0.00  0.00    +0.171 C 
BRANCH  29   6
ATOM      6  O   UNL     1      -7.852  -9.093  17.806  0.00  0.00    -0.394 OA
ATOM     39  H   UNL     1      -7.936  -8.571  16.989  0.00  0.00    +0.209 HD
ENDBRANCH  29   6
ENDBRANCH  24  29
ENDBRANCH  10  24
ENDBRANCH  14  10
TORSDOF 9
ENDMDL
MODEL 9
REMARK VINA RESULT:      -5.7     25.360     28.643
REMARK  Name = 25389753
REMARK  10 active torsions:
REMARK  status: ('A' for Active; 'I' for Inactive)
REMARK    1  A    between atoms: O_4  and  C_23
REMARK    2  A    between atoms: O_4  and  C_35
REMARK    3  A    between atoms: O_6  and  C_29
REMARK    4  A    between atoms: O_7  and  C_34
REMARK    5  A    between atoms: O_7  and  C_36
REMARK    6  A    between atoms: N_10  and  C_14
REMARK    7  A    between atoms: N_10  and  C_24
REMARK    8  A    between atoms: C_12  and  C_20
REMARK    9  A    between atoms: C_16  and  C_23
REMARK   10  A    between atoms: C_24  and  C_29
REMARK                            x       y       z     vdW  Elec       q    Type
REMARK                         _______ _______ _______ _____ _____    ______ ____
ROOT
ATOM      8  N   UNL     1      -7.493  -9.599  17.007  0.00  0.00    -0.274 NA
ATOM      9  N   UNL     1     -10.819  -9.758  18.807  0.00  0.00    -0.356 N 
ATOM     11  C   UNL     1      -8.720  -8.926  17.575  0.00  0.00    +0.106 C 
ATOM     12  C   UNL     1      -7.820 -10.459  15.828  0.00  0.00    +0.090 C 
ATOM     13  C   UNL     1      -9.551  -8.198  16.511  0.00  0.00    +0.044 C 
ATOM     14  C   UNL     1      -9.941  -9.124  15.364  0.00  0.00    +0.057 C 
ATOM     15  C   UNL     1      -8.670  -9.714  14.766  0.00  0.00    +0.042 C 
ATOM     16  C   UNL     1      -6.808 -10.300  18.144  0.00  0.00    +0.172 C 
ATOM     17  C   UNL     1      -9.517  -9.894  18.415  0.00  0.00    +0.038 A 
ATOM     18  C   UNL     1      -7.608 -11.476  18.755  0.00  0.00    +0.068 C 
ATOM     19  C   UNL     1      -9.021 -11.054  18.976  0.00  0.00    -0.016 A 
ATOM     21  C   UNL     1     -10.072 -11.668  19.707  0.00  0.00    +0.003 A 
ATOM     22  C   UNL     1     -11.189 -10.836  19.585  0.00  0.00    +0.047 A 
ATOM     27  C   UNL     1     -10.188 -12.850  20.466  0.00  0.00    +0.010 A 
ATOM     28  C   UNL     1     -12.417 -11.130  20.188  0.00  0.00    +0.026 A 
ATOM     30  C   UNL     1     -11.411 -13.156  21.072  0.00  0.00    +0.001 A 
ATOM     33  C   UNL     1     -12.508 -12.308  20.934  0.00  0.00    +0.002 A 
ATOM     37  H   UNL     1     -11.431  -8.991  18.563  0.00  0.00    +0.166 HD
ENDROOT
BRANCH  12  20
ATOM     20  C   UNL     1      -6.602 -11.013  15.092  0.00  0.00    -0.030 A 
ATOM     25  C   UNL     1      -5.786 -10.158  14.352  0.00  0.00    +0.009 A 
ATOM     26  C   UNL     1      -6.305 -12.374  15.160  0.00  0.00    +0.009 A 
ATOM     31  C   UNL     1      -4.672 -10.663  13.679  0.00  0.00    +0.046 A 
ATOM     32  C   UNL     1      -5.192 -12.880  14.489  0.00  0.00    +0.046 A 
ATOM     34  C   UNL     1      -4.376 -12.025  13.748  0.00  0.00    +0.130 A 
BRANCH  34   7
ATOM      7  O   UNL     1      -3.290 -12.518  13.094  0.00  0.00    -0.406 OA
BRANCH   7  36
ATOM      1  F   UNL     1      -1.151 -13.197  13.334  0.00  0.00    -0.133 F 
ATOM      2  F   UNL     1      -1.518 -11.079  12.938  0.00  0.00    -0.133 F 
ATOM      3  F   UNL     1      -2.016 -11.951  14.907  0.00  0.00    -0.133 F 
ATOM     36  C   UNL     1      -1.996 -12.169  13.575  0.00  0.00    +0.575 C 
ENDBRANCH   7  36
ENDBRANCH  34   7
ENDBRANCH  12  20
BRANCH  16  23
ATOM      5  O   UNL     1      -4.627  -9.982  17.187  0.00  0.00    -0.249 OA
ATOM     23  C   UNL     1      -5.418 -10.705  17.778  0.00  0.00    +0.325 C 
BRANCH  23   4
ATOM      4  O   UNL     1      -5.190 -11.981  18.199  0.00  0.00    -0.467 OA
ATOM     35  C   UNL     1      -4.074 -12.147  19.080  0.00  0.00    +0.280 C 
ENDBRANCH  23   4
ENDBRANCH  16  23
BRANCH  14  10
ATOM     10  N   UNL     1     -10.687  -8.395  14.339  0.00  0.00    -0.311 NA
ATOM     38  H   UNL     1     -10.660  -8.914  13.460  0.00  0.00    +0.122 HD
BRANCH  10  24
ATOM     24  C   UNL     1     -12.075  -8.221  14.736  0.00  0.00    +0.109 C 
BRANCH  24  29
ATOM     29  C   UNL     1     -12.536  -6.797  14.469  0.00  0.00    +0.171 C 
BRANCH  29   6
ATOM      6  O   UNL     1     -12.489  -6.065  15.686  0.00  0.00    -0.394 OA
ATOM     39  H   UNL     1     -11.854  -5.340  15.558  0.00  0.00    +0.209 HD
ENDBRANCH  29   6
ENDBRANCH  24  29
ENDBRANCH  10  24
ENDBRANCH  14  10
TORSDOF 9
ENDMDL
MODEL 10
REMARK VINA RESULT:      -5.5     31.561     34.066
REMARK  Name = 25389753
REMARK  10 active torsions:
REMARK  status: ('A' for Active; 'I' for Inactive)
REMARK    1  A    between atoms: O_4  and  C_23
REMARK    2  A    between atoms: O_4  and  C_35
REMARK    3  A    between atoms: O_6  and  C_29
REMARK    4  A    between atoms: O_7  and  C_34
REMARK    5  A    between atoms: O_7  and  C_36
REMARK    6  A    between atoms: N_10  and  C_14
REMARK    7  A    between atoms: N_10  and  C_24
REMARK    8  A    between atoms: C_12  and  C_20
REMARK    9  A    between atoms: C_16  and  C_23
REMARK   10  A    between atoms: C_24  and  C_29
REMARK                            x       y       z     vdW  Elec       q    Type
REMARK                         _______ _______ _______ _____ _____    ______ ____
ROOT
ATOM      8  N   UNL     1       6.895 -11.190  34.218  0.00  0.00    -0.274 NA
ATOM      9  N   UNL     1       5.253 -14.161  32.542  0.00  0.00    -0.356 N 
ATOM     11  C   UNL     1       6.273 -12.564  34.283  0.00  0.00    +0.106 C 
ATOM     12  C   UNL     1       5.892 -10.136  33.870  0.00  0.00    +0.090 C 
ATOM     13  C   UNL     1       5.019 -12.615  35.164  0.00  0.00    +0.044 C 
ATOM     14  C   UNL     1       3.979 -11.586  34.729  0.00  0.00    +0.057 C 
ATOM     15  C   UNL     1       4.624 -10.206  34.760  0.00  0.00    +0.042 C 
ATOM     16  C   UNL     1       8.077 -11.282  33.296  0.00  0.00    +0.172 C 
ATOM     17  C   UNL     1       6.068 -13.122  32.896  0.00  0.00    +0.038 A 
ATOM     18  C   UNL     1       7.723 -11.583  31.820  0.00  0.00    +0.068 C 
ATOM     19  C   UNL     1       6.733 -12.697  31.762  0.00  0.00    -0.016 A 
ATOM     21  C   UNL     1       6.279 -13.482  30.670  0.00  0.00    +0.003 A 
ATOM     22  C   UNL     1       5.350 -14.392  31.186  0.00  0.00    +0.047 A 
ATOM     27  C   UNL     1       6.564 -13.515  29.290  0.00  0.00    +0.010 A 
ATOM     28  C   UNL     1       4.695 -15.335  30.386  0.00  0.00    +0.026 A 
ATOM     30  C   UNL     1       5.914 -14.452  28.480  0.00  0.00    +0.001 A 
ATOM     33  C   UNL     1       4.993 -15.346  29.020  0.00  0.00    +0.002 A 
ATOM     37  H   UNL     1       4.658 -14.682  33.171  0.00  0.00    +0.166 HD
ENDROOT
BRANCH  12  20
ATOM     20  C   UNL     1       6.414  -8.706  33.977  0.00  0.00    -0.030 A 
ATOM     25  C   UNL     1       6.925  -8.239  35.188  0.00  0.00    +0.009 A 
ATOM     26  C   UNL     1       6.381  -7.865  32.864  0.00  0.00    +0.009 A 
ATOM     31  C   UNL     1       7.403  -6.931  35.286  0.00  0.00    +0.046 A 
ATOM     32  C   UNL     1       6.858  -6.559  32.961  0.00  0.00    +0.046 A 
ATOM     34  C   UNL     1       7.370  -6.092  34.173  0.00  0.00    +0.130 A 
BRANCH  34   7
ATOM      7  O   UNL     1       7.836  -4.817  34.267  0.00  0.00    -0.406 OA
BRANCH   7  36
ATOM      1  F   UNL     1       9.382  -3.618  33.143  0.00  0.00    -0.133 F 
ATOM      2  F   UNL     1       9.822  -4.179  35.208  0.00  0.00    -0.133 F 
ATOM      3  F   UNL     1       9.839  -5.704  33.608  0.00  0.00    -0.133 F 
ATOM     36  C   UNL     1       9.228  -4.592  34.068  0.00  0.00    +0.575 C 
ENDBRANCH   7  36
ENDBRANCH  34   7
ENDBRANCH  12  20
BRANCH  16  23
ATOM      5  O   UNL     1       9.510  -9.747  34.463  0.00  0.00    -0.249 OA
ATOM     23  C   UNL     1       8.962 -10.087  33.423  0.00  0.00    +0.325 C 
BRANCH  23   4
ATOM      4  O   UNL     1       9.052  -9.457  32.218  0.00  0.00    -0.467 OA
ATOM     35  C   UNL     1      10.148  -8.547  32.079  0.00  0.00    +0.280 C 
ENDBRANCH  23   4
ENDBRANCH  16  23
BRANCH  14  10
ATOM     10  N   UNL     1       2.816 -11.618  35.614  0.00  0.00    -0.311 NA
ATOM     38  H   UNL     1       2.782 -12.512  36.105  0.00  0.00    +0.122 HD
BRANCH  10  24
ATOM     24  C   UNL     1       2.885 -10.548  36.597  0.00  0.00    +0.109 C 
BRANCH  24  29
ATOM     29  C   UNL     1       1.628  -9.695  36.552  0.00  0.00    +0.171 C 
BRANCH  29   6
ATOM      6  O   UNL     1       1.840  -8.527  37.335  0.00  0.00    -0.394 OA
ATOM     39  H   UNL     1       1.886  -7.776  36.719  0.00  0.00    +0.209 HD
ENDBRANCH  29   6
ENDBRANCH  24  29
ENDBRANCH  10  24
ENDBRANCH  14  10
TORSDOF 9
ENDMDL
