MODEL 1
REMARK VINA RESULT:      -6.7      0.000      0.000
REMARK  Name = 26742991
REMARK  10 active torsions:
REMARK  status: ('A' for Active; 'I' for Inactive)
REMARK    1  A    between atoms: C_6  and  C_9
REMARK    2  A    between atoms: C_7  and  C_13
REMARK    3  A    between atoms: C_9  and  C_18
REMARK    4  A    between atoms: C_11  and  C_19
REMARK    5  A    between atoms: C_13  and  C_20
REMARK    6  A    between atoms: C_19  and  C_21
REMARK    7  A    between atoms: C_23  and  C_26
REMARK    8  A    between atoms: C_26  and  C_27
REMARK    9  A    between atoms: C_27  and  C_31
REMARK   10  A    between atoms: C_31  and  C_32
REMARK                            x       y       z     vdW  Elec       q    Type
REMARK                         _______ _______ _______ _____ _____    ______ ____
ROOT
ATOM      4  N   UNL     1      -5.773 -12.488  19.292  0.00  0.00    -0.316 NA
ATOM      6  C   UNL     1      -6.028 -11.447  16.543  0.00  0.00    +0.004 C 
ATOM      7  C   UNL     1      -4.675 -11.506  17.293  0.00  0.00    +0.012 C 
ATOM      8  C   UNL     1      -6.977 -12.503  17.135  0.00  0.00    +0.019 C 
ATOM     10  C   UNL     1      -4.868 -11.440  18.818  0.00  0.00    +0.085 C 
ATOM     12  C   UNL     1      -7.086 -12.402  18.656  0.00  0.00    +0.081 C 
ATOM     33  H   UNL     1      -5.882 -12.408  20.302  0.00  0.00    +0.122 HD
ENDROOT
BRANCH   6   9
ATOM      9  C   UNL     1      -6.684 -10.060  16.548  0.00  0.00    +0.100 C 
BRANCH   9  18
ATOM      1  O   UNL     1      -7.454 -10.317  14.322  0.00  0.00    -0.276 OA
ATOM      3  N   UNL     1      -9.002  -9.540  15.871  0.00  0.00    -0.301 N 
ATOM     11  C   UNL     1     -11.151  -7.630  16.255  0.00  0.00    -0.004 C 
ATOM     14  C   UNL     1      -9.979  -7.740  17.243  0.00  0.00    +0.023 C 
ATOM     15  C   UNL     1     -10.710  -8.084  14.856  0.00  0.00    +0.023 C 
ATOM     16  C   UNL     1      -9.374  -9.143  17.233  0.00  0.00    +0.108 C 
ATOM     17  C   UNL     1     -10.093  -9.480  14.897  0.00  0.00    +0.108 C 
ATOM     18  C   UNL     1      -7.742  -9.988  15.476  0.00  0.00    +0.216 C 
BRANCH  11  19
ATOM     19  C   UNL     1     -11.698  -6.205  16.218  0.00  0.00    +0.038 C 
BRANCH  19  21
ATOM     21  C   UNL     1     -12.943  -6.110  15.379  0.00  0.00    -0.047 A 
ATOM     24  C   UNL     1     -12.936  -5.359  14.204  0.00  0.00    +0.003 A 
ATOM     25  C   UNL     1     -14.103  -6.774  15.776  0.00  0.00    +0.003 A 
ATOM     28  C   UNL     1     -14.090  -5.271  13.425  0.00  0.00    +0.000 A 
ATOM     29  C   UNL     1     -15.258  -6.686  14.998  0.00  0.00    +0.000 A 
ATOM     30  C   UNL     1     -15.252  -5.935  13.823  0.00  0.00    +0.000 A 
ENDBRANCH  19  21
ENDBRANCH  11  19
ENDBRANCH   9  18
ENDBRANCH   6   9
BRANCH   7  13
ATOM     13  C   UNL     1      -3.687 -10.435  16.830  0.00  0.00    +0.064 C 
BRANCH  13  20
ATOM      2  O   UNL     1      -1.529 -11.617  14.202  0.00  0.00    -0.359 OA
ATOM      5  N   UNL     1      -1.831 -11.400  15.540  0.00  0.00    -0.083 NA
ATOM     20  C   UNL     1      -3.034 -10.818  15.533  0.00  0.00    +0.084 A 
ATOM     22  C   UNL     1      -3.534 -10.644  14.232  0.00  0.00    +0.071 A 
ATOM     23  C   UNL     1      -2.551 -11.163  13.432  0.00  0.00    +0.138 A 
BRANCH  23  26
ATOM     26  C   UNL     1      -2.395 -11.315  11.980  0.00  0.00    +0.077 C 
BRANCH  26  27
ATOM     27  C   UNL     1      -3.507 -10.605  11.175  0.00  0.00    +0.007 C 
BRANCH  27  31
ATOM     31  C   UNL     1      -2.985  -9.401  10.390  0.00  0.00    -0.003 C 
ATOM     32  C   UNL     1      -3.931  -9.018   9.263  0.00  0.00    +0.004 C 
ENDBRANCH  27  31
ENDBRANCH  26  27
ENDBRANCH  23  26
ENDBRANCH  13  20
ENDBRANCH   7  13
TORSDOF 9
ENDMDL
MODEL 2
REMARK VINA RESULT:      -6.6      3.982      5.558
REMARK  Name = 26742991
REMARK  10 active torsions:
REMARK  status: ('A' for Active; 'I' for Inactive)
REMARK    1  A    between atoms: C_6  and  C_9
REMARK    2  A    between atoms: C_7  and  C_13
REMARK    3  A    between atoms: C_9  and  C_18
REMARK    4  A    between atoms: C_11  and  C_19
REMARK    5  A    between atoms: C_13  and  C_20
REMARK    6  A    between atoms: C_19  and  C_21
REMARK    7  A    between atoms: C_23  and  C_26
REMARK    8  A    between atoms: C_26  and  C_27
REMARK    9  A    between atoms: C_27  and  C_31
REMARK   10  A    between atoms: C_31  and  C_32
REMARK                            x       y       z     vdW  Elec       q    Type
REMARK                         _______ _______ _______ _____ _____    ______ ____
ROOT
ATOM      4  N   UNL     1      -6.461 -11.334  19.930  0.00  0.00    -0.316 NA
ATOM      6  C   UNL     1      -6.112 -12.208  17.134  0.00  0.00    +0.004 C 
ATOM      7  C   UNL     1      -5.316 -11.031  17.747  0.00  0.00    +0.012 C 
ATOM      8  C   UNL     1      -6.560 -13.153  18.262  0.00  0.00    +0.019 C 
ATOM     10  C   UNL     1      -6.088 -10.364  18.900  0.00  0.00    +0.085 C 
ATOM     12  C   UNL     1      -7.282 -12.415  19.388  0.00  0.00    +0.081 C 
ATOM     33  H   UNL     1      -6.975 -10.858  20.671  0.00  0.00    +0.122 HD
ENDROOT
BRANCH   6   9
ATOM      9  C   UNL     1      -7.308 -11.775  16.278  0.00  0.00    +0.100 C 
BRANCH   9  18
ATOM      1  O   UNL     1      -6.909 -13.595  14.815  0.00  0.00    -0.276 OA
ATOM      3  N   UNL     1      -7.490 -11.577  13.822  0.00  0.00    -0.301 N 
ATOM     11  C   UNL     1      -6.889  -9.823  11.592  0.00  0.00    -0.004 C 
ATOM     14  C   UNL     1      -6.932  -9.307  13.039  0.00  0.00    +0.023 C 
ATOM     15  C   UNL     1      -6.526 -11.315  11.571  0.00  0.00    +0.023 C 
ATOM     16  C   UNL     1      -7.859 -10.159  13.905  0.00  0.00    +0.108 C 
ATOM     17  C   UNL     1      -7.462 -12.124  12.465  0.00  0.00    +0.108 C 
ATOM     18  C   UNL     1      -7.217 -12.405  14.911  0.00  0.00    +0.216 C 
BRANCH  11  19
ATOM     19  C   UNL     1      -5.903  -9.011  10.755  0.00  0.00    +0.038 C 
BRANCH  19  21
ATOM     21  C   UNL     1      -6.139  -9.198   9.281  0.00  0.00    -0.047 A 
ATOM     24  C   UNL     1      -5.153  -9.783   8.487  0.00  0.00    +0.003 A 
ATOM     25  C   UNL     1      -7.343  -8.788   8.711  0.00  0.00    +0.003 A 
ATOM     28  C   UNL     1      -5.372  -9.957   7.119  0.00  0.00    +0.000 A 
ATOM     29  C   UNL     1      -7.563  -8.962   7.345  0.00  0.00    +0.000 A 
ATOM     30  C   UNL     1      -6.578  -9.546   6.548  0.00  0.00    +0.000 A 
ENDBRANCH  19  21
ENDBRANCH  11  19
ENDBRANCH   9  18
ENDBRANCH   6   9
BRANCH   7  13
ATOM     13  C   UNL     1      -4.894  -9.990  16.711  0.00  0.00    +0.064 C 
BRANCH  13  20
ATOM      2  O   UNL     1      -1.903 -11.340  15.231  0.00  0.00    -0.359 OA
ATOM      5  N   UNL     1      -2.648 -10.908  16.321  0.00  0.00    -0.083 NA
ATOM     20  C   UNL     1      -3.820 -10.522  15.807  0.00  0.00    +0.084 A 
ATOM     22  C   UNL     1      -3.870 -10.686  14.412  0.00  0.00    +0.071 A 
ATOM     23  C   UNL     1      -2.641 -11.203  14.100  0.00  0.00    +0.138 A 
BRANCH  23  26
ATOM     26  C   UNL     1      -2.000 -11.616  12.846  0.00  0.00    +0.077 C 
BRANCH  26  27
ATOM     27  C   UNL     1      -2.825 -11.243  11.593  0.00  0.00    +0.007 C 
BRANCH  27  31
ATOM     31  C   UNL     1      -2.480  -9.854  11.056  0.00  0.00    -0.003 C 
ATOM     32  C   UNL     1      -1.060  -9.451  11.423  0.00  0.00    +0.004 C 
ENDBRANCH  27  31
ENDBRANCH  26  27
ENDBRANCH  23  26
ENDBRANCH  13  20
ENDBRANCH   7  13
TORSDOF 9
ENDMDL
MODEL 3
REMARK VINA RESULT:      -6.6      2.553      8.218
REMARK  Name = 26742991
REMARK  10 active torsions:
REMARK  status: ('A' for Active; 'I' for Inactive)
REMARK    1  A    between atoms: C_6  and  C_9
REMARK    2  A    between atoms: C_7  and  C_13
REMARK    3  A    between atoms: C_9  and  C_18
REMARK    4  A    between atoms: C_11  and  C_19
REMARK    5  A    between atoms: C_13  and  C_20
REMARK    6  A    between atoms: C_19  and  C_21
REMARK    7  A    between atoms: C_23  and  C_26
REMARK    8  A    between atoms: C_26  and  C_27
REMARK    9  A    between atoms: C_27  and  C_31
REMARK   10  A    between atoms: C_31  and  C_32
REMARK                            x       y       z     vdW  Elec       q    Type
REMARK                         _______ _______ _______ _____ _____    ______ ____
ROOT
ATOM      4  N   UNL     1      -5.815 -11.929  18.999  0.00  0.00    -0.316 NA
ATOM      6  C   UNL     1      -4.101 -10.941  16.810  0.00  0.00    +0.004 C 
ATOM      7  C   UNL     1      -5.545 -10.432  17.035  0.00  0.00    +0.012 C 
ATOM      8  C   UNL     1      -3.544 -11.477  18.139  0.00  0.00    +0.019 C 
ATOM     10  C   UNL     1      -6.415 -11.488  17.738  0.00  0.00    +0.085 C 
ATOM     12  C   UNL     1      -4.480 -12.489  18.798  0.00  0.00    +0.081 C 
ATOM     33  H   UNL     1      -6.414 -12.632  19.430  0.00  0.00    +0.122 HD
ENDROOT
BRANCH   6   9
ATOM      9  C   UNL     1      -3.976 -11.995  15.702  0.00  0.00    +0.100 C 
BRANCH   9  18
ATOM      1  O   UNL     1      -1.659 -11.602  15.402  0.00  0.00    -0.276 OA
ATOM      3  N   UNL     1      -2.969 -11.584  13.484  0.00  0.00    -0.301 N 
ATOM     11  C   UNL     1      -3.395 -10.201  10.970  0.00  0.00    -0.004 C 
ATOM     14  C   UNL     1      -4.548 -10.477  11.948  0.00  0.00    +0.023 C 
ATOM     15  C   UNL     1      -2.064 -10.109  11.731  0.00  0.00    +0.023 C 
ATOM     16  C   UNL     1      -4.265 -11.709  12.807  0.00  0.00    +0.108 C 
ATOM     17  C   UNL     1      -1.833 -11.348  12.592  0.00  0.00    +0.108 C 
ATOM     18  C   UNL     1      -2.760 -11.711  14.857  0.00  0.00    +0.216 C 
BRANCH  11  19
ATOM     19  C   UNL     1      -3.654  -8.926  10.171  0.00  0.00    +0.038 C 
BRANCH  19  21
ATOM     21  C   UNL     1      -4.821  -9.086   9.235  0.00  0.00    -0.047 A 
ATOM     24  C   UNL     1      -5.965  -8.308   9.407  0.00  0.00    +0.003 A 
ATOM     25  C   UNL     1      -4.756 -10.011   8.193  0.00  0.00    +0.003 A 
ATOM     28  C   UNL     1      -7.047  -8.456   8.538  0.00  0.00    +0.000 A 
ATOM     29  C   UNL     1      -5.837 -10.159   7.324  0.00  0.00    +0.000 A 
ATOM     30  C   UNL     1      -6.983  -9.382   7.496  0.00  0.00    +0.000 A 
ENDBRANCH  19  21
ENDBRANCH  11  19
ENDBRANCH   9  18
ENDBRANCH   6   9
BRANCH   7  13
ATOM     13  C   UNL     1      -6.217  -9.952  15.749  0.00  0.00    +0.064 C 
BRANCH  13  20
ATOM      2  O   UNL     1      -9.790  -9.525  15.645  0.00  0.00    -0.359 OA
ATOM      5  N   UNL     1      -8.596 -10.022  15.138  0.00  0.00    -0.083 NA
ATOM     20  C   UNL     1      -7.656  -9.595  15.986  0.00  0.00    +0.084 A 
ATOM     22  C   UNL     1      -8.193  -8.829  17.035  0.00  0.00    +0.071 A 
ATOM     23  C   UNL     1      -9.537  -8.815  16.774  0.00  0.00    +0.138 A 
BRANCH  23  26
ATOM     26  C   UNL     1     -10.697  -8.214  17.444  0.00  0.00    +0.077 C 
BRANCH  26  27
ATOM     27  C   UNL     1     -11.737  -9.260  17.907  0.00  0.00    +0.007 C 
BRANCH  27  31
ATOM     31  C   UNL     1     -11.245 -10.093  19.091  0.00  0.00    -0.003 C 
ATOM     32  C   UNL     1     -12.123  -9.892  20.316  0.00  0.00    +0.004 C 
ENDBRANCH  27  31
ENDBRANCH  26  27
ENDBRANCH  23  26
ENDBRANCH  13  20
ENDBRANCH   7  13
TORSDOF 9
ENDMDL
MODEL 4
REMARK VINA RESULT:      -6.6     25.570     28.572
REMARK  Name = 26742991
REMARK  10 active torsions:
REMARK  status: ('A' for Active; 'I' for Inactive)
REMARK    1  A    between atoms: C_6  and  C_9
REMARK    2  A    between atoms: C_7  and  C_13
REMARK    3  A    between atoms: C_9  and  C_18
REMARK    4  A    between atoms: C_11  and  C_19
REMARK    5  A    between atoms: C_13  and  C_20
REMARK    6  A    between atoms: C_19  and  C_21
REMARK    7  A    between atoms: C_23  and  C_26
REMARK    8  A    between atoms: C_26  and  C_27
REMARK    9  A    between atoms: C_27  and  C_31
REMARK   10  A    between atoms: C_31  and  C_32
REMARK                            x       y       z     vdW  Elec       q    Type
REMARK                         _______ _______ _______ _____ _____    ______ ____
ROOT
ATOM      4  N   UNL     1      16.534  10.456   4.386  0.00  0.00    -0.316 NA
ATOM      6  C   UNL     1      14.983   8.126   5.319  0.00  0.00    +0.004 C 
ATOM      7  C   UNL     1      14.649   8.883   4.011  0.00  0.00    +0.012 C 
ATOM      8  C   UNL     1      16.468   8.340   5.659  0.00  0.00    +0.019 C 
ATOM     10  C   UNL     1      15.109  10.350   4.071  0.00  0.00    +0.085 C 
ATOM     12  C   UNL     1      16.859   9.817   5.660  0.00  0.00    +0.081 C 
ATOM     33  H   UNL     1      16.799  11.439   4.425  0.00  0.00    +0.122 HD
ENDROOT
BRANCH   6   9
ATOM      9  C   UNL     1      14.092   8.510   6.507  0.00  0.00    +0.100 C 
BRANCH   9  18
ATOM      1  O   UNL     1      13.972   6.277   7.289  0.00  0.00    -0.276 OA
ATOM      3  N   UNL     1      11.957   7.416   7.096  0.00  0.00    -0.301 N 
ATOM     11  C   UNL     1       9.194   7.131   6.258  0.00  0.00    -0.004 C 
ATOM     14  C   UNL     1      10.078   8.284   5.757  0.00  0.00    +0.023 C 
ATOM     15  C   UNL     1      10.062   5.916   6.618  0.00  0.00    +0.023 C 
ATOM     16  C   UNL     1      11.181   8.616   6.761  0.00  0.00    +0.108 C 
ATOM     17  C   UNL     1      11.163   6.296   7.605  0.00  0.00    +0.108 C 
ATOM     18  C   UNL     1      13.343   7.298   7.001  0.00  0.00    +0.216 C 
BRANCH  11  19
ATOM     19  C   UNL     1       8.144   6.759   5.214  0.00  0.00    +0.038 C 
BRANCH  19  21
ATOM     21  C   UNL     1       8.275   7.599   3.972  0.00  0.00    -0.047 A 
ATOM     24  C   UNL     1       9.121   7.191   2.942  0.00  0.00    +0.003 A 
ATOM     25  C   UNL     1       7.548   8.783   3.852  0.00  0.00    +0.003 A 
ATOM     28  C   UNL     1       9.243   7.970   1.790  0.00  0.00    +0.000 A 
ATOM     29  C   UNL     1       7.669   9.561   2.701  0.00  0.00    +0.000 A 
ATOM     30  C   UNL     1       8.516   9.155   1.669  0.00  0.00    +0.000 A 
ENDBRANCH  19  21
ENDBRANCH  11  19
ENDBRANCH   9  18
ENDBRANCH   6   9
BRANCH   7  13
ATOM     13  C   UNL     1      13.171   8.798   3.631  0.00  0.00    +0.064 C 
BRANCH  13  20
ATOM      2  O   UNL     1      12.599   6.249   1.154  0.00  0.00    -0.359 OA
ATOM      5  N   UNL     1      12.916   7.548   1.531  0.00  0.00    -0.083 NA
ATOM     20  C   UNL     1      12.874   7.541   2.866  0.00  0.00    +0.084 A 
ATOM     22  C   UNL     1      12.539   6.277   3.382  0.00  0.00    +0.071 A 
ATOM     23  C   UNL     1      12.377   5.502   2.265  0.00  0.00    +0.138 A 
BRANCH  23  26
ATOM     26  C   UNL     1      12.028   4.092   2.047  0.00  0.00    +0.077 C 
BRANCH  26  27
ATOM     27  C   UNL     1      13.105   3.318   1.254  0.00  0.00    +0.007 C 
BRANCH  27  31
ATOM     31  C   UNL     1      14.515   3.553   1.796  0.00  0.00    -0.003 C 
ATOM     32  C   UNL     1      15.469   3.989   0.695  0.00  0.00    +0.004 C 
ENDBRANCH  27  31
ENDBRANCH  26  27
ENDBRANCH  23  26
ENDBRANCH  13  20
ENDBRANCH   7  13
TORSDOF 9
ENDMDL
MODEL 5
REMARK VINA RESULT:      -6.4     28.335     30.213
REMARK  Name = 26742991
REMARK  10 active torsions:
REMARK  status: ('A' for Active; 'I' for Inactive)
REMARK    1  A    between atoms: C_6  and  C_9
REMARK    2  A    between atoms: C_7  and  C_13
REMARK    3  A    between atoms: C_9  and  C_18
REMARK    4  A    between atoms: C_11  and  C_19
REMARK    5  A    between atoms: C_13  and  C_20
REMARK    6  A    between atoms: C_19  and  C_21
REMARK    7  A    between atoms: C_23  and  C_26
REMARK    8  A    between atoms: C_26  and  C_27
REMARK    9  A    between atoms: C_27  and  C_31
REMARK   10  A    between atoms: C_31  and  C_32
REMARK                            x       y       z     vdW  Elec       q    Type
REMARK                         _______ _______ _______ _____ _____    ______ ____
ROOT
ATOM      4  N   UNL     1       1.122  12.206  35.732  0.00  0.00    -0.316 NA
ATOM      6  C   UNL     1      -0.747  11.498  37.902  0.00  0.00    +0.004 C 
ATOM      7  C   UNL     1      -0.387  10.521  36.758  0.00  0.00    +0.012 C 
ATOM      8  C   UNL     1       0.393  12.516  38.072  0.00  0.00    +0.019 C 
ATOM     10  C   UNL     1       0.024  11.272  35.479  0.00  0.00    +0.085 C 
ATOM     12  C   UNL     1       0.774  13.190  36.755  0.00  0.00    +0.081 C 
ATOM     33  H   UNL     1       1.360  12.689  34.867  0.00  0.00    +0.122 HD
ENDROOT
BRANCH   6   9
ATOM      9  C   UNL     1      -2.092  12.212  37.713  0.00  0.00    +0.100 C 
BRANCH   9  18
ATOM      1  O   UNL     1      -2.688  11.643  39.934  0.00  0.00    -0.276 OA
ATOM      3  N   UNL     1      -4.367  11.480  38.337  0.00  0.00    -0.301 N 
ATOM     11  C   UNL     1      -6.591   9.838  37.458  0.00  0.00    -0.004 C 
ATOM     14  C   UNL     1      -5.492  10.299  36.488  0.00  0.00    +0.023 C 
ATOM     15  C   UNL     1      -6.036   9.753  38.887  0.00  0.00    +0.023 C 
ATOM     16  C   UNL     1      -4.849  11.604  36.957  0.00  0.00    +0.108 C 
ATOM     17  C   UNL     1      -5.384  11.069  39.306  0.00  0.00    +0.108 C 
ATOM     18  C   UNL     1      -3.069  11.755  38.767  0.00  0.00    +0.216 C 
BRANCH  11  19
ATOM     19  C   UNL     1      -7.173   8.496  37.020  0.00  0.00    +0.038 C 
BRANCH  19  21
ATOM     21  C   UNL     1      -8.643   8.602  36.716  0.00  0.00    -0.047 A 
ATOM     24  C   UNL     1      -9.092   9.504  35.752  0.00  0.00    +0.003 A 
ATOM     25  C   UNL     1      -9.555   7.796  37.397  0.00  0.00    +0.003 A 
ATOM     28  C   UNL     1     -10.455   9.602  35.470  0.00  0.00    +0.000 A 
ATOM     29  C   UNL     1     -10.918   7.893  37.114  0.00  0.00    +0.000 A 
ATOM     30  C   UNL     1     -11.368   8.796  36.151  0.00  0.00    +0.000 A 
ENDBRANCH  19  21
ENDBRANCH  11  19
ENDBRANCH   9  18
ENDBRANCH   6   9
BRANCH   7  13
ATOM     13  C   UNL     1      -1.499   9.516  36.456  0.00  0.00    +0.064 C 
BRANCH  13  20
ATOM      2  O   UNL     1      -0.724   6.589  38.403  0.00  0.00    -0.359 OA
ATOM      5  N   UNL     1      -0.438   7.514  37.408  0.00  0.00    -0.083 NA
ATOM     20  C   UNL     1      -1.469   8.363  37.417  0.00  0.00    +0.084 A 
ATOM     22  C   UNL     1      -2.428   8.025  38.388  0.00  0.00    +0.071 A 
ATOM     23  C   UNL     1      -1.912   6.903  38.980  0.00  0.00    +0.138 A 
BRANCH  23  26
ATOM     26  C   UNL     1      -2.370   6.021  40.060  0.00  0.00    +0.077 C 
BRANCH  26  27
ATOM     27  C   UNL     1      -1.291   5.014  40.518  0.00  0.00    +0.007 C 
BRANCH  27  31
ATOM     31  C   UNL     1      -0.635   5.416  41.838  0.00  0.00    -0.003 C 
ATOM     32  C   UNL     1      -1.407   4.875  43.031  0.00  0.00    +0.004 C 
ENDBRANCH  27  31
ENDBRANCH  26  27
ENDBRANCH  23  26
ENDBRANCH  13  20
ENDBRANCH   7  13
TORSDOF 9
ENDMDL
MODEL 6
REMARK VINA RESULT:      -6.3     29.189     31.970
REMARK  Name = 26742991
REMARK  10 active torsions:
REMARK  status: ('A' for Active; 'I' for Inactive)
REMARK    1  A    between atoms: C_6  and  C_9
REMARK    2  A    between atoms: C_7  and  C_13
REMARK    3  A    between atoms: C_9  and  C_18
REMARK    4  A    between atoms: C_11  and  C_19
REMARK    5  A    between atoms: C_13  and  C_20
REMARK    6  A    between atoms: C_19  and  C_21
REMARK    7  A    between atoms: C_23  and  C_26
REMARK    8  A    between atoms: C_26  and  C_27
REMARK    9  A    between atoms: C_27  and  C_31
REMARK   10  A    between atoms: C_31  and  C_32
REMARK                            x       y       z     vdW  Elec       q    Type
REMARK                         _______ _______ _______ _____ _____    ______ ____
ROOT
ATOM      4  N   UNL     1      22.482   7.816  23.402  0.00  0.00    -0.316 NA
ATOM      6  C   UNL     1      20.346   6.301  22.043  0.00  0.00    +0.004 C 
ATOM      7  C   UNL     1      21.849   6.008  21.821  0.00  0.00    +0.012 C 
ATOM      8  C   UNL     1      20.162   6.971  23.416  0.00  0.00    +0.019 C 
ATOM     10  C   UNL     1      22.713   7.256  22.069  0.00  0.00    +0.085 C 
ATOM     12  C   UNL     1      21.081   8.177  23.605  0.00  0.00    +0.081 C 
ATOM     33  H   UNL     1      23.065   8.644  23.525  0.00  0.00    +0.122 HD
ENDROOT
BRANCH   6   9
ATOM      9  C   UNL     1      19.704   7.146  20.935  0.00  0.00    +0.100 C 
BRANCH   9  18
ATOM      1  O   UNL     1      18.667   5.369  19.759  0.00  0.00    -0.276 OA
ATOM      3  N   UNL     1      17.262   7.027  20.581  0.00  0.00    -0.301 N 
ATOM     11  C   UNL     1      14.938   8.638  19.935  0.00  0.00    -0.004 C 
ATOM     14  C   UNL     1      16.244   9.268  20.444  0.00  0.00    +0.023 C 
ATOM     15  C   UNL     1      15.233   7.315  19.214  0.00  0.00    +0.023 C 
ATOM     16  C   UNL     1      17.037   8.285  21.303  0.00  0.00    +0.108 C 
ATOM     17  C   UNL     1      16.046   6.372  20.099  0.00  0.00    +0.108 C 
ATOM     18  C   UNL     1      18.504   6.428  20.371  0.00  0.00    +0.216 C 
BRANCH  11  19
ATOM     19  C   UNL     1      14.191   9.603  19.017  0.00  0.00    +0.038 C 
BRANCH  19  21
ATOM     21  C   UNL     1      13.341  10.567  19.799  0.00  0.00    -0.047 A 
ATOM     24  C   UNL     1      12.515  10.098  20.820  0.00  0.00    +0.003 A 
ATOM     25  C   UNL     1      13.381  11.929  19.502  0.00  0.00    +0.003 A 
ATOM     28  C   UNL     1      11.727  10.993  21.545  0.00  0.00    +0.000 A 
ATOM     29  C   UNL     1      12.593  12.824  20.227  0.00  0.00    +0.000 A 
ATOM     30  C   UNL     1      11.766  12.356  21.249  0.00  0.00    +0.000 A 
ENDBRANCH  19  21
ENDBRANCH  11  19
ENDBRANCH   9  18
ENDBRANCH   6   9
BRANCH   7  13
ATOM     13  C   UNL     1      22.146   5.414  20.445  0.00  0.00    +0.064 C 
BRANCH  13  20
ATOM      2  O   UNL     1      24.794   2.983  20.242  0.00  0.00    -0.359 OA
ATOM      5  N   UNL     1      24.236   4.220  19.947  0.00  0.00    -0.083 NA
ATOM     20  C   UNL     1      23.043   4.214  20.549  0.00  0.00    +0.084 A 
ATOM     22  C   UNL     1      22.796   3.010  21.231  0.00  0.00    +0.071 A 
ATOM     23  C   UNL     1      23.927   2.271  21.007  0.00  0.00    +0.138 A 
BRANCH  23  26
ATOM     26  C   UNL     1      24.362   0.929  21.412  0.00  0.00    +0.077 C 
BRANCH  26  27
ATOM     27  C   UNL     1      25.539   0.950  22.414  0.00  0.00    +0.007 C 
BRANCH  27  31
ATOM     31  C   UNL     1      25.206   0.243  23.727  0.00  0.00    -0.003 C 
ATOM     32  C   UNL     1      23.848   0.671  24.262  0.00  0.00    +0.004 C 
ENDBRANCH  27  31
ENDBRANCH  26  27
ENDBRANCH  23  26
ENDBRANCH  13  20
ENDBRANCH   7  13
TORSDOF 9
ENDMDL
MODEL 7
REMARK VINA RESULT:      -6.2      1.909      8.531
REMARK  Name = 26742991
REMARK  10 active torsions:
REMARK  status: ('A' for Active; 'I' for Inactive)
REMARK    1  A    between atoms: C_6  and  C_9
REMARK    2  A    between atoms: C_7  and  C_13
REMARK    3  A    between atoms: C_9  and  C_18
REMARK    4  A    between atoms: C_11  and  C_19
REMARK    5  A    between atoms: C_13  and  C_20
REMARK    6  A    between atoms: C_19  and  C_21
REMARK    7  A    between atoms: C_23  and  C_26
REMARK    8  A    between atoms: C_26  and  C_27
REMARK    9  A    between atoms: C_27  and  C_31
REMARK   10  A    between atoms: C_31  and  C_32
REMARK                            x       y       z     vdW  Elec       q    Type
REMARK                         _______ _______ _______ _____ _____    ______ ____
ROOT
ATOM      4  N   UNL     1      -8.203 -11.186  19.715  0.00  0.00    -0.316 NA
ATOM      6  C   UNL     1      -6.171 -10.256  17.788  0.00  0.00    +0.004 C 
ATOM      7  C   UNL     1      -7.653  -9.813  17.720  0.00  0.00    +0.012 C 
ATOM      8  C   UNL     1      -5.836 -10.669  19.231  0.00  0.00    +0.019 C 
ATOM     10  C   UNL     1      -8.588 -10.865  18.340  0.00  0.00    +0.085 C 
ATOM     12  C   UNL     1      -6.831 -11.684  19.793  0.00  0.00    +0.081 C 
ATOM     33  H   UNL     1      -8.839 -11.889  20.088  0.00  0.00    +0.122 HD
ENDROOT
BRANCH   6   9
ATOM      9  C   UNL     1      -5.808 -11.374  16.802  0.00  0.00    +0.100 C 
BRANCH   9  18
ATOM      1  O   UNL     1      -3.541 -11.116  17.438  0.00  0.00    -0.276 OA
ATOM      3  N   UNL     1      -3.941 -11.587  15.198  0.00  0.00    -0.301 N 
ATOM     11  C   UNL     1      -3.125 -10.916  12.497  0.00  0.00    -0.004 C 
ATOM     14  C   UNL     1      -4.601 -10.901  12.924  0.00  0.00    +0.023 C 
ATOM     15  C   UNL     1      -2.219 -10.648  13.709  0.00  0.00    +0.023 C 
ATOM     16  C   UNL     1      -4.854 -11.865  14.083  0.00  0.00    +0.108 C 
ATOM     17  C   UNL     1      -2.521 -11.617  14.849  0.00  0.00    +0.108 C 
ATOM     18  C   UNL     1      -4.328 -11.348  16.517  0.00  0.00    +0.216 C 
BRANCH  11  19
ATOM     19  C   UNL     1      -2.869  -9.896  11.391  0.00  0.00    +0.038 C 
BRANCH  19  21
ATOM     21  C   UNL     1      -3.621 -10.240  10.134  0.00  0.00    -0.047 A 
ATOM     24  C   UNL     1      -4.172  -9.226   9.352  0.00  0.00    +0.003 A 
ATOM     25  C   UNL     1      -3.767 -11.574   9.752  0.00  0.00    +0.003 A 
ATOM     28  C   UNL     1      -4.869  -9.545   8.186  0.00  0.00    +0.000 A 
ATOM     29  C   UNL     1      -4.463 -11.893   8.587  0.00  0.00    +0.000 A 
ATOM     30  C   UNL     1      -5.015 -10.880   7.803  0.00  0.00    +0.000 A 
ENDBRANCH  19  21
ENDBRANCH  11  19
ENDBRANCH   9  18
ENDBRANCH   6   9
BRANCH   7  13
ATOM     13  C   UNL     1      -8.107  -9.459  16.304  0.00  0.00    +0.064 C 
BRANCH  13  20
ATOM      2  O   UNL     1     -10.770  -7.167  17.089  0.00  0.00    -0.359 OA
ATOM      5  N   UNL     1      -9.595  -7.840  17.400  0.00  0.00    -0.083 NA
ATOM     20  C   UNL     1      -9.328  -8.585  16.324  0.00  0.00    +0.084 A 
ATOM     22  C   UNL     1     -10.290  -8.425  15.313  0.00  0.00    +0.071 A 
ATOM     23  C   UNL     1     -11.174  -7.524  15.843  0.00  0.00    +0.138 A 
BRANCH  23  26
ATOM     26  C   UNL     1     -12.410  -6.901  15.352  0.00  0.00    +0.077 C 
BRANCH  26  27
ATOM     27  C   UNL     1     -12.328  -6.486  13.865  0.00  0.00    +0.007 C 
BRANCH  27  31
ATOM     31  C   UNL     1     -13.163  -5.243  13.556  0.00  0.00    -0.003 C 
ATOM     32  C   UNL     1     -12.329  -4.166  12.880  0.00  0.00    +0.004 C 
ENDBRANCH  27  31
ENDBRANCH  26  27
ENDBRANCH  23  26
ENDBRANCH  13  20
ENDBRANCH   7  13
TORSDOF 9
ENDMDL
MODEL 8
REMARK VINA RESULT:      -6.1     17.676     20.513
REMARK  Name = 26742991
REMARK  10 active torsions:
REMARK  status: ('A' for Active; 'I' for Inactive)
REMARK    1  A    between atoms: C_6  and  C_9
REMARK    2  A    between atoms: C_7  and  C_13
REMARK    3  A    between atoms: C_9  and  C_18
REMARK    4  A    between atoms: C_11  and  C_19
REMARK    5  A    between atoms: C_13  and  C_20
REMARK    6  A    between atoms: C_19  and  C_21
REMARK    7  A    between atoms: C_23  and  C_26
REMARK    8  A    between atoms: C_26  and  C_27
REMARK    9  A    between atoms: C_27  and  C_31
REMARK   10  A    between atoms: C_31  and  C_32
REMARK                            x       y       z     vdW  Elec       q    Type
REMARK                         _______ _______ _______ _____ _____    ______ ____
ROOT
ATOM      4  N   UNL     1     -18.621   6.652  14.140  0.00  0.00    -0.316 NA
ATOM      6  C   UNL     1     -15.692   6.482  14.453  0.00  0.00    +0.004 C 
ATOM      7  C   UNL     1     -16.593   7.273  15.431  0.00  0.00    +0.012 C 
ATOM      8  C   UNL     1     -16.531   5.389  13.770  0.00  0.00    +0.019 C 
ATOM     10  C   UNL     1     -17.883   7.759  14.748  0.00  0.00    +0.085 C 
ATOM     12  C   UNL     1     -17.815   5.939  13.151  0.00  0.00    +0.081 C 
ATOM     33  H   UNL     1     -19.462   7.013  13.692  0.00  0.00    +0.122 HD
ENDROOT
BRANCH   6   9
ATOM      9  C   UNL     1     -14.985   7.357  13.410  0.00  0.00    +0.100 C 
BRANCH   9  18
ATOM      1  O   UNL     1     -13.202   5.862  12.963  0.00  0.00    -0.276 OA
ATOM      3  N   UNL     1     -12.614   7.980  13.716  0.00  0.00    -0.301 N 
ATOM     11  C   UNL     1     -10.806   9.402  15.483  0.00  0.00    -0.004 C 
ATOM     14  C   UNL     1     -12.324   9.635  15.520  0.00  0.00    +0.023 C 
ATOM     15  C   UNL     1     -10.499   7.984  14.979  0.00  0.00    +0.023 C 
ATOM     16  C   UNL     1     -12.966   9.331  14.167  0.00  0.00    +0.108 C 
ATOM     17  C   UNL     1     -11.177   7.716  13.637  0.00  0.00    +0.108 C 
ATOM     18  C   UNL     1     -13.524   6.992  13.339  0.00  0.00    +0.216 C 
BRANCH  11  19
ATOM     19  C   UNL     1     -10.187   9.636  16.859  0.00  0.00    +0.038 C 
BRANCH  19  21
ATOM     21  C   UNL     1     -10.245  11.086  17.254  0.00  0.00    -0.047 A 
ATOM     24  C   UNL     1     -11.155  11.509  18.222  0.00  0.00    +0.003 A 
ATOM     25  C   UNL     1      -9.387  12.007  16.653  0.00  0.00    +0.003 A 
ATOM     28  C   UNL     1     -11.209  12.854  18.589  0.00  0.00    +0.000 A 
ATOM     29  C   UNL     1      -9.440  13.352  17.019  0.00  0.00    +0.000 A 
ATOM     30  C   UNL     1     -10.350  13.776  17.987  0.00  0.00    +0.000 A 
ENDBRANCH  19  21
ENDBRANCH  11  19
ENDBRANCH   9  18
ENDBRANCH   6   9
BRANCH   7  13
ATOM     13  C   UNL     1     -15.868   8.440  16.102  0.00  0.00    +0.064 C 
BRANCH  13  20
ATOM      2  O   UNL     1     -15.760   7.276  19.507  0.00  0.00    -0.359 OA
ATOM      5  N   UNL     1     -16.360   7.368  18.258  0.00  0.00    -0.083 NA
ATOM     20  C   UNL     1     -15.534   8.127  17.532  0.00  0.00    +0.084 A 
ATOM     22  C   UNL     1     -14.408   8.540  18.265  0.00  0.00    +0.071 A 
ATOM     23  C   UNL     1     -14.598   7.979  19.499  0.00  0.00    +0.138 A 
BRANCH  23  26
ATOM     26  C   UNL     1     -13.830   7.989  20.750  0.00  0.00    +0.077 C 
BRANCH  26  27
ATOM     27  C   UNL     1     -12.991   6.706  20.956  0.00  0.00    +0.007 C 
BRANCH  27  31
ATOM     31  C   UNL     1     -11.582   6.828  20.378  0.00  0.00    -0.003 C 
ATOM     32  C   UNL     1     -11.192   8.283  20.162  0.00  0.00    +0.004 C 
ENDBRANCH  27  31
ENDBRANCH  26  27
ENDBRANCH  23  26
ENDBRANCH  13  20
ENDBRANCH   7  13
TORSDOF 9
ENDMDL
MODEL 9
REMARK VINA RESULT:      -6.1     28.531     31.240
REMARK  Name = 26742991
REMARK  10 active torsions:
REMARK  status: ('A' for Active; 'I' for Inactive)
REMARK    1  A    between atoms: C_6  and  C_9
REMARK    2  A    between atoms: C_7  and  C_13
REMARK    3  A    between atoms: C_9  and  C_18
REMARK    4  A    between atoms: C_11  and  C_19
REMARK    5  A    between atoms: C_13  and  C_20
REMARK    6  A    between atoms: C_19  and  C_21
REMARK    7  A    between atoms: C_23  and  C_26
REMARK    8  A    between atoms: C_26  and  C_27
REMARK    9  A    between atoms: C_27  and  C_31
REMARK   10  A    between atoms: C_31  and  C_32
REMARK                            x       y       z     vdW  Elec       q    Type
REMARK                         _______ _______ _______ _____ _____    ______ ____
ROOT
ATOM      4  N   UNL     1      21.074   5.236  22.382  0.00  0.00    -0.316 NA
ATOM      6  C   UNL     1      19.168   7.454  21.991  0.00  0.00    +0.004 C 
ATOM      7  C   UNL     1      19.069   6.120  21.213  0.00  0.00    +0.012 C 
ATOM      8  C   UNL     1      19.918   7.211  23.312  0.00  0.00    +0.019 C 
ATOM     10  C   UNL     1      20.442   5.439  21.078  0.00  0.00    +0.085 C 
ATOM     12  C   UNL     1      21.251   6.495  23.102  0.00  0.00    +0.081 C 
ATOM     33  H   UNL     1      21.981   4.791  22.251  0.00  0.00    +0.122 HD
ENDROOT
BRANCH   6   9
ATOM      9  C   UNL     1      19.818   8.593  21.196  0.00  0.00    +0.100 C 
BRANCH   9  18
ATOM      1  O   UNL     1      20.518  10.322  22.657  0.00  0.00    -0.276 OA
ATOM      3  N   UNL     1      18.413  10.560  21.703  0.00  0.00    -0.301 N 
ATOM     11  C   UNL     1      15.684  11.372  22.260  0.00  0.00    -0.004 C 
ATOM     14  C   UNL     1      16.009  10.025  21.596  0.00  0.00    +0.023 C 
ATOM     15  C   UNL     1      16.861  11.830  23.134  0.00  0.00    +0.023 C 
ATOM     16  C   UNL     1      17.331  10.086  20.833  0.00  0.00    +0.108 C 
ATOM     17  C   UNL     1      18.164  11.855  22.338  0.00  0.00    +0.108 C 
ATOM     18  C   UNL     1      19.623   9.901  21.920  0.00  0.00    +0.216 C 
BRANCH  11  19
ATOM     19  C   UNL     1      14.401  11.278  23.081  0.00  0.00    +0.038 C 
BRANCH  19  21
ATOM     21  C   UNL     1      13.265  12.012  22.423  0.00  0.00    -0.047 A 
ATOM     24  C   UNL     1      13.507  12.812  21.307  0.00  0.00    +0.003 A 
ATOM     25  C   UNL     1      11.971  11.893  22.930  0.00  0.00    +0.003 A 
ATOM     28  C   UNL     1      12.453  13.494  20.696  0.00  0.00    +0.000 A 
ATOM     29  C   UNL     1      10.918  12.574  22.319  0.00  0.00    +0.000 A 
ATOM     30  C   UNL     1      11.158  13.374  21.203  0.00  0.00    +0.000 A 
ENDBRANCH  19  21
ENDBRANCH  11  19
ENDBRANCH   9  18
ENDBRANCH   6   9
BRANCH   7  13
ATOM     13  C   UNL     1      18.408   6.273  19.843  0.00  0.00    +0.064 C 
BRANCH  13  20
ATOM      2  O   UNL     1      14.857   6.585  19.342  0.00  0.00    -0.359 OA
ATOM      5  N   UNL     1      16.153   6.408  18.876  0.00  0.00    -0.083 NA
ATOM     20  C   UNL     1      16.921   6.438  19.969  0.00  0.00    +0.084 A 
ATOM     22  C   UNL     1      16.172   6.631  21.142  0.00  0.00    +0.071 A 
ATOM     23  C   UNL     1      14.880   6.717  20.693  0.00  0.00    +0.138 A 
BRANCH  23  26
ATOM     26  C   UNL     1      13.585   6.914  21.355  0.00  0.00    +0.077 C 
BRANCH  26  27
ATOM     27  C   UNL     1      12.482   7.409  20.392  0.00  0.00    +0.007 C 
BRANCH  27  31
ATOM     31  C   UNL     1      12.203   8.905  20.539  0.00  0.00    -0.003 C 
ATOM     32  C   UNL     1      12.898   9.711  19.452  0.00  0.00    +0.004 C 
ENDBRANCH  27  31
ENDBRANCH  26  27
ENDBRANCH  23  26
ENDBRANCH  13  20
ENDBRANCH   7  13
TORSDOF 9
ENDMDL
MODEL 10
REMARK VINA RESULT:      -6.0      4.714     10.923
REMARK  Name = 26742991
REMARK  10 active torsions:
REMARK  status: ('A' for Active; 'I' for Inactive)
REMARK    1  A    between atoms: C_6  and  C_9
REMARK    2  A    between atoms: C_7  and  C_13
REMARK    3  A    between atoms: C_9  and  C_18
REMARK    4  A    between atoms: C_11  and  C_19
REMARK    5  A    between atoms: C_13  and  C_20
REMARK    6  A    between atoms: C_19  and  C_21
REMARK    7  A    between atoms: C_23  and  C_26
REMARK    8  A    between atoms: C_26  and  C_27
REMARK    9  A    between atoms: C_27  and  C_31
REMARK   10  A    between atoms: C_31  and  C_32
REMARK                            x       y       z     vdW  Elec       q    Type
REMARK                         _______ _______ _______ _____ _____    ______ ____
ROOT
ATOM      4  N   UNL     1      -9.324  -9.101   4.979  0.00  0.00    -0.316 NA
ATOM      6  C   UNL     1      -7.663  -9.524   7.380  0.00  0.00    +0.004 C 
ATOM      7  C   UNL     1      -8.601  -8.305   7.217  0.00  0.00    +0.012 C 
ATOM      8  C   UNL     1      -8.176 -10.675   6.497  0.00  0.00    +0.019 C 
ATOM     10  C   UNL     1      -8.823  -7.953   5.736  0.00  0.00    +0.085 C 
ATOM     12  C   UNL     1      -8.412 -10.240   5.051  0.00  0.00    +0.081 C 
ATOM     33  H   UNL     1      -9.450  -8.832   4.003  0.00  0.00    +0.122 HD
ENDROOT
BRANCH   6   9
ATOM      9  C   UNL     1      -6.189  -9.222   7.079  0.00  0.00    +0.100 C 
BRANCH   9  18
ATOM      1  O   UNL     1      -5.130 -11.341   7.022  0.00  0.00    -0.276 OA
ATOM      3  N   UNL     1      -4.762 -10.049   8.918  0.00  0.00    -0.301 N 
ATOM     11  C   UNL     1      -4.550 -10.167  11.808  0.00  0.00    -0.004 C 
ATOM     14  C   UNL     1      -5.471  -9.158  11.104  0.00  0.00    +0.023 C 
ATOM     15  C   UNL     1      -4.356 -11.412  10.930  0.00  0.00    +0.023 C 
ATOM     16  C   UNL     1      -4.962  -8.825   9.702  0.00  0.00    +0.108 C 
ATOM     17  C   UNL     1      -3.869 -11.032   9.534  0.00  0.00    +0.108 C 
ATOM     18  C   UNL     1      -5.314 -10.302   7.662  0.00  0.00    +0.216 C 
BRANCH  11  19
ATOM     19  C   UNL     1      -5.109 -10.549  13.177  0.00  0.00    +0.038 C 
BRANCH  19  21
ATOM     21  C   UNL     1      -4.032 -10.585  14.226  0.00  0.00    -0.047 A 
ATOM     24  C   UNL     1      -2.692 -10.491  13.853  0.00  0.00    +0.003 A 
ATOM     25  C   UNL     1      -4.375 -10.711  15.572  0.00  0.00    +0.003 A 
ATOM     28  C   UNL     1      -1.693 -10.524  14.826  0.00  0.00    +0.000 A 
ATOM     29  C   UNL     1      -3.376 -10.744  16.546  0.00  0.00    +0.000 A 
ATOM     30  C   UNL     1      -2.035 -10.650  16.174  0.00  0.00    +0.000 A 
ENDBRANCH  19  21
ENDBRANCH  11  19
ENDBRANCH   9  18
ENDBRANCH   6   9
BRANCH   7  13
ATOM     13  C   UNL     1      -8.128  -7.077   7.996  0.00  0.00    +0.064 C 
BRANCH  13  20
ATOM      2  O   UNL     1     -11.163  -6.001   9.606  0.00  0.00    -0.359 OA
ATOM      5  N   UNL     1     -10.276  -6.984   9.187  0.00  0.00    -0.083 NA
ATOM     20  C   UNL     1      -9.286  -6.322   8.582  0.00  0.00    +0.084 A 
ATOM     22  C   UNL     1      -9.493  -4.932   8.588  0.00  0.00    +0.071 A 
ATOM     23  C   UNL     1     -10.686  -4.783   9.243  0.00  0.00    +0.138 A 
BRANCH  23  26
ATOM     26  C   UNL     1     -11.507  -3.622   9.611  0.00  0.00    +0.077 C 
BRANCH  26  27
ATOM     27  C   UNL     1     -12.868  -4.015  10.230  0.00  0.00    +0.007 C 
BRANCH  27  31
ATOM     31  C   UNL     1     -12.900  -3.824  11.746  0.00  0.00    -0.003 C 
ATOM     32  C   UNL     1     -14.218  -3.219  12.204  0.00  0.00    +0.004 C 
ENDBRANCH  27  31
ENDBRANCH  26  27
ENDBRANCH  23  26
ENDBRANCH  13  20
ENDBRANCH   7  13
TORSDOF 9
ENDMDL
