MODEL 1
REMARK VINA RESULT:      -7.7      0.000      0.000
REMARK  Name = 11912971
REMARK  5 active torsions:
REMARK  status: ('A' for Active; 'I' for Inactive)
REMARK    1  A    between atoms: N_8  and  C_14
REMARK    2  A    between atoms: N_9  and  C_15
REMARK    3  A    between atoms: C_18  and  C_20
REMARK    4  A    between atoms: C_23  and  C_29
REMARK    5  A    between atoms: C_28  and  C_30
REMARK                            x       y       z     vdW  Elec       q    Type
REMARK                         _______ _______ _______ _____ _____    ______ ____
ROOT
ATOM      4  O   UNL     1     -16.442   2.457  24.220  0.00  0.00    -0.370 OA
ATOM      5  O   UNL     1     -18.904   4.308  24.577  0.00  0.00    -0.370 OA
ATOM     12  C   UNL     1     -17.557   4.553  24.137  0.00  0.00    +0.171 C 
ATOM     13  C   UNL     1     -16.646   3.669  24.967  0.00  0.00    +0.171 C 
ATOM     14  C   UNL     1     -17.367   4.055  22.722  0.00  0.00    +0.130 C 
ATOM     15  C   UNL     1     -17.449   3.384  26.215  0.00  0.00    +0.130 C 
ATOM     16  C   UNL     1     -17.090   2.577  22.944  0.00  0.00    +0.185 C 
ATOM     17  C   UNL     1     -18.878   3.419  25.705  0.00  0.00    +0.185 C 
ENDROOT
BRANCH  15   9
ATOM      9  N   UNL     1     -17.238   4.431  27.190  0.00  0.00    -0.306 N 
ATOM     10  N   UNL     1     -16.133   2.981  28.669  0.00  0.00    -0.211 NA
ATOM     11  N   UNL     1     -16.457   5.304  29.223  0.00  0.00    -0.223 NA
ATOM     19  C   UNL     1     -16.590   4.233  28.397  0.00  0.00    +0.216 A 
ATOM     23  C   UNL     1     -15.506   2.824  29.854  0.00  0.00    +0.111 A 
ATOM     24  C   UNL     1     -15.820   5.076  30.390  0.00  0.00    +0.116 A 
ATOM     25  C   UNL     1     -15.319   3.846  30.762  0.00  0.00    +0.051 A 
ATOM     35  H   UNL     1     -17.527   5.378  26.976  0.00  0.00    +0.149 HD
BRANCH  23  29
ATOM      7  O   UNL     1     -13.706   1.299  29.919  0.00  0.00    -0.461 OA
ATOM     29  C   UNL     1     -15.035   1.491  30.114  0.00  0.00    +0.153 A 
ATOM     31  C   UNL     1     -15.641   0.329  30.527  0.00  0.00    +0.051 A 
ATOM     32  C   UNL     1     -14.615  -0.644  30.591  0.00  0.00    +0.042 A 
ATOM     33  C   UNL     1     -13.457  -0.005  30.213  0.00  0.00    +0.196 A 
ENDBRANCH  23  29
ENDBRANCH  15   9
BRANCH  14   8
ATOM      6  O   UNL     1     -17.205   6.732  21.661  0.00  0.00    -0.270 OA
ATOM      8  N   UNL     1     -16.202   4.688  22.106  0.00  0.00    -0.304 N 
ATOM     18  C   UNL     1     -16.227   5.989  21.624  0.00  0.00    +0.244 C 
ATOM     34  H   UNL     1     -15.396   4.096  21.939  0.00  0.00    +0.149 HD
BRANCH  18  20
ATOM     20  C   UNL     1     -14.968   6.477  21.002  0.00  0.00    +0.037 A 
ATOM     21  C   UNL     1     -13.763   6.121  21.571  0.00  0.00    +0.013 A 
ATOM     22  C   UNL     1     -15.045   7.269  19.875  0.00  0.00    +0.013 A 
ATOM     26  C   UNL     1     -12.582   6.578  20.987  0.00  0.00    +0.013 A 
ATOM     27  C   UNL     1     -13.864   7.725  19.291  0.00  0.00    +0.013 A 
ATOM     28  C   UNL     1     -12.633   7.380  19.846  0.00  0.00    +0.055 A 
BRANCH  28  30
ATOM      1  F   UNL     1     -11.516   9.046  18.543  0.00  0.00    -0.166 F 
ATOM      2  F   UNL     1     -10.832   7.000  18.317  0.00  0.00    -0.166 F 
ATOM      3  F   UNL     1     -10.385   8.099  20.140  0.00  0.00    -0.166 F 
ATOM     30  C   UNL     1     -11.369   7.870  19.223  0.00  0.00    +0.417 C 
ENDBRANCH  28  30
ENDBRANCH  18  20
ENDBRANCH  14   8
TORSDOF 5
ENDMDL
MODEL 2
REMARK VINA RESULT:      -7.6     20.879     24.096
REMARK  Name = 11912971
REMARK  5 active torsions:
REMARK  status: ('A' for Active; 'I' for Inactive)
REMARK    1  A    between atoms: N_8  and  C_14
REMARK    2  A    between atoms: N_9  and  C_15
REMARK    3  A    between atoms: C_18  and  C_20
REMARK    4  A    between atoms: C_23  and  C_29
REMARK    5  A    between atoms: C_28  and  C_30
REMARK                            x       y       z     vdW  Elec       q    Type
REMARK                         _______ _______ _______ _____ _____    ______ ____
ROOT
ATOM      4  O   UNL     1      -5.234 -11.525  10.660  0.00  0.00    -0.370 OA
ATOM      5  O   UNL     1      -3.697  -8.910  10.017  0.00  0.00    -0.370 OA
ATOM     12  C   UNL     1      -4.448  -9.341  11.165  0.00  0.00    +0.171 C 
ATOM     13  C   UNL     1      -5.630 -10.143  10.653  0.00  0.00    +0.171 C 
ATOM     14  C   UNL     1      -3.647 -10.337  11.973  0.00  0.00    +0.130 C 
ATOM     15  C   UNL     1      -5.813  -9.660   9.233  0.00  0.00    +0.130 C 
ATOM     16  C   UNL     1      -3.921 -11.636  11.231  0.00  0.00    +0.185 C 
ATOM     17  C   UNL     1      -4.400  -9.290   8.823  0.00  0.00    +0.185 C 
ENDROOT
BRANCH  15   9
ATOM      9  N   UNL     1      -6.663  -8.489   9.215  0.00  0.00    -0.306 N 
ATOM     10  N   UNL     1      -7.310  -8.859   6.989  0.00  0.00    -0.211 NA
ATOM     11  N   UNL     1      -8.159  -6.975   8.229  0.00  0.00    -0.223 NA
ATOM     19  C   UNL     1      -7.400  -8.096   8.111  0.00  0.00    +0.216 A 
ATOM     23  C   UNL     1      -8.041  -8.447   5.933  0.00  0.00    +0.111 A 
ATOM     24  C   UNL     1      -8.865  -6.621   7.134  0.00  0.00    +0.116 A 
ATOM     25  C   UNL     1      -8.845  -7.325   5.949  0.00  0.00    +0.051 A 
ATOM     35  H   UNL     1      -6.778  -7.943  10.060  0.00  0.00    +0.149 HD
BRANCH  23  29
ATOM      7  O   UNL     1      -8.468  -8.753   3.631  0.00  0.00    -0.461 OA
ATOM     29  C   UNL     1      -7.926  -9.273   4.761  0.00  0.00    +0.153 A 
ATOM     31  C   UNL     1      -7.377 -10.508   4.515  0.00  0.00    +0.051 A 
ATOM     32  C   UNL     1      -7.595 -10.765   3.141  0.00  0.00    +0.042 A 
ATOM     33  C   UNL     1      -8.262  -9.668   2.647  0.00  0.00    +0.196 A 
ENDBRANCH  23  29
ENDBRANCH  15   9
BRANCH  14   8
ATOM      6  O   UNL     1      -2.115 -10.638  14.397  0.00  0.00    -0.270 OA
ATOM      8  N   UNL     1      -4.167 -10.429  13.336  0.00  0.00    -0.304 N 
ATOM     18  C   UNL     1      -3.341 -10.574  14.442  0.00  0.00    +0.244 C 
ATOM     34  H   UNL     1      -5.174 -10.498  13.438  0.00  0.00    +0.149 HD
BRANCH  18  20
ATOM     20  C   UNL     1      -4.026 -10.680  15.757  0.00  0.00    +0.037 A 
ATOM     21  C   UNL     1      -5.288 -10.142  15.894  0.00  0.00    +0.013 A 
ATOM     22  C   UNL     1      -3.378 -11.314  16.796  0.00  0.00    +0.013 A 
ATOM     26  C   UNL     1      -5.931 -10.242  17.129  0.00  0.00    +0.013 A 
ATOM     27  C   UNL     1      -4.021 -11.414  18.030  0.00  0.00    +0.013 A 
ATOM     28  C   UNL     1      -5.298 -10.878  18.196  0.00  0.00    +0.055 A 
BRANCH  28  30
ATOM      1  F   UNL     1      -6.288  -9.773  20.071  0.00  0.00    -0.166 F 
ATOM      2  F   UNL     1      -5.252 -11.637  20.465  0.00  0.00    -0.166 F 
ATOM      3  F   UNL     1      -7.169 -11.657  19.438  0.00  0.00    -0.166 F 
ATOM     30  C   UNL     1      -5.986 -10.984  19.515  0.00  0.00    +0.417 C 
ENDBRANCH  28  30
ENDBRANCH  18  20
ENDBRANCH  14   8
TORSDOF 5
ENDMDL
MODEL 3
REMARK VINA RESULT:      -7.4     28.935     31.805
REMARK  Name = 11912971
REMARK  5 active torsions:
REMARK  status: ('A' for Active; 'I' for Inactive)
REMARK    1  A    between atoms: N_8  and  C_14
REMARK    2  A    between atoms: N_9  and  C_15
REMARK    3  A    between atoms: C_18  and  C_20
REMARK    4  A    between atoms: C_23  and  C_29
REMARK    5  A    between atoms: C_28  and  C_30
REMARK                            x       y       z     vdW  Elec       q    Type
REMARK                         _______ _______ _______ _____ _____    ______ ____
ROOT
ATOM      4  O   UNL     1      13.108   7.983  21.531  0.00  0.00    -0.370 OA
ATOM      5  O   UNL     1      12.833   8.244  18.453  0.00  0.00    -0.370 OA
ATOM     12  C   UNL     1      13.969   8.266  19.335  0.00  0.00    +0.171 C 
ATOM     13  C   UNL     1      13.542   8.988  20.599  0.00  0.00    +0.171 C 
ATOM     14  C   UNL     1      14.300   6.866  19.802  0.00  0.00    +0.130 C 
ATOM     15  C   UNL     1      12.369   9.833  20.160  0.00  0.00    +0.130 C 
ATOM     16  C   UNL     1      13.329   6.685  20.959  0.00  0.00    +0.185 C 
ATOM     17  C   UNL     1      11.766   9.008  19.037  0.00  0.00    +0.185 C 
ENDROOT
BRANCH  15   9
ATOM      9  N   UNL     1      12.837  11.104  19.652  0.00  0.00    -0.306 N 
ATOM     10  N   UNL     1      12.188  12.246  21.598  0.00  0.00    -0.211 NA
ATOM     11  N   UNL     1      13.229  13.415  19.765  0.00  0.00    -0.223 NA
ATOM     19  C   UNL     1      12.749  12.291  20.359  0.00  0.00    +0.216 A 
ATOM     23  C   UNL     1      12.119  13.419  22.259  0.00  0.00    +0.111 A 
ATOM     24  C   UNL     1      13.128  14.553  20.483  0.00  0.00    +0.116 A 
ATOM     25  C   UNL     1      12.578  14.616  21.746  0.00  0.00    +0.051 A 
ATOM     35  H   UNL     1      13.304  11.141  18.753  0.00  0.00    +0.149 HD
BRANCH  23  29
ATOM      7  O   UNL     1      11.516  12.105  24.125  0.00  0.00    -0.461 OA
ATOM     29  C   UNL     1      11.522  13.341  23.564  0.00  0.00    +0.153 A 
ATOM     31  C   UNL     1      10.935  14.259  24.401  0.00  0.00    +0.051 A 
ATOM     32  C   UNL     1      10.543  13.540  25.555  0.00  0.00    +0.042 A 
ATOM     33  C   UNL     1      10.918  12.235  25.339  0.00  0.00    +0.196 A 
ENDBRANCH  23  29
ENDBRANCH  15   9
BRANCH  14   8
ATOM      6  O   UNL     1      16.571   5.700  18.463  0.00  0.00    -0.270 OA
ATOM      8  N   UNL     1      15.673   6.800  20.297  0.00  0.00    -0.304 N 
ATOM     18  C   UNL     1      16.701   6.214  19.571  0.00  0.00    +0.244 C 
ATOM     34  H   UNL     1      15.830   7.102  21.253  0.00  0.00    +0.149 HD
BRANCH  18  20
ATOM     20  C   UNL     1      18.036   6.204  20.225  0.00  0.00    +0.037 A 
ATOM     21  C   UNL     1      18.313   7.153  21.186  0.00  0.00    +0.013 A 
ATOM     22  C   UNL     1      18.953   5.245  19.850  0.00  0.00    +0.013 A 
ATOM     26  C   UNL     1      19.566   7.143  21.799  0.00  0.00    +0.013 A 
ATOM     27  C   UNL     1      20.206   5.235  20.463  0.00  0.00    +0.013 A 
ATOM     28  C   UNL     1      20.512   6.183  21.438  0.00  0.00    +0.055 A 
BRANCH  28  30
ATOM      1  F   UNL     1      22.133   7.323  22.777  0.00  0.00    -0.166 F 
ATOM      2  F   UNL     1      22.889   6.018  21.218  0.00  0.00    -0.166 F 
ATOM      3  F   UNL     1      21.985   5.165  23.003  0.00  0.00    -0.166 F 
ATOM     30  C   UNL     1      21.852   6.174  22.094  0.00  0.00    +0.417 C 
ENDBRANCH  28  30
ENDBRANCH  18  20
ENDBRANCH  14   8
TORSDOF 5
ENDMDL
MODEL 4
REMARK VINA RESULT:      -7.2     27.236     29.810
REMARK  Name = 11912971
REMARK  5 active torsions:
REMARK  status: ('A' for Active; 'I' for Inactive)
REMARK    1  A    between atoms: N_8  and  C_14
REMARK    2  A    between atoms: N_9  and  C_15
REMARK    3  A    between atoms: C_18  and  C_20
REMARK    4  A    between atoms: C_23  and  C_29
REMARK    5  A    between atoms: C_28  and  C_30
REMARK                            x       y       z     vdW  Elec       q    Type
REMARK                         _______ _______ _______ _____ _____    ______ ____
ROOT
ATOM      4  O   UNL     1      13.443   8.393  21.817  0.00  0.00    -0.370 OA
ATOM      5  O   UNL     1      10.509   8.026  20.885  0.00  0.00    -0.370 OA
ATOM     12  C   UNL     1      11.570   8.893  20.445  0.00  0.00    +0.171 C 
ATOM     13  C   UNL     1      12.347   9.312  21.679  0.00  0.00    +0.171 C 
ATOM     14  C   UNL     1      12.574   8.118  19.621  0.00  0.00    +0.130 C 
ATOM     15  C   UNL     1      11.364   9.127  22.811  0.00  0.00    +0.130 C 
ATOM     16  C   UNL     1      13.448   7.494  20.698  0.00  0.00    +0.185 C 
ATOM     17  C   UNL     1      10.504   7.977  22.320  0.00  0.00    +0.185 C 
ENDROOT
BRANCH  15   9
ATOM      9  N   UNL     1      10.563  10.320  22.972  0.00  0.00    -0.306 N 
ATOM     10  N   UNL     1      12.087  11.274  24.481  0.00  0.00    -0.211 NA
ATOM     11  N   UNL     1      10.074  12.439  23.851  0.00  0.00    -0.223 NA
ATOM     19  C   UNL     1      10.918  11.377  23.793  0.00  0.00    +0.216 A 
ATOM     23  C   UNL     1      12.403  12.322  25.270  0.00  0.00    +0.111 A 
ATOM     24  C   UNL     1      10.452  13.452  24.660  0.00  0.00    +0.116 A 
ATOM     25  C   UNL     1      11.615  13.448  25.399  0.00  0.00    +0.051 A 
ATOM     35  H   UNL     1       9.717  10.430  22.425  0.00  0.00    +0.149 HD
BRANCH  23  29
ATOM      7  O   UNL     1      13.730  12.902  27.134  0.00  0.00    -0.461 OA
ATOM     29  C   UNL     1      13.643  12.185  25.985  0.00  0.00    +0.153 A 
ATOM     31  C   UNL     1      14.797  11.473  25.765  0.00  0.00    +0.051 A 
ATOM     32  C   UNL     1      15.653  11.772  26.852  0.00  0.00    +0.042 A 
ATOM     33  C   UNL     1      14.958  12.645  27.657  0.00  0.00    +0.196 A 
ENDBRANCH  23  29
ENDBRANCH  15   9
BRANCH  14   8
ATOM      6  O   UNL     1      12.515   8.367  16.749  0.00  0.00    -0.270 OA
ATOM      8  N   UNL     1      13.374   9.025  18.801  0.00  0.00    -0.304 N 
ATOM     18  C   UNL     1      13.271   9.068  17.417  0.00  0.00    +0.244 C 
ATOM     34  H   UNL     1      14.100   9.550  19.276  0.00  0.00    +0.149 HD
BRANCH  18  20
ATOM     20  C   UNL     1      14.174  10.025  16.727  0.00  0.00    +0.037 A 
ATOM     21  C   UNL     1      14.550   9.765  15.426  0.00  0.00    +0.013 A 
ATOM     22  C   UNL     1      14.605  11.144  17.409  0.00  0.00    +0.013 A 
ATOM     26  C   UNL     1      15.398  10.664  14.778  0.00  0.00    +0.013 A 
ATOM     27  C   UNL     1      15.452  12.042  16.760  0.00  0.00    +0.013 A 
ATOM     28  C   UNL     1      15.848  11.803  15.445  0.00  0.00    +0.055 A 
BRANCH  28  30
ATOM      1  F   UNL     1      16.598  12.781  13.395  0.00  0.00    -0.166 F 
ATOM      2  F   UNL     1      18.082  12.506  14.953  0.00  0.00    -0.166 F 
ATOM      3  F   UNL     1      16.566  14.052  15.159  0.00  0.00    -0.166 F 
ATOM     30  C   UNL     1      16.755  12.763  14.752  0.00  0.00    +0.417 C 
ENDBRANCH  28  30
ENDBRANCH  18  20
ENDBRANCH  14   8
TORSDOF 5
ENDMDL
MODEL 5
REMARK VINA RESULT:      -7.2     22.399     23.969
REMARK  Name = 11912971
REMARK  5 active torsions:
REMARK  status: ('A' for Active; 'I' for Inactive)
REMARK    1  A    between atoms: N_8  and  C_14
REMARK    2  A    between atoms: N_9  and  C_15
REMARK    3  A    between atoms: C_18  and  C_20
REMARK    4  A    between atoms: C_23  and  C_29
REMARK    5  A    between atoms: C_28  and  C_30
REMARK                            x       y       z     vdW  Elec       q    Type
REMARK                         _______ _______ _______ _____ _____    ______ ____
ROOT
ATOM      4  O   UNL     1      -6.730 -11.900  10.986  0.00  0.00    -0.370 OA
ATOM      5  O   UNL     1      -6.007  -8.906  11.341  0.00  0.00    -0.370 OA
ATOM     12  C   UNL     1      -5.633  -9.889  10.360  0.00  0.00    +0.171 C 
ATOM     13  C   UNL     1      -5.473 -11.211  11.086  0.00  0.00    +0.171 C 
ATOM     14  C   UNL     1      -6.775 -10.131   9.398  0.00  0.00    +0.130 C 
ATOM     15  C   UNL     1      -5.209 -10.811  12.519  0.00  0.00    +0.130 C 
ATOM     16  C   UNL     1      -7.624 -11.132  10.166  0.00  0.00    +0.185 C 
ATOM     17  C   UNL     1      -5.972  -9.505  12.646  0.00  0.00    +0.185 C 
ENDROOT
BRANCH  15   9
ATOM      9  N   UNL     1      -3.794 -10.587  12.719  0.00  0.00    -0.306 N 
ATOM     10  N   UNL     1      -3.975 -10.814  15.049  0.00  0.00    -0.211 NA
ATOM     11  N   UNL     1      -1.847 -10.366  14.009  0.00  0.00    -0.223 NA
ATOM     19  C   UNL     1      -3.187 -10.589  13.963  0.00  0.00    +0.216 A 
ATOM     23  C   UNL     1      -3.350 -10.810  16.244  0.00  0.00    +0.111 A 
ATOM     24  C   UNL     1      -1.288 -10.376  15.237  0.00  0.00    +0.116 A 
ATOM     25  C   UNL     1      -1.996 -10.594  16.400  0.00  0.00    +0.051 A 
ATOM     35  H   UNL     1      -3.189 -10.471  11.914  0.00  0.00    +0.149 HD
BRANCH  23  29
ATOM      7  O   UNL     1      -5.399 -10.398  17.344  0.00  0.00    -0.461 OA
ATOM     29  C   UNL     1      -4.208 -11.049  17.373  0.00  0.00    +0.153 A 
ATOM     31  C   UNL     1      -4.096 -11.810  18.512  0.00  0.00    +0.051 A 
ATOM     32  C   UNL     1      -5.298 -11.614  19.232  0.00  0.00    +0.042 A 
ATOM     33  C   UNL     1      -6.058 -10.748  18.480  0.00  0.00    +0.196 A 
ENDBRANCH  23  29
ENDBRANCH  15   9
BRANCH  14   8
ATOM      6  O   UNL     1      -6.924  -9.029   6.738  0.00  0.00    -0.270 OA
ATOM      8  N   UNL     1      -6.286 -10.743   8.164  0.00  0.00    -0.304 N 
ATOM     18  C   UNL     1      -6.407 -10.127   6.926  0.00  0.00    +0.244 C 
ATOM     34  H   UNL     1      -5.951 -11.699   8.229  0.00  0.00    +0.149 HD
BRANCH  18  20
ATOM     20  C   UNL     1      -5.884 -10.892   5.764  0.00  0.00    +0.037 A 
ATOM     21  C   UNL     1      -4.632 -11.465   5.854  0.00  0.00    +0.013 A 
ATOM     22  C   UNL     1      -6.666 -11.005   4.634  0.00  0.00    +0.013 A 
ATOM     26  C   UNL     1      -4.141 -12.184   4.763  0.00  0.00    +0.013 A 
ATOM     27  C   UNL     1      -6.175 -11.724   3.544  0.00  0.00    +0.013 A 
ATOM     28  C   UNL     1      -4.913 -12.313   3.609  0.00  0.00    +0.055 A 
BRANCH  28  30
ATOM      1  F   UNL     1      -4.339 -14.429   2.654  0.00  0.00    -0.166 F 
ATOM      2  F   UNL     1      -3.116 -12.730   2.085  0.00  0.00    -0.166 F 
ATOM      3  F   UNL     1      -5.143 -12.912   1.320  0.00  0.00    -0.166 F 
ATOM     30  C   UNL     1      -4.387 -13.080   2.443  0.00  0.00    +0.417 C 
ENDBRANCH  28  30
ENDBRANCH  18  20
ENDBRANCH  14   8
TORSDOF 5
ENDMDL
MODEL 6
REMARK VINA RESULT:      -7.1     18.604     20.817
REMARK  Name = 11912971
REMARK  5 active torsions:
REMARK  status: ('A' for Active; 'I' for Inactive)
REMARK    1  A    between atoms: N_8  and  C_14
REMARK    2  A    between atoms: N_9  and  C_15
REMARK    3  A    between atoms: C_18  and  C_20
REMARK    4  A    between atoms: C_23  and  C_29
REMARK    5  A    between atoms: C_28  and  C_30
REMARK                            x       y       z     vdW  Elec       q    Type
REMARK                         _______ _______ _______ _____ _____    ______ ____
ROOT
ATOM      4  O   UNL     1      -6.676 -12.728  17.618  0.00  0.00    -0.370 OA
ATOM      5  O   UNL     1      -5.075 -11.332  19.876  0.00  0.00    -0.370 OA
ATOM     12  C   UNL     1      -5.979 -10.836  18.874  0.00  0.00    +0.171 C 
ATOM     13  C   UNL     1      -5.735 -11.641  17.612  0.00  0.00    +0.171 C 
ATOM     14  C   UNL     1      -7.408 -11.161  19.249  0.00  0.00    +0.130 C 
ATOM     15  C   UNL     1      -4.329 -12.168  17.779  0.00  0.00    +0.130 C 
ATOM     16  C   UNL     1      -7.546 -12.591  18.752  0.00  0.00    +0.185 C 
ATOM     17  C   UNL     1      -4.204 -12.310  19.285  0.00  0.00    +0.185 C 
ENDROOT
BRANCH  15   9
ATOM      9  N   UNL     1      -3.375 -11.198  17.285  0.00  0.00    -0.306 N 
ATOM     10  N   UNL     1      -3.373 -12.133  15.132  0.00  0.00    -0.211 NA
ATOM     11  N   UNL     1      -2.011 -10.214  15.650  0.00  0.00    -0.223 NA
ATOM     19  C   UNL     1      -2.906 -11.181  15.983  0.00  0.00    +0.216 A 
ATOM     23  C   UNL     1      -2.895 -12.086  13.871  0.00  0.00    +0.111 A 
ATOM     24  C   UNL     1      -1.575 -10.225  14.373  0.00  0.00    +0.116 A 
ATOM     25  C   UNL     1      -1.986 -11.145  13.432  0.00  0.00    +0.051 A 
ATOM     35  H   UNL     1      -3.060 -10.454  17.896  0.00  0.00    +0.149 HD
BRANCH  23  29
ATOM      7  O   UNL     1      -3.993 -14.160  13.614  0.00  0.00    -0.461 OA
ATOM     29  C   UNL     1      -3.407 -13.104  12.995  0.00  0.00    +0.153 A 
ATOM     31  C   UNL     1      -3.439 -13.260  11.630  0.00  0.00    +0.051 A 
ATOM     32  C   UNL     1      -4.089 -14.495  11.393  0.00  0.00    +0.042 A 
ATOM     33  C   UNL     1      -4.407 -15.003  12.631  0.00  0.00    +0.196 A 
ENDBRANCH  23  29
ENDBRANCH  15   9
BRANCH  14   8
ATOM      6  O   UNL     1     -10.194 -10.721  19.851  0.00  0.00    -0.270 OA
ATOM      8  N   UNL     1      -8.338 -10.296  18.525  0.00  0.00    -0.304 N 
ATOM     18  C   UNL     1      -9.668 -10.152  18.897  0.00  0.00    +0.244 C 
ATOM     34  H   UNL     1      -8.002  -9.885  17.661  0.00  0.00    +0.149 HD
BRANCH  18  20
ATOM     20  C   UNL     1     -10.489  -9.256  18.042  0.00  0.00    +0.037 A 
ATOM     21  C   UNL     1      -9.894  -8.151  17.471  0.00  0.00    +0.013 A 
ATOM     22  C   UNL     1     -11.821  -9.559  17.847  0.00  0.00    +0.013 A 
ATOM     26  C   UNL     1     -10.666  -7.310  16.669  0.00  0.00    +0.013 A 
ATOM     27  C   UNL     1     -12.592  -8.719  17.044  0.00  0.00    +0.013 A 
ATOM     28  C   UNL     1     -12.014  -7.595  16.455  0.00  0.00    +0.055 A 
BRANCH  28  30
ATOM      1  F   UNL     1     -13.151  -7.234  14.382  0.00  0.00    -0.166 F 
ATOM      2  F   UNL     1     -12.234  -5.504  15.313  0.00  0.00    -0.166 F 
ATOM      3  F   UNL     1     -14.034  -6.372  16.172  0.00  0.00    -0.166 F 
ATOM     30  C   UNL     1     -12.839  -6.695  15.597  0.00  0.00    +0.417 C 
ENDBRANCH  28  30
ENDBRANCH  18  20
ENDBRANCH  14   8
TORSDOF 5
ENDMDL
MODEL 7
REMARK VINA RESULT:      -7.0     29.202     32.740
REMARK  Name = 11912971
REMARK  5 active torsions:
REMARK  status: ('A' for Active; 'I' for Inactive)
REMARK    1  A    between atoms: N_8  and  C_14
REMARK    2  A    between atoms: N_9  and  C_15
REMARK    3  A    between atoms: C_18  and  C_20
REMARK    4  A    between atoms: C_23  and  C_29
REMARK    5  A    between atoms: C_28  and  C_30
REMARK                            x       y       z     vdW  Elec       q    Type
REMARK                         _______ _______ _______ _____ _____    ______ ____
ROOT
ATOM      4  O   UNL     1      16.107   9.174  19.603  0.00  0.00    -0.370 OA
ATOM      5  O   UNL     1      15.343   6.245  20.273  0.00  0.00    -0.370 OA
ATOM     12  C   UNL     1      15.091   7.495  20.940  0.00  0.00    +0.171 C 
ATOM     13  C   UNL     1      16.328   8.355  20.763  0.00  0.00    +0.171 C 
ATOM     14  C   UNL     1      14.001   8.262  20.224  0.00  0.00    +0.130 C 
ATOM     15  C   UNL     1      17.432   7.359  20.496  0.00  0.00    +0.130 C 
ATOM     16  C   UNL     1      14.779   8.944  19.109  0.00  0.00    +0.185 C 
ATOM     17  C   UNL     1      16.698   6.229  19.798  0.00  0.00    +0.185 C 
ENDROOT
BRANCH  15   9
ATOM      9  N   UNL     1      17.994   6.895  21.746  0.00  0.00    -0.306 N 
ATOM     10  N   UNL     1      20.143   7.660  21.190  0.00  0.00    -0.211 NA
ATOM     11  N   UNL     1      19.724   6.563  23.295  0.00  0.00    -0.223 NA
ATOM     19  C   UNL     1      19.327   7.044  22.088  0.00  0.00    +0.216 A 
ATOM     23  C   UNL     1      21.434   7.788  21.556  0.00  0.00    +0.111 A 
ATOM     24  C   UNL     1      21.029   6.726  23.596  0.00  0.00    +0.116 A 
ATOM     25  C   UNL     1      21.939   7.336  22.758  0.00  0.00    +0.051 A 
ATOM     35  H   UNL     1      17.386   6.482  22.443  0.00  0.00    +0.149 HD
BRANCH  23  29
ATOM      7  O   UNL     1      21.793   9.618  20.108  0.00  0.00    -0.461 OA
ATOM     29  C   UNL     1      22.272   8.442  20.588  0.00  0.00    +0.153 A 
ATOM     31  C   UNL     1      23.485   8.140  20.017  0.00  0.00    +0.051 A 
ATOM     32  C   UNL     1      23.773   9.202  19.127  0.00  0.00    +0.042 A 
ATOM     33  C   UNL     1      22.714  10.076  19.218  0.00  0.00    +0.196 A 
ENDBRANCH  23  29
ENDBRANCH  15   9
BRANCH  14   8
ATOM      6  O   UNL     1      11.285   9.228  20.198  0.00  0.00    -0.270 OA
ATOM      8  N   UNL     1      13.418   9.270  21.107  0.00  0.00    -0.304 N 
ATOM     18  C   UNL     1      12.092   9.669  21.013  0.00  0.00    +0.244 C 
ATOM     34  H   UNL     1      14.056   9.758  21.727  0.00  0.00    +0.149 HD
BRANCH  18  20
ATOM     20  C   UNL     1      11.660  10.724  21.966  0.00  0.00    +0.037 A 
ATOM     21  C   UNL     1      11.266  10.354  23.235  0.00  0.00    +0.013 A 
ATOM     22  C   UNL     1      11.668  12.039  21.552  0.00  0.00    +0.013 A 
ATOM     26  C   UNL     1      10.860  11.344  24.129  0.00  0.00    +0.013 A 
ATOM     27  C   UNL     1      11.263  13.029  22.446  0.00  0.00    +0.013 A 
ATOM     28  C   UNL     1      10.860  12.682  23.735  0.00  0.00    +0.055 A 
BRANCH  28  30
ATOM      1  F   UNL     1      11.377  14.693  24.922  0.00  0.00    -0.166 F 
ATOM      2  F   UNL     1      10.096  13.261  25.927  0.00  0.00    -0.166 F 
ATOM      3  F   UNL     1       9.325  14.421  24.258  0.00  0.00    -0.166 F 
ATOM     30  C   UNL     1      10.425  13.741  24.692  0.00  0.00    +0.417 C 
ENDBRANCH  28  30
ENDBRANCH  18  20
ENDBRANCH  14   8
TORSDOF 5
ENDMDL
MODEL 8
REMARK VINA RESULT:      -6.9     18.034     20.004
REMARK  Name = 11912971
REMARK  5 active torsions:
REMARK  status: ('A' for Active; 'I' for Inactive)
REMARK    1  A    between atoms: N_8  and  C_14
REMARK    2  A    between atoms: N_9  and  C_15
REMARK    3  A    between atoms: C_18  and  C_20
REMARK    4  A    between atoms: C_23  and  C_29
REMARK    5  A    between atoms: C_28  and  C_30
REMARK                            x       y       z     vdW  Elec       q    Type
REMARK                         _______ _______ _______ _____ _____    ______ ____
ROOT
ATOM      4  O   UNL     1      -7.201  -9.958  18.349  0.00  0.00    -0.370 OA
ATOM      5  O   UNL     1      -7.229 -12.998  18.960  0.00  0.00    -0.370 OA
ATOM     12  C   UNL     1      -7.070 -12.251  17.741  0.00  0.00    +0.171 C 
ATOM     13  C   UNL     1      -7.986 -11.045  17.830  0.00  0.00    +0.171 C 
ATOM     14  C   UNL     1      -5.681 -11.655  17.668  0.00  0.00    +0.130 C 
ATOM     15  C   UNL     1      -9.036 -11.457  18.836  0.00  0.00    +0.130 C 
ATOM     16  C   UNL     1      -5.839 -10.389  18.496  0.00  0.00    +0.185 C 
ATOM     17  C   UNL     1      -8.272 -12.401  19.747  0.00  0.00    +0.185 C 
ENDROOT
BRANCH  15   9
ATOM      9  N   UNL     1     -10.110 -12.161  18.171  0.00  0.00    -0.306 N 
ATOM     10  N   UNL     1     -10.980 -10.186  17.247  0.00  0.00    -0.211 NA
ATOM     11  N   UNL     1     -12.021 -12.317  16.819  0.00  0.00    -0.223 NA
ATOM     19  C   UNL     1     -11.066 -11.536  17.388  0.00  0.00    +0.216 A 
ATOM     23  C   UNL     1     -11.927  -9.611  16.478  0.00  0.00    +0.111 A 
ATOM     24  C   UNL     1     -12.936 -11.676  16.062  0.00  0.00    +0.116 A 
ATOM     25  C   UNL     1     -12.939 -10.313  15.854  0.00  0.00    +0.051 A 
ATOM     35  H   UNL     1     -10.153 -13.172  18.226  0.00  0.00    +0.149 HD
BRANCH  23  29
ATOM      7  O   UNL     1     -12.896  -7.561  15.820  0.00  0.00    -0.461 OA
ATOM     29  C   UNL     1     -11.811  -8.184  16.347  0.00  0.00    +0.153 A 
ATOM     31  C   UNL     1     -10.823  -7.276  16.641  0.00  0.00    +0.051 A 
ATOM     32  C   UNL     1     -11.334  -6.009  16.271  0.00  0.00    +0.042 A 
ATOM     33  C   UNL     1     -12.598  -6.235  15.777  0.00  0.00    +0.196 A 
ENDBRANCH  23  29
ENDBRANCH  15   9
BRANCH  14   8
ATOM      6  O   UNL     1      -3.047 -11.189  16.592  0.00  0.00    -0.270 OA
ATOM      8  N   UNL     1      -5.344 -11.305  16.290  0.00  0.00    -0.304 N 
ATOM     18  C   UNL     1      -4.037 -11.100  15.869  0.00  0.00    +0.244 C 
ATOM     34  H   UNL     1      -6.119 -11.103  15.667  0.00  0.00    +0.149 HD
BRANCH  18  20
ATOM     20  C   UNL     1      -3.864 -10.723  14.442  0.00  0.00    +0.037 A 
ATOM     21  C   UNL     1      -4.985 -10.474  13.679  0.00  0.00    +0.013 A 
ATOM     22  C   UNL     1      -2.588 -10.634  13.927  0.00  0.00    +0.013 A 
ATOM     26  C   UNL     1      -4.823 -10.121  12.339  0.00  0.00    +0.013 A 
ATOM     27  C   UNL     1      -2.425 -10.280  12.588  0.00  0.00    +0.013 A 
ATOM     28  C   UNL     1      -3.542 -10.023  11.794  0.00  0.00    +0.055 A 
BRANCH  28  30
ATOM      1  F   UNL     1      -3.519 -10.695   9.499  0.00  0.00    -0.166 F 
ATOM      2  F   UNL     1      -2.139  -9.125  10.077  0.00  0.00    -0.166 F 
ATOM      3  F   UNL     1      -4.269  -8.705   9.953  0.00  0.00    -0.166 F 
ATOM     30  C   UNL     1      -3.369  -9.646  10.362  0.00  0.00    +0.417 C 
ENDBRANCH  28  30
ENDBRANCH  18  20
ENDBRANCH  14   8
TORSDOF 5
ENDMDL
MODEL 9
REMARK VINA RESULT:      -6.9     33.104     36.141
REMARK  Name = 11912971
REMARK  5 active torsions:
REMARK  status: ('A' for Active; 'I' for Inactive)
REMARK    1  A    between atoms: N_8  and  C_14
REMARK    2  A    between atoms: N_9  and  C_15
REMARK    3  A    between atoms: C_18  and  C_20
REMARK    4  A    between atoms: C_23  and  C_29
REMARK    5  A    between atoms: C_28  and  C_30
REMARK                            x       y       z     vdW  Elec       q    Type
REMARK                         _______ _______ _______ _____ _____    ______ ____
ROOT
ATOM      4  O   UNL     1      20.738   6.239  24.196  0.00  0.00    -0.370 OA
ATOM      5  O   UNL     1      22.662   8.137  22.677  0.00  0.00    -0.370 OA
ATOM     12  C   UNL     1      21.390   7.559  22.333  0.00  0.00    +0.171 C 
ATOM     13  C   UNL     1      21.365   6.155  22.905  0.00  0.00    +0.171 C 
ATOM     14  C   UNL     1      20.274   8.276  23.061  0.00  0.00    +0.130 C 
ATOM     15  C   UNL     1      22.824   5.795  23.057  0.00  0.00    +0.130 C 
ATOM     16  C   UNL     1      20.290   7.585  24.415  0.00  0.00    +0.185 C 
ATOM     17  C   UNL     1      23.473   7.141  23.321  0.00  0.00    +0.185 C 
ENDROOT
BRANCH  15   9
ATOM      9  N   UNL     1      23.325   5.229  21.823  0.00  0.00    -0.306 N 
ATOM     10  N   UNL     1      23.593   3.102  22.779  0.00  0.00    -0.211 NA
ATOM     11  N   UNL     1      24.156   3.503  20.470  0.00  0.00    -0.223 NA
ATOM     19  C   UNL     1      23.703   3.905  21.686  0.00  0.00    +0.216 A 
ATOM     23  C   UNL     1      23.969   1.818  22.609  0.00  0.00    +0.111 A 
ATOM     24  C   UNL     1      24.515   2.205  20.372  0.00  0.00    +0.116 A 
ATOM     25  C   UNL     1      24.442   1.309  21.417  0.00  0.00    +0.051 A 
ATOM     35  H   UNL     1      23.362   5.805  20.990  0.00  0.00    +0.149 HD
BRANCH  23  29
ATOM      7  O   UNL     1      24.885   0.157  24.015  0.00  0.00    -0.461 OA
ATOM     29  C   UNL     1      23.842   0.994  23.781  0.00  0.00    +0.153 A 
ATOM     31  C   UNL     1      22.877   0.853  24.748  0.00  0.00    +0.051 A 
ATOM     32  C   UNL     1      23.358  -0.136  25.639  0.00  0.00    +0.042 A 
ATOM     33  C   UNL     1      24.582  -0.528  25.150  0.00  0.00    +0.196 A 
ENDBRANCH  23  29
ENDBRANCH  15   9
BRANCH  14   8
ATOM      6  O   UNL     1      18.949  10.001  21.167  0.00  0.00    -0.270 OA
ATOM      8  N   UNL     1      18.993   8.036  22.400  0.00  0.00    -0.304 N 
ATOM     18  C   UNL     1      18.437   8.934  21.499  0.00  0.00    +0.244 C 
ATOM     34  H   UNL     1      18.461   7.231  22.713  0.00  0.00    +0.149 HD
BRANCH  18  20
ATOM     20  C   UNL     1      17.115   8.556  20.934  0.00  0.00    +0.037 A 
ATOM     21  C   UNL     1      16.849   7.224  20.698  0.00  0.00    +0.013 A 
ATOM     22  C   UNL     1      16.197   9.550  20.666  0.00  0.00    +0.013 A 
ATOM     26  C   UNL     1      15.608   6.870  20.168  0.00  0.00    +0.013 A 
ATOM     27  C   UNL     1      14.957   9.195  20.136  0.00  0.00    +0.013 A 
ATOM     28  C   UNL     1      14.662   7.855  19.888  0.00  0.00    +0.055 A 
BRANCH  28  30
ATOM      1  F   UNL     1      12.782   6.377  19.913  0.00  0.00    -0.166 F 
ATOM      2  F   UNL     1      13.376   7.178  17.987  0.00  0.00    -0.166 F 
ATOM      3  F   UNL     1      12.407   8.467  19.446  0.00  0.00    -0.166 F 
ATOM     30  C   UNL     1      13.336   7.476  19.320  0.00  0.00    +0.417 C 
ENDBRANCH  28  30
ENDBRANCH  18  20
ENDBRANCH  14   8
TORSDOF 5
ENDMDL
MODEL 10
REMARK VINA RESULT:      -6.7     27.403     30.794
REMARK  Name = 11912971
REMARK  5 active torsions:
REMARK  status: ('A' for Active; 'I' for Inactive)
REMARK    1  A    between atoms: N_8  and  C_14
REMARK    2  A    between atoms: N_9  and  C_15
REMARK    3  A    between atoms: C_18  and  C_20
REMARK    4  A    between atoms: C_23  and  C_29
REMARK    5  A    between atoms: C_28  and  C_30
REMARK                            x       y       z     vdW  Elec       q    Type
REMARK                         _______ _______ _______ _____ _____    ______ ____
ROOT
ATOM      4  O   UNL     1      13.889  12.048  23.452  0.00  0.00    -0.370 OA
ATOM      5  O   UNL     1      10.941  12.936  23.821  0.00  0.00    -0.370 OA
ATOM     12  C   UNL     1      11.846  12.193  24.656  0.00  0.00    +0.171 C 
ATOM     13  C   UNL     1      12.684  11.319  23.742  0.00  0.00    +0.171 C 
ATOM     14  C   UNL     1      12.849  13.123  25.301  0.00  0.00    +0.130 C 
ATOM     15  C   UNL     1      11.844  11.181  22.494  0.00  0.00    +0.130 C 
ATOM     16  C   UNL     1      13.890  13.273  24.202  0.00  0.00    +0.185 C 
ATOM     17  C   UNL     1      11.080  12.492  22.461  0.00  0.00    +0.185 C 
ENDROOT
BRANCH  15   9
ATOM      9  N   UNL     1      10.928  10.070  22.634  0.00  0.00    -0.306 N 
ATOM     10  N   UNL     1      12.388   8.587  21.547  0.00  0.00    -0.211 NA
ATOM     11  N   UNL     1      10.248   7.841  22.366  0.00  0.00    -0.223 NA
ATOM     19  C   UNL     1      11.196   8.794  22.168  0.00  0.00    +0.216 A 
ATOM     23  C   UNL     1      12.616   7.333  21.107  0.00  0.00    +0.111 A 
ATOM     24  C   UNL     1      10.542   6.609  21.901  0.00  0.00    +0.116 A 
ATOM     25  C   UNL     1      11.720   6.294  21.258  0.00  0.00    +0.051 A 
ATOM     35  H   UNL     1      10.060  10.200  23.141  0.00  0.00    +0.149 HD
BRANCH  23  29
ATOM      7  O   UNL     1      13.944   7.582  19.170  0.00  0.00    -0.461 OA
ATOM     29  C   UNL     1      13.883   7.144  20.454  0.00  0.00    +0.153 A 
ATOM     31  C   UNL     1      15.085   6.605  20.842  0.00  0.00    +0.051 A 
ATOM     32  C   UNL     1      15.944   6.718  19.723  0.00  0.00    +0.042 A 
ATOM     33  C   UNL     1      15.203   7.320  18.732  0.00  0.00    +0.196 A 
ENDBRANCH  23  29
ENDBRANCH  15   9
BRANCH  14   8
ATOM      6  O   UNL     1      14.558  14.376  27.256  0.00  0.00    -0.270 OA
ATOM      8  N   UNL     1      13.456  12.492  26.472  0.00  0.00    -0.304 N 
ATOM     18  C   UNL     1      14.268  13.187  27.357  0.00  0.00    +0.244 C 
ATOM     34  H   UNL     1      13.352  11.486  26.554  0.00  0.00    +0.149 HD
BRANCH  18  20
ATOM     20  C   UNL     1      14.830  12.395  28.483  0.00  0.00    +0.037 A 
ATOM     21  C   UNL     1      14.481  12.734  29.773  0.00  0.00    +0.013 A 
ATOM     22  C   UNL     1      15.681  11.347  28.201  0.00  0.00    +0.013 A 
ATOM     26  C   UNL     1      15.008  11.991  30.830  0.00  0.00    +0.013 A 
ATOM     27  C   UNL     1      16.207  10.604  29.257  0.00  0.00    +0.013 A 
ATOM     28  C   UNL     1      15.871  10.925  30.571  0.00  0.00    +0.055 A 
BRANCH  28  30
ATOM      1  F   UNL     1      17.415   9.260  31.320  0.00  0.00    -0.166 F 
ATOM      2  F   UNL     1      15.509   9.365  32.348  0.00  0.00    -0.166 F 
ATOM      3  F   UNL     1      16.999  10.917  32.664  0.00  0.00    -0.166 F 
ATOM     30  C   UNL     1      16.435  10.132  31.701  0.00  0.00    +0.417 C 
ENDBRANCH  28  30
ENDBRANCH  18  20
ENDBRANCH  14   8
TORSDOF 5
ENDMDL
