MODEL 1
REMARK VINA RESULT:      -8.7      0.000      0.000
REMARK  Name = 40533390
REMARK  4 active torsions:
REMARK  status: ('A' for Active; 'I' for Inactive)
REMARK    1  A    between atoms: N_3  and  C_13
REMARK    2  A    between atoms: N_5  and  C_26
REMARK    3  A    between atoms: C_13  and  C_16
REMARK    4  A    between atoms: C_17  and  C_21
REMARK                            x       y       z     vdW  Elec       q    Type
REMARK                         _______ _______ _______ _____ _____    ______ ____
ROOT
ATOM      2  O   UNL     1      -6.127 -11.609  10.867  0.00  0.00    -0.267 OA
ATOM      3  N   UNL     1      -3.150 -11.045  14.864  0.00  0.00    -0.297 NA
ATOM      4  N   UNL     1      -4.007 -11.584  11.840  0.00  0.00    -0.311 N 
ATOM      6  C   UNL     1      -3.302 -13.241  13.663  0.00  0.00    +0.024 C 
ATOM      7  C   UNL     1      -1.716 -11.547  12.881  0.00  0.00    +0.050 C 
ATOM      8  C   UNL     1      -1.904 -13.047  13.091  0.00  0.00    +0.017 C 
ATOM      9  C   UNL     1      -3.437 -12.479  14.999  0.00  0.00    +0.090 C 
ATOM     10  C   UNL     1      -1.840 -10.816  14.238  0.00  0.00    +0.094 C 
ATOM     11  C   UNL     1      -4.331 -12.788  12.618  0.00  0.00    +0.130 C 
ATOM     12  C   UNL     1      -2.735 -11.009  11.893  0.00  0.00    +0.026 A 
ATOM     14  C   UNL     1      -2.426  -9.980  11.091  0.00  0.00    +0.022 A 
ATOM     15  C   UNL     1      -5.005 -11.108  10.967  0.00  0.00    +0.260 A 
ATOM     17  C   UNL     1      -4.641  -9.929  10.103  0.00  0.00    +0.053 A 
ATOM     18  C   UNL     1      -3.399  -9.431  10.189  0.00  0.00    +0.016 A 
ENDROOT
BRANCH  17  21
ATOM      1  S   UNL     1      -5.739  -9.891   7.585  0.00  0.00    -0.088 S 
ATOM     21  C   UNL     1      -5.622  -9.322   9.187  0.00  0.00    +0.026 A 
ATOM     24  C   UNL     1      -6.512  -8.305   9.440  0.00  0.00    +0.024 A 
ATOM     28  C   UNL     1      -7.318  -7.972   8.300  0.00  0.00    -0.010 A 
ATOM     29  C   UNL     1      -6.996  -8.774   7.201  0.00  0.00    +0.020 A 
ATOM     31  C   UNL     1      -8.336  -7.000   8.144  0.00  0.00    +0.009 A 
ATOM     32  C   UNL     1      -7.657  -8.630   5.965  0.00  0.00    +0.015 A 
ATOM     33  C   UNL     1      -8.994  -6.855   6.920  0.00  0.00    +0.001 A 
ATOM     34  C   UNL     1      -8.656  -7.662   5.843  0.00  0.00    +0.001 A 
ENDBRANCH  17  21
BRANCH   3  13
ATOM     13  C   UNL     1      -3.237 -10.370  16.157  0.00  0.00    +0.121 C 
BRANCH  13  16
ATOM      5  N   UNL     1      -6.817  -9.729  16.717  0.00  0.00    -0.349 N 
ATOM     16  C   UNL     1      -4.661 -10.250  16.632  0.00  0.00    -0.008 A 
ATOM     19  C   UNL     1      -5.195 -10.761  17.848  0.00  0.00    +0.004 A 
ATOM     20  C   UNL     1      -5.683  -9.621  15.958  0.00  0.00    +0.091 A 
ATOM     22  C   UNL     1      -6.549 -10.421  17.877  0.00  0.00    +0.049 A 
ATOM     23  C   UNL     1      -4.653 -11.483  18.930  0.00  0.00    +0.010 A 
ATOM     25  C   UNL     1      -7.392 -10.768  18.938  0.00  0.00    +0.026 A 
ATOM     26  C   UNL     1      -8.104  -9.186  16.341  0.00  0.00    +0.149 C 
ATOM     27  C   UNL     1      -5.486 -11.837  19.998  0.00  0.00    +0.001 A 
ATOM     30  C   UNL     1      -6.833 -11.484  20.000  0.00  0.00    +0.002 A 
ENDBRANCH  13  16
ENDBRANCH   3  13
TORSDOF 3
ENDMDL
MODEL 2
REMARK VINA RESULT:      -8.0      0.704      1.962
REMARK  Name = 40533390
REMARK  4 active torsions:
REMARK  status: ('A' for Active; 'I' for Inactive)
REMARK    1  A    between atoms: N_3  and  C_13
REMARK    2  A    between atoms: N_5  and  C_26
REMARK    3  A    between atoms: C_13  and  C_16
REMARK    4  A    between atoms: C_17  and  C_21
REMARK                            x       y       z     vdW  Elec       q    Type
REMARK                         _______ _______ _______ _____ _____    ______ ____
ROOT
ATOM      2  O   UNL     1      -6.094 -11.715  10.903  0.00  0.00    -0.267 OA
ATOM      3  N   UNL     1      -3.168 -11.254  14.951  0.00  0.00    -0.297 NA
ATOM      4  N   UNL     1      -3.986 -11.705  11.901  0.00  0.00    -0.311 N 
ATOM      6  C   UNL     1      -3.289 -13.413  13.681  0.00  0.00    +0.024 C 
ATOM      7  C   UNL     1      -1.707 -11.684  12.971  0.00  0.00    +0.050 C 
ATOM      8  C   UNL     1      -1.886 -13.191  13.132  0.00  0.00    +0.017 C 
ATOM      9  C   UNL     1      -3.446 -12.694  15.038  0.00  0.00    +0.090 C 
ATOM     10  C   UNL     1      -1.853 -10.996  14.348  0.00  0.00    +0.094 C 
ATOM     11  C   UNL     1      -4.309 -12.935  12.639  0.00  0.00    +0.130 C 
ATOM     12  C   UNL     1      -2.719 -11.123  11.988  0.00  0.00    +0.026 A 
ATOM     14  C   UNL     1      -2.409 -10.067  11.221  0.00  0.00    +0.022 A 
ATOM     15  C   UNL     1      -4.978 -11.210  11.032  0.00  0.00    +0.260 A 
ATOM     17  C   UNL     1      -4.612 -10.002  10.210  0.00  0.00    +0.053 A 
ATOM     18  C   UNL     1      -3.375  -9.497  10.325  0.00  0.00    +0.016 A 
ENDROOT
BRANCH  17  21
ATOM      1  S   UNL     1      -5.680  -9.892   7.681  0.00  0.00    -0.088 S 
ATOM     21  C   UNL     1      -5.587  -9.374   9.301  0.00  0.00    +0.026 A 
ATOM     24  C   UNL     1      -6.489  -8.373   9.576  0.00  0.00    +0.024 A 
ATOM     28  C   UNL     1      -7.283  -8.010   8.437  0.00  0.00    -0.010 A 
ATOM     29  C   UNL     1      -6.941  -8.774   7.316  0.00  0.00    +0.020 A 
ATOM     31  C   UNL     1      -8.308  -7.043   8.299  0.00  0.00    +0.009 A 
ATOM     32  C   UNL     1      -7.588  -8.596   6.078  0.00  0.00    +0.015 A 
ATOM     33  C   UNL     1      -8.952  -6.864   7.072  0.00  0.00    +0.001 A 
ATOM     34  C   UNL     1      -8.595  -7.633   5.974  0.00  0.00    +0.001 A 
ENDBRANCH  17  21
BRANCH   3  13
ATOM     13  C   UNL     1      -3.275 -10.620  16.263  0.00  0.00    +0.121 C 
BRANCH  13  16
ATOM      5  N   UNL     1      -6.498 -10.556  18.038  0.00  0.00    -0.349 N 
ATOM     16  C   UNL     1      -4.704 -10.538  16.731  0.00  0.00    -0.008 A 
ATOM     19  C   UNL     1      -5.846 -10.273  15.924  0.00  0.00    +0.004 A 
ATOM     20  C   UNL     1      -5.137 -10.708  18.026  0.00  0.00    +0.091 A 
ATOM     22  C   UNL     1      -6.958 -10.290  16.768  0.00  0.00    +0.049 A 
ATOM     23  C   UNL     1      -6.040 -10.019  14.552  0.00  0.00    +0.010 A 
ATOM     25  C   UNL     1      -8.260 -10.065  16.307  0.00  0.00    +0.026 A 
ATOM     26  C   UNL     1      -7.319 -10.668  19.224  0.00  0.00    +0.149 C 
ATOM     27  C   UNL     1      -7.337  -9.792  14.077  0.00  0.00    +0.001 A 
ATOM     30  C   UNL     1      -8.428  -9.816  14.942  0.00  0.00    +0.002 A 
ENDBRANCH  13  16
ENDBRANCH   3  13
TORSDOF 3
ENDMDL
MODEL 3
REMARK VINA RESULT:      -7.8      3.831      8.893
REMARK  Name = 40533390
REMARK  4 active torsions:
REMARK  status: ('A' for Active; 'I' for Inactive)
REMARK    1  A    between atoms: N_3  and  C_13
REMARK    2  A    between atoms: N_5  and  C_26
REMARK    3  A    between atoms: C_13  and  C_16
REMARK    4  A    between atoms: C_17  and  C_21
REMARK                            x       y       z     vdW  Elec       q    Type
REMARK                         _______ _______ _______ _____ _____    ______ ____
ROOT
ATOM      2  O   UNL     1      -8.152  -8.963  17.623  0.00  0.00    -0.267 OA
ATOM      3  N   UNL     1      -5.123 -11.928  14.943  0.00  0.00    -0.297 NA
ATOM      4  N   UNL     1      -6.532 -10.636  17.495  0.00  0.00    -0.311 N 
ATOM      6  C   UNL     1      -4.193 -10.226  16.531  0.00  0.00    +0.024 C 
ATOM      7  C   UNL     1      -4.792 -12.449  17.363  0.00  0.00    +0.050 C 
ATOM      8  C   UNL     1      -3.765 -11.327  17.492  0.00  0.00    +0.017 C 
ATOM      9  C   UNL     1      -4.232 -10.769  15.087  0.00  0.00    +0.090 C 
ATOM     10  C   UNL     1      -4.793 -12.983  15.912  0.00  0.00    +0.094 C 
ATOM     11  C   UNL     1      -5.548  -9.668  16.989  0.00  0.00    +0.130 C 
ATOM     12  C   UNL     1      -6.176 -11.962  17.751  0.00  0.00    +0.026 A 
ATOM     14  C   UNL     1      -7.057 -12.799  18.319  0.00  0.00    +0.022 A 
ATOM     15  C   UNL     1      -7.811 -10.133  17.803  0.00  0.00    +0.260 A 
ATOM     17  C   UNL     1      -8.791 -11.106  18.407  0.00  0.00    +0.053 A 
ATOM     18  C   UNL     1      -8.385 -12.362  18.643  0.00  0.00    +0.016 A 
ENDROOT
BRANCH  17  21
ATOM      1  S   UNL     1     -11.313 -10.550  17.470  0.00  0.00    -0.088 S 
ATOM     21  C   UNL     1     -10.171 -10.700  18.726  0.00  0.00    +0.026 A 
ATOM     24  C   UNL     1     -10.712 -10.404  19.954  0.00  0.00    +0.024 A 
ATOM     28  C   UNL     1     -12.100 -10.044  19.881  0.00  0.00    -0.010 A 
ATOM     29  C   UNL     1     -12.564 -10.083  18.562  0.00  0.00    +0.020 A 
ATOM     31  C   UNL     1     -13.011  -9.677  20.900  0.00  0.00    +0.009 A 
ATOM     32  C   UNL     1     -13.898  -9.767  18.241  0.00  0.00    +0.015 A 
ATOM     33  C   UNL     1     -14.336  -9.363  20.585  0.00  0.00    +0.001 A 
ATOM     34  C   UNL     1     -14.773  -9.408  19.268  0.00  0.00    +0.001 A 
ENDBRANCH  17  21
BRANCH   3  13
ATOM     13  C   UNL     1      -5.092 -12.445  13.576  0.00  0.00    +0.121 C 
BRANCH  13  16
ATOM      5  N   UNL     1      -6.807 -10.068  11.353  0.00  0.00    -0.349 N 
ATOM     16  C   UNL     1      -5.530 -11.409  12.575  0.00  0.00    -0.008 A 
ATOM     19  C   UNL     1      -4.685 -10.649  11.719  0.00  0.00    +0.004 A 
ATOM     20  C   UNL     1      -6.829 -11.029  12.327  0.00  0.00    +0.091 A 
ATOM     22  C   UNL     1      -5.512  -9.815  10.963  0.00  0.00    +0.049 A 
ATOM     23  C   UNL     1      -3.293 -10.590  11.514  0.00  0.00    +0.010 A 
ATOM     25  C   UNL     1      -5.013  -8.922  10.008  0.00  0.00    +0.026 A 
ATOM     26  C   UNL     1      -7.988  -9.422  10.820  0.00  0.00    +0.149 C 
ATOM     27  C   UNL     1      -2.780  -9.700  10.562  0.00  0.00    +0.001 A 
ATOM     30  C   UNL     1      -3.629  -8.881   9.822  0.00  0.00    +0.002 A 
ENDBRANCH  13  16
ENDBRANCH   3  13
TORSDOF 3
ENDMDL
MODEL 4
REMARK VINA RESULT:      -7.7     20.299     23.209
REMARK  Name = 40533390
REMARK  4 active torsions:
REMARK  status: ('A' for Active; 'I' for Inactive)
REMARK    1  A    between atoms: N_3  and  C_13
REMARK    2  A    between atoms: N_5  and  C_26
REMARK    3  A    between atoms: C_13  and  C_16
REMARK    4  A    between atoms: C_17  and  C_21
REMARK                            x       y       z     vdW  Elec       q    Type
REMARK                         _______ _______ _______ _____ _____    ______ ____
ROOT
ATOM      2  O   UNL     1       8.877 -12.343  31.807  0.00  0.00    -0.267 OA
ATOM      3  N   UNL     1       7.347  -8.749  34.952  0.00  0.00    -0.297 NA
ATOM      4  N   UNL     1       8.484 -10.097  32.295  0.00  0.00    -0.311 N 
ATOM      6  C   UNL     1       9.724  -8.849  34.159  0.00  0.00    +0.024 C 
ATOM      7  C   UNL     1       8.052  -7.672  32.812  0.00  0.00    +0.050 C 
ATOM      8  C   UNL     1       9.503  -7.623  33.282  0.00  0.00    +0.017 C 
ATOM      9  C   UNL     1       8.756  -8.820  35.361  0.00  0.00    +0.090 C 
ATOM     10  C   UNL     1       7.110  -7.624  34.037  0.00  0.00    +0.094 C 
ATOM     11  C   UNL     1       9.558 -10.109  33.299  0.00  0.00    +0.130 C 
ATOM     12  C   UNL     1       7.793  -8.922  31.991  0.00  0.00    +0.026 A 
ATOM     14  C   UNL     1       6.895  -8.907  30.994  0.00  0.00    +0.022 A 
ATOM     15  C   UNL     1       8.264 -11.297  31.591  0.00  0.00    +0.260 A 
ATOM     17  C   UNL     1       7.226 -11.258  30.500  0.00  0.00    +0.053 A 
ATOM     18  C   UNL     1       6.606 -10.096  30.245  0.00  0.00    +0.016 A 
ENDROOT
BRANCH  17  21
ATOM      1  S   UNL     1       7.879 -12.948  28.435  0.00  0.00    -0.088 S 
ATOM     21  C   UNL     1       6.882 -12.467  29.730  0.00  0.00    +0.026 A 
ATOM     24  C   UNL     1       5.817 -13.317  29.906  0.00  0.00    +0.024 A 
ATOM     28  C   UNL     1       5.803 -14.397  28.960  0.00  0.00    -0.010 A 
ATOM     29  C   UNL     1       6.891 -14.317  28.085  0.00  0.00    +0.020 A 
ATOM     31  C   UNL     1       4.895 -15.472  28.802  0.00  0.00    +0.009 A 
ATOM     32  C   UNL     1       7.089 -15.271  27.067  0.00  0.00    +0.015 A 
ATOM     33  C   UNL     1       5.089 -16.420  27.794  0.00  0.00    +0.001 A 
ATOM     34  C   UNL     1       6.175 -16.319  26.936  0.00  0.00    +0.001 A 
ENDBRANCH  17  21
BRANCH   3  13
ATOM     13  C   UNL     1       6.467  -8.670  36.116  0.00  0.00    +0.121 C 
BRANCH  13  16
ATOM      5  N   UNL     1       3.047 -10.023  36.011  0.00  0.00    -0.349 N 
ATOM     16  C   UNL     1       5.180  -9.421  35.898  0.00  0.00    -0.008 A 
ATOM     19  C   UNL     1       5.000 -10.576  35.086  0.00  0.00    +0.004 A 
ATOM     20  C   UNL     1       3.961  -9.105  36.452  0.00  0.00    +0.091 A 
ATOM     22  C   UNL     1       3.653 -10.933  35.175  0.00  0.00    +0.049 A 
ATOM     23  C   UNL     1       5.857 -11.354  34.283  0.00  0.00    +0.010 A 
ATOM     25  C   UNL     1       3.118 -12.035  34.497  0.00  0.00    +0.026 A 
ATOM     26  C   UNL     1       1.648 -10.024  36.382  0.00  0.00    +0.149 C 
ATOM     27  C   UNL     1       5.335 -12.459  33.600  0.00  0.00    +0.001 A 
ATOM     30  C   UNL     1       3.987 -12.792  33.707  0.00  0.00    +0.002 A 
ENDBRANCH  13  16
ENDBRANCH   3  13
TORSDOF 3
ENDMDL
MODEL 5
REMARK VINA RESULT:      -7.5     24.947     26.940
REMARK  Name = 40533390
REMARK  4 active torsions:
REMARK  status: ('A' for Active; 'I' for Inactive)
REMARK    1  A    between atoms: N_3  and  C_13
REMARK    2  A    between atoms: N_5  and  C_26
REMARK    3  A    between atoms: C_13  and  C_16
REMARK    4  A    between atoms: C_17  and  C_21
REMARK                            x       y       z     vdW  Elec       q    Type
REMARK                         _______ _______ _______ _____ _____    ______ ____
ROOT
ATOM      2  O   UNL     1      12.226   7.874   2.113  0.00  0.00    -0.267 OA
ATOM      3  N   UNL     1      13.724   4.223  -0.983  0.00  0.00    -0.297 NA
ATOM      4  N   UNL     1      12.752   5.639   1.705  0.00  0.00    -0.311 N 
ATOM      6  C   UNL     1      15.097   4.873   1.011  0.00  0.00    +0.024 C 
ATOM      7  C   UNL     1      13.307   3.223   1.267  0.00  0.00    +0.050 C 
ATOM      8  C   UNL     1      14.721   3.577   1.717  0.00  0.00    +0.017 C 
ATOM      9  C   UNL     1      15.040   4.678  -0.519  0.00  0.00    +0.090 C 
ATOM     10  C   UNL     1      13.288   3.017  -0.265  0.00  0.00    +0.094 C 
ATOM     11  C   UNL     1      14.164   5.990   1.498  0.00  0.00    +0.130 C 
ATOM     12  C   UNL     1      12.326   4.309   1.669  0.00  0.00    +0.026 A 
ATOM     14  C   UNL     1      11.055   4.000   1.971  0.00  0.00    +0.022 A 
ATOM     15  C   UNL     1      11.880   6.693   2.039  0.00  0.00    +0.260 A 
ATOM     17  C   UNL     1      10.452   6.320   2.339  0.00  0.00    +0.053 A 
ATOM     18  C   UNL     1      10.107   5.024   2.304  0.00  0.00    +0.016 A 
ENDROOT
BRANCH  17  21
ATOM      1  S   UNL     1       9.093   7.704   4.284  0.00  0.00    -0.088 S 
ATOM     21  C   UNL     1       9.444   7.347   2.655  0.00  0.00    +0.026 A 
ATOM     24  C   UNL     1       8.698   8.108   1.787  0.00  0.00    +0.024 A 
ATOM     28  C   UNL     1       7.810   9.013   2.460  0.00  0.00    -0.010 A 
ATOM     29  C   UNL     1       7.925   8.896   3.849  0.00  0.00    +0.020 A 
ATOM     31  C   UNL     1       6.888   9.954   1.942  0.00  0.00    +0.009 A 
ATOM     32  C   UNL     1       7.149   9.685   4.721  0.00  0.00    +0.015 A 
ATOM     33  C   UNL     1       6.118  10.739   2.804  0.00  0.00    +0.001 A 
ATOM     34  C   UNL     1       6.249  10.604   4.179  0.00  0.00    +0.001 A 
ENDBRANCH  17  21
BRANCH   3  13
ATOM     13  C   UNL     1      13.726   4.000  -2.428  0.00  0.00    +0.121 C 
BRANCH  13  16
ATOM      5  N   UNL     1      10.573   3.461  -4.246  0.00  0.00    -0.349 N 
ATOM     16  C   UNL     1      12.330   3.977  -2.993  0.00  0.00    -0.008 A 
ATOM     19  C   UNL     1      11.225   4.758  -2.553  0.00  0.00    +0.004 A 
ATOM     20  C   UNL     1      11.898   3.189  -4.035  0.00  0.00    +0.091 A 
ATOM     22  C   UNL     1      10.135   4.415  -3.356  0.00  0.00    +0.049 A 
ATOM     23  C   UNL     1      11.047   5.727  -1.546  0.00  0.00    +0.010 A 
ATOM     25  C   UNL     1       8.871   4.995  -3.201  0.00  0.00    +0.026 A 
ATOM     26  C   UNL     1       9.765   2.829  -5.267  0.00  0.00    +0.149 C 
ATOM     27  C   UNL     1       9.788   6.315  -1.380  0.00  0.00    +0.001 A 
ATOM     30  C   UNL     1       8.718   5.953  -2.196  0.00  0.00    +0.002 A 
ENDBRANCH  13  16
ENDBRANCH   3  13
TORSDOF 3
ENDMDL
MODEL 6
REMARK VINA RESULT:      -7.4     19.897     22.423
REMARK  Name = 40533390
REMARK  4 active torsions:
REMARK  status: ('A' for Active; 'I' for Inactive)
REMARK    1  A    between atoms: N_3  and  C_13
REMARK    2  A    between atoms: N_5  and  C_26
REMARK    3  A    between atoms: C_13  and  C_16
REMARK    4  A    between atoms: C_17  and  C_21
REMARK                            x       y       z     vdW  Elec       q    Type
REMARK                         _______ _______ _______ _____ _____    ______ ____
ROOT
ATOM      2  O   UNL     1     -14.885   8.571  21.838  0.00  0.00    -0.267 OA
ATOM      3  N   UNL     1     -12.541   9.729  17.558  0.00  0.00    -0.297 NA
ATOM      4  N   UNL     1     -12.928   8.885  20.609  0.00  0.00    -0.311 N 
ATOM      6  C   UNL     1     -12.273  11.151  19.606  0.00  0.00    +0.024 C 
ATOM      7  C   UNL     1     -10.813   9.211  19.285  0.00  0.00    +0.050 C 
ATOM      8  C   UNL     1     -10.845  10.651  19.789  0.00  0.00    +0.017 C 
ATOM      9  C   UNL     1     -12.670  11.081  18.116  0.00  0.00    +0.090 C 
ATOM     10  C   UNL     1     -11.198   9.179  17.788  0.00  0.00    +0.094 C 
ATOM     11  C   UNL     1     -13.204  10.325  20.504  0.00  0.00    +0.130 C 
ATOM     12  C   UNL     1     -11.752   8.336  20.094  0.00  0.00    +0.026 A 
ATOM     14  C   UNL     1     -11.466   7.041  20.300  0.00  0.00    +0.022 A 
ATOM     15  C   UNL     1     -13.854   8.116  21.340  0.00  0.00    +0.260 A 
ATOM     17  C   UNL     1     -13.524   6.658  21.525  0.00  0.00    +0.053 A 
ATOM     18  C   UNL     1     -12.372   6.192  21.020  0.00  0.00    +0.016 A 
ENDROOT
BRANCH  17  21
ATOM      1  S   UNL     1     -15.964   5.396  21.550  0.00  0.00    -0.088 S 
ATOM     21  C   UNL     1     -14.444   5.751  22.233  0.00  0.00    +0.026 A 
ATOM     24  C   UNL     1     -14.254   5.108  23.434  0.00  0.00    +0.024 A 
ATOM     28  C   UNL     1     -15.376   4.299  23.817  0.00  0.00    -0.010 A 
ATOM     29  C   UNL     1     -16.397   4.364  22.863  0.00  0.00    +0.020 A 
ATOM     31  C   UNL     1     -15.580   3.489  24.960  0.00  0.00    +0.009 A 
ATOM     32  C   UNL     1     -17.602   3.652  23.023  0.00  0.00    +0.015 A 
ATOM     33  C   UNL     1     -16.774   2.780  25.122  0.00  0.00    +0.001 A 
ATOM     34  C   UNL     1     -17.772   2.862  24.162  0.00  0.00    +0.001 A 
ENDBRANCH  17  21
BRANCH   3  13
ATOM     13  C   UNL     1     -12.875   9.715  16.135  0.00  0.00    +0.121 C 
BRANCH  13  16
ATOM      5  N   UNL     1     -15.187   7.215  14.742  0.00  0.00    -0.349 N 
ATOM     16  C   UNL     1     -13.949   8.707  15.822  0.00  0.00    -0.008 A 
ATOM     19  C   UNL     1     -14.985   8.273  16.695  0.00  0.00    +0.004 A 
ATOM     20  C   UNL     1     -14.100   8.038  14.628  0.00  0.00    +0.091 A 
ATOM     22  C   UNL     1     -15.748   7.337  15.993  0.00  0.00    +0.049 A 
ATOM     23  C   UNL     1     -15.348   8.588  18.019  0.00  0.00    +0.010 A 
ATOM     25  C   UNL     1     -16.860   6.698  16.552  0.00  0.00    +0.026 A 
ATOM     26  C   UNL     1     -15.667   6.349  13.687  0.00  0.00    +0.149 C 
ATOM     27  C   UNL     1     -16.458   7.956  18.591  0.00  0.00    +0.001 A 
ATOM     30  C   UNL     1     -17.201   7.027  17.867  0.00  0.00    +0.002 A 
ENDBRANCH  13  16
ENDBRANCH   3  13
TORSDOF 3
ENDMDL
MODEL 7
REMARK VINA RESULT:      -7.4     25.435     28.721
REMARK  Name = 40533390
REMARK  4 active torsions:
REMARK  status: ('A' for Active; 'I' for Inactive)
REMARK    1  A    between atoms: N_3  and  C_13
REMARK    2  A    between atoms: N_5  and  C_26
REMARK    3  A    between atoms: C_13  and  C_16
REMARK    4  A    between atoms: C_17  and  C_21
REMARK                            x       y       z     vdW  Elec       q    Type
REMARK                         _______ _______ _______ _____ _____    ______ ____
ROOT
ATOM      2  O   UNL     1      13.889   7.251   6.686  0.00  0.00    -0.267 OA
ATOM      3  N   UNL     1      11.447   4.799   3.056  0.00  0.00    -0.297 NA
ATOM      4  N   UNL     1      12.416   7.230   4.878  0.00  0.00    -0.311 N 
ATOM      6  C   UNL     1      10.203   5.938   4.910  0.00  0.00    +0.024 C 
ATOM      7  C   UNL     1      10.835   7.217   2.920  0.00  0.00    +0.050 C 
ATOM      8  C   UNL     1       9.728   7.022   3.951  0.00  0.00    +0.017 C 
ATOM      9  C   UNL     1      10.470   4.629   4.138  0.00  0.00    +0.090 C 
ATOM     10  C   UNL     1      11.065   5.894   2.153  0.00  0.00    +0.094 C 
ATOM     11  C   UNL     1      11.445   6.447   5.655  0.00  0.00    +0.130 C 
ATOM     12  C   UNL     1      12.119   7.674   3.587  0.00  0.00    +0.026 A 
ATOM     14  C   UNL     1      12.973   8.481   2.939  0.00  0.00    +0.022 A 
ATOM     15  C   UNL     1      13.607   7.594   5.537  0.00  0.00    +0.260 A 
ATOM     17  C   UNL     1      14.561   8.472   4.771  0.00  0.00    +0.053 A 
ATOM     18  C   UNL     1      14.214   8.878   3.540  0.00  0.00    +0.016 A 
ENDROOT
BRANCH  17  21
ATOM      1  S   UNL     1      16.030  10.436   6.009  0.00  0.00    -0.088 S 
ATOM     21  C   UNL     1      15.857   8.876   5.346  0.00  0.00    +0.026 A 
ATOM     24  C   UNL     1      17.017   8.144   5.435  0.00  0.00    +0.024 A 
ATOM     28  C   UNL     1      18.086   8.868   6.061  0.00  0.00    -0.010 A 
ATOM     29  C   UNL     1      17.679  10.154   6.432  0.00  0.00    +0.020 A 
ATOM     31  C   UNL     1      19.419   8.482   6.342  0.00  0.00    +0.009 A 
ATOM     32  C   UNL     1      18.560  11.052   7.065  0.00  0.00    +0.015 A 
ATOM     33  C   UNL     1      20.296   9.371   6.971  0.00  0.00    +0.001 A 
ATOM     34  C   UNL     1      19.869  10.642   7.327  0.00  0.00    +0.001 A 
ENDBRANCH  17  21
BRANCH   3  13
ATOM     13  C   UNL     1      11.632   3.552   2.316  0.00  0.00    +0.121 C 
BRANCH  13  16
ATOM      5  N   UNL     1      14.661   3.870   0.252  0.00  0.00    -0.349 N 
ATOM     16  C   UNL     1      12.689   3.684   1.251  0.00  0.00    -0.008 A 
ATOM     19  C   UNL     1      12.472   3.753  -0.153  0.00  0.00    +0.004 A 
ATOM     20  C   UNL     1      14.045   3.758   1.469  0.00  0.00    +0.091 A 
ATOM     22  C   UNL     1      13.725   3.869  -0.757  0.00  0.00    +0.049 A 
ATOM     23  C   UNL     1      11.325   3.727  -0.971  0.00  0.00    +0.010 A 
ATOM     25  C   UNL     1      13.890   3.963  -2.144  0.00  0.00    +0.026 A 
ATOM     26  C   UNL     1      16.093   3.976   0.071  0.00  0.00    +0.149 C 
ATOM     27  C   UNL     1      11.475   3.820  -2.360  0.00  0.00    +0.001 A 
ATOM     30  C   UNL     1      12.739   3.936  -2.935  0.00  0.00    +0.002 A 
ENDBRANCH  13  16
ENDBRANCH   3  13
TORSDOF 3
ENDMDL
MODEL 8
REMARK VINA RESULT:      -7.3     19.300     23.741
REMARK  Name = 40533390
REMARK  4 active torsions:
REMARK  status: ('A' for Active; 'I' for Inactive)
REMARK    1  A    between atoms: N_3  and  C_13
REMARK    2  A    between atoms: N_5  and  C_26
REMARK    3  A    between atoms: C_13  and  C_16
REMARK    4  A    between atoms: C_17  and  C_21
REMARK                            x       y       z     vdW  Elec       q    Type
REMARK                         _______ _______ _______ _____ _____    ______ ____
ROOT
ATOM      2  O   UNL     1      -6.034  10.204   3.359  0.00  0.00    -0.267 OA
ATOM      3  N   UNL     1      -1.311  10.055   1.680  0.00  0.00    -0.297 NA
ATOM      4  N   UNL     1      -3.735  10.178   3.748  0.00  0.00    -0.311 N 
ATOM      6  C   UNL     1      -2.174  12.043   2.942  0.00  0.00    +0.024 C 
ATOM      7  C   UNL     1      -1.255  10.138   4.176  0.00  0.00    +0.050 C 
ATOM      8  C   UNL     1      -1.334  11.662   4.155  0.00  0.00    +0.017 C 
ATOM      9  C   UNL     1      -1.513  11.510   1.653  0.00  0.00    +0.090 C 
ATOM     10  C   UNL     1      -0.574   9.638   2.882  0.00  0.00    +0.094 C 
ATOM     11  C   UNL     1      -3.599  11.508   3.139  0.00  0.00    +0.130 C 
ATOM     12  C   UNL     1      -2.638   9.528   4.318  0.00  0.00    +0.026 A 
ATOM     14  C   UNL     1      -2.805   8.367   4.969  0.00  0.00    +0.022 A 
ATOM     15  C   UNL     1      -5.038   9.645   3.819  0.00  0.00    +0.260 A 
ATOM     17  C   UNL     1      -5.189   8.323   4.525  0.00  0.00    +0.053 A 
ATOM     18  C   UNL     1      -4.100   7.755   5.065  0.00  0.00    +0.016 A 
ENDROOT
BRANCH  17  21
ATOM      1  S   UNL     1      -7.762   8.398   5.486  0.00  0.00    -0.088 S 
ATOM     21  C   UNL     1      -6.498   7.653   4.618  0.00  0.00    +0.026 A 
ATOM     24  C   UNL     1      -6.880   6.447   4.080  0.00  0.00    +0.024 A 
ATOM     28  C   UNL     1      -8.243   6.110   4.380  0.00  0.00    -0.010 A 
ATOM     29  C   UNL     1      -8.853   7.104   5.152  0.00  0.00    +0.020 A 
ATOM     31  C   UNL     1      -9.012   4.977   4.020  0.00  0.00    +0.009 A 
ATOM     32  C   UNL     1     -10.194   6.993   5.571  0.00  0.00    +0.015 A 
ATOM     33  C   UNL     1     -10.343   4.864   4.433  0.00  0.00    +0.001 A 
ATOM     34  C   UNL     1     -10.925   5.863   5.200  0.00  0.00    +0.001 A 
ENDBRANCH  17  21
BRANCH   3  13
ATOM     13  C   UNL     1      -0.636   9.597   0.467  0.00  0.00    +0.121 C 
BRANCH  13  16
ATOM      5  N   UNL     1      -1.342  11.515  -2.592  0.00  0.00    -0.349 N 
ATOM     16  C   UNL     1      -1.186  10.265  -0.766  0.00  0.00    -0.008 A 
ATOM     19  C   UNL     1      -2.499  10.121  -1.293  0.00  0.00    +0.004 A 
ATOM     20  C   UNL     1      -0.497  11.128  -1.587  0.00  0.00    +0.091 A 
ATOM     22  C   UNL     1      -2.571  10.915  -2.439  0.00  0.00    +0.049 A 
ATOM     23  C   UNL     1      -3.638   9.388  -0.903  0.00  0.00    +0.010 A 
ATOM     25  C   UNL     1      -3.729  11.015  -3.217  0.00  0.00    +0.026 A 
ATOM     26  C   UNL     1      -0.978  12.427  -3.655  0.00  0.00    +0.149 C 
ATOM     27  C   UNL     1      -4.804   9.478  -1.673  0.00  0.00    +0.001 A 
ATOM     30  C   UNL     1      -4.846  10.280  -2.812  0.00  0.00    +0.002 A 
ENDBRANCH  13  16
ENDBRANCH   3  13
TORSDOF 3
ENDMDL
MODEL 9
REMARK VINA RESULT:      -7.2     21.682     25.191
REMARK  Name = 40533390
REMARK  4 active torsions:
REMARK  status: ('A' for Active; 'I' for Inactive)
REMARK    1  A    between atoms: N_3  and  C_13
REMARK    2  A    between atoms: N_5  and  C_26
REMARK    3  A    between atoms: C_13  and  C_16
REMARK    4  A    between atoms: C_17  and  C_21
REMARK                            x       y       z     vdW  Elec       q    Type
REMARK                         _______ _______ _______ _____ _____    ______ ____
ROOT
ATOM      2  O   UNL     1       9.321  -9.595  33.069  0.00  0.00    -0.267 OA
ATOM      3  N   UNL     1       8.293  -5.921  36.324  0.00  0.00    -0.297 NA
ATOM      4  N   UNL     1       8.670  -7.402  33.525  0.00  0.00    -0.311 N 
ATOM      6  C   UNL     1      10.202  -5.723  34.710  0.00  0.00    +0.024 C 
ATOM      7  C   UNL     1       7.957  -5.038  34.012  0.00  0.00    +0.050 C 
ATOM      8  C   UNL     1       9.436  -4.682  33.903  0.00  0.00    +0.017 C 
ATOM      9  C   UNL     1       9.738  -5.697  36.182  0.00  0.00    +0.090 C 
ATOM     10  C   UNL     1       7.520  -4.986  35.494  0.00  0.00    +0.094 C 
ATOM     11  C   UNL     1      10.007  -7.097  34.055  0.00  0.00    +0.130 C 
ATOM     12  C   UNL     1       7.689  -6.413  33.428  0.00  0.00    +0.026 A 
ATOM     14  C   UNL     1       6.515  -6.685  32.839  0.00  0.00    +0.022 A 
ATOM     15  C   UNL     1       8.469  -8.706  33.031  0.00  0.00    +0.260 A 
ATOM     17  C   UNL     1       7.128  -8.991  32.407  0.00  0.00    +0.053 A 
ATOM     18  C   UNL     1       6.232  -7.996  32.328  0.00  0.00    +0.016 A 
ENDROOT
BRANCH  17  21
ATOM      1  S   UNL     1       7.115 -10.718  30.270  0.00  0.00    -0.088 S 
ATOM     21  C   UNL     1       6.793 -10.333  31.899  0.00  0.00    +0.026 A 
ATOM     24  C   UNL     1       6.225 -11.386  32.576  0.00  0.00    +0.024 A 
ATOM     28  C   UNL     1       6.043 -12.547  31.751  0.00  0.00    -0.010 A 
ATOM     29  C   UNL     1       6.494 -12.318  30.448  0.00  0.00    +0.020 A 
ATOM     31  C   UNL     1       5.502 -13.819  32.058  0.00  0.00    +0.009 A 
ATOM     32  C   UNL     1       6.417 -13.315  29.456  0.00  0.00    +0.015 A 
ATOM     33  C   UNL     1       5.425 -14.811  31.077  0.00  0.00    +0.001 A 
ATOM     34  C   UNL     1       5.879 -14.559  29.790  0.00  0.00    +0.001 A 
ENDBRANCH  17  21
BRANCH   3  13
ATOM     13  C   UNL     1       7.886  -5.836  37.725  0.00  0.00    +0.121 C 
BRANCH  13  16
ATOM      5  N   UNL     1       4.463  -6.725  38.739  0.00  0.00    -0.349 N 
ATOM     16  C   UNL     1       6.510  -6.407  37.944  0.00  0.00    -0.008 A 
ATOM     19  C   UNL     1       5.936  -7.518  37.264  0.00  0.00    +0.004 A 
ATOM     20  C   UNL     1       5.580  -5.941  38.845  0.00  0.00    +0.091 A 
ATOM     22  C   UNL     1       4.651  -7.696  37.782  0.00  0.00    +0.049 A 
ATOM     23  C   UNL     1       6.388  -8.391  36.255  0.00  0.00    +0.010 A 
ATOM     25  C   UNL     1       3.792  -8.708  37.339  0.00  0.00    +0.026 A 
ATOM     26  C   UNL     1       3.265  -6.547  39.532  0.00  0.00    +0.149 C 
ATOM     27  C   UNL     1       5.538  -9.408  35.803  0.00  0.00    +0.001 A 
ATOM     30  C   UNL     1       4.262  -9.563  36.338  0.00  0.00    +0.002 A 
ENDBRANCH  13  16
ENDBRANCH   3  13
TORSDOF 3
ENDMDL
MODEL 10
REMARK VINA RESULT:      -7.2     24.144     26.668
REMARK  Name = 40533390
REMARK  4 active torsions:
REMARK  status: ('A' for Active; 'I' for Inactive)
REMARK    1  A    between atoms: N_3  and  C_13
REMARK    2  A    between atoms: N_5  and  C_26
REMARK    3  A    between atoms: C_13  and  C_16
REMARK    4  A    between atoms: C_17  and  C_21
REMARK                            x       y       z     vdW  Elec       q    Type
REMARK                         _______ _______ _______ _____ _____    ______ ____
ROOT
ATOM      2  O   UNL     1       9.757   7.352   1.912  0.00  0.00    -0.267 OA
ATOM      3  N   UNL     1      11.006   8.417   6.651  0.00  0.00    -0.297 NA
ATOM      4  N   UNL     1       9.562   6.968   4.204  0.00  0.00    -0.311 N 
ATOM      6  C   UNL     1       8.658   8.731   5.830  0.00  0.00    +0.024 C 
ATOM      7  C   UNL     1       9.356   6.542   6.676  0.00  0.00    +0.050 C 
ATOM      8  C   UNL     1       8.192   7.529   6.641  0.00  0.00    +0.017 C 
ATOM      9  C   UNL     1       9.899   9.368   6.491  0.00  0.00    +0.090 C 
ATOM     10  C   UNL     1      10.574   7.204   7.359  0.00  0.00    +0.094 C 
ATOM     11  C   UNL     1       8.925   8.281   4.387  0.00  0.00    +0.130 C 
ATOM     12  C   UNL     1       9.716   6.085   5.274  0.00  0.00    +0.026 A 
ATOM     14  C   UNL     1      10.196   4.849   5.065  0.00  0.00    +0.022 A 
ATOM     15  C   UNL     1       9.909   6.613   2.886  0.00  0.00    +0.260 A 
ATOM     17  C   UNL     1      10.478   5.232   2.687  0.00  0.00    +0.053 A 
ATOM     18  C   UNL     1      10.588   4.424   3.751  0.00  0.00    +0.016 A 
ENDROOT
BRANCH  17  21
ATOM      1  S   UNL     1      12.500   4.172   1.159  0.00  0.00    -0.088 S 
ATOM     21  C   UNL     1      10.918   4.773   1.357  0.00  0.00    +0.026 A 
ATOM     24  C   UNL     1      10.206   4.752   0.182  0.00  0.00    +0.024 A 
ATOM     28  C   UNL     1      10.965   4.234  -0.921  0.00  0.00    -0.010 A 
ATOM     29  C   UNL     1      12.255   3.871  -0.522  0.00  0.00    +0.020 A 
ATOM     31  C   UNL     1      10.606   4.047  -2.278  0.00  0.00    +0.009 A 
ATOM     32  C   UNL     1      13.185   3.336  -1.435  0.00  0.00    +0.015 A 
ATOM     33  C   UNL     1      11.527   3.515  -3.186  0.00  0.00    +0.001 A 
ATOM     34  C   UNL     1      12.802   3.164  -2.766  0.00  0.00    +0.001 A 
ENDBRANCH  17  21
BRANCH   3  13
ATOM     13  C   UNL     1      12.140   9.042   7.327  0.00  0.00    +0.121 C 
BRANCH  13  16
ATOM      5  N   UNL     1      14.979   8.068   5.200  0.00  0.00    -0.349 N 
ATOM     16  C   UNL     1      13.414   8.894   6.539  0.00  0.00    -0.008 A 
ATOM     19  C   UNL     1      14.488   9.826   6.480  0.00  0.00    +0.004 A 
ATOM     20  C   UNL     1      13.746   7.823   5.741  0.00  0.00    +0.091 A 
ATOM     22  C   UNL     1      15.457   9.283   5.634  0.00  0.00    +0.049 A 
ATOM     23  C   UNL     1      14.729  11.083   7.069  0.00  0.00    +0.010 A 
ATOM     25  C   UNL     1      16.659   9.938   5.345  0.00  0.00    +0.026 A 
ATOM     26  C   UNL     1      15.669   7.164   4.304  0.00  0.00    +0.149 C 
ATOM     27  C   UNL     1      15.928  11.749   6.788  0.00  0.00    +0.001 A 
ATOM     30  C   UNL     1      16.877  11.184   5.940  0.00  0.00    +0.002 A 
ENDBRANCH  13  16
ENDBRANCH   3  13
TORSDOF 3
ENDMDL
