MODEL 1
REMARK VINA RESULT:      -6.8      0.000      0.000
REMARK  Name = 56775474
REMARK  8 active torsions:
REMARK  status: ('A' for Active; 'I' for Inactive)
REMARK    1  A    between atoms: O_4  and  C_21
REMARK    2  A    between atoms: O_4  and  C_27
REMARK    3  A    between atoms: N_5  and  C_7
REMARK    4  A    between atoms: N_5  and  C_11
REMARK    5  A    between atoms: C_7  and  C_10
REMARK    6  A    between atoms: C_10  and  C_12
REMARK    7  A    between atoms: C_11  and  C_13
REMARK    8  A    between atoms: C_15  and  C_18
REMARK                            x       y       z     vdW  Elec       q    Type
REMARK                         _______ _______ _______ _____ _____    ______ ____
ROOT
ATOM      2  O   UNL     1      12.315   8.949  16.004  0.00  0.00    -0.376 OA
ATOM      7  C   UNL     1      12.554   8.308  18.026  0.00  0.00    +0.072 C 
ATOM      8  C   UNL     1      13.452   8.741  16.873  0.00  0.00    +0.184 C 
ATOM      9  C   UNL     1      11.415   8.459  17.024  0.00  0.00    +0.184 C 
ENDROOT
BRANCH   7   5
ATOM      5  N   UNL     1      12.475   9.396  18.991  0.00  0.00    -0.302 NA
ATOM     28  H   UNL     1      12.325  10.321  18.590  0.00  0.00    +0.123 HD
BRANCH   5  11
ATOM     11  C   UNL     1      11.431   9.111  19.973  0.00  0.00    +0.117 C 
BRANCH  11  13
ATOM     13  C   UNL     1      11.580   9.955  21.210  0.00  0.00    -0.033 A 
ATOM     16  C   UNL     1      10.899   9.611  22.378  0.00  0.00    +0.008 A 
ATOM     17  C   UNL     1      12.399  11.085  21.188  0.00  0.00    +0.008 A 
ATOM     19  C   UNL     1      11.038  10.394  23.524  0.00  0.00    +0.046 A 
ATOM     20  C   UNL     1      12.538  11.868  22.334  0.00  0.00    +0.046 A 
ATOM     21  C   UNL     1      11.857  11.522  23.502  0.00  0.00    +0.120 A 
BRANCH  21   4
ATOM      4  O   UNL     1      11.993  12.286  24.620  0.00  0.00    -0.495 OA
ATOM     27  C   UNL     1      10.802  12.599  25.341  0.00  0.00    +0.277 C 
ENDBRANCH  21   4
ENDBRANCH  11  13
ENDBRANCH   5  11
ENDBRANCH   7   5
BRANCH   7  10
ATOM     10  C   UNL     1      12.793   6.942  18.682  0.00  0.00    +0.085 C 
BRANCH  10  12
ATOM      3  O   UNL     1      15.227   6.976  21.295  0.00  0.00    -0.354 OA
ATOM      6  N   UNL     1      13.915   6.966  20.839  0.00  0.00    -0.083 NA
ATOM     12  C   UNL     1      14.011   6.955  19.507  0.00  0.00    +0.086 A 
ATOM     14  C   UNL     1      15.348   6.958  19.069  0.00  0.00    +0.076 A 
ATOM     15  C   UNL     1      16.071   6.971  20.232  0.00  0.00    +0.167 A 
BRANCH  15  18
ATOM      1  F   UNL     1      21.505   7.001  21.462  0.00  0.00    -0.205 F 
ATOM     18  C   UNL     1      17.478   6.979  20.549  0.00  0.00    +0.020 A 
ATOM     22  C   UNL     1      18.288   5.914  20.157  0.00  0.00    +0.014 A 
ATOM     23  C   UNL     1      18.029   8.053  21.250  0.00  0.00    +0.014 A 
ATOM     24  C   UNL     1      19.648   5.921  20.464  0.00  0.00    +0.039 A 
ATOM     25  C   UNL     1      19.389   8.059  21.558  0.00  0.00    +0.039 A 
ATOM     26  C   UNL     1      20.199   6.994  21.166  0.00  0.00    +0.123 A 
ENDBRANCH  15  18
ENDBRANCH  10  12
ENDBRANCH   7  10
TORSDOF 7
ENDMDL
MODEL 2
REMARK VINA RESULT:      -6.5      2.176      4.887
REMARK  Name = 56775474
REMARK  8 active torsions:
REMARK  status: ('A' for Active; 'I' for Inactive)
REMARK    1  A    between atoms: O_4  and  C_21
REMARK    2  A    between atoms: O_4  and  C_27
REMARK    3  A    between atoms: N_5  and  C_7
REMARK    4  A    between atoms: N_5  and  C_11
REMARK    5  A    between atoms: C_7  and  C_10
REMARK    6  A    between atoms: C_10  and  C_12
REMARK    7  A    between atoms: C_11  and  C_13
REMARK    8  A    between atoms: C_15  and  C_18
REMARK                            x       y       z     vdW  Elec       q    Type
REMARK                         _______ _______ _______ _____ _____    ______ ____
ROOT
ATOM      2  O   UNL     1      10.941   8.442  22.789  0.00  0.00    -0.376 OA
ATOM      7  C   UNL     1      11.902   7.880  20.967  0.00  0.00    +0.072 C 
ATOM      8  C   UNL     1      10.492   7.854  21.546  0.00  0.00    +0.184 C 
ATOM      9  C   UNL     1      12.314   8.408  22.337  0.00  0.00    +0.184 C 
ENDROOT
BRANCH   7   5
ATOM      5  N   UNL     1      11.991   8.966  20.001  0.00  0.00    -0.302 NA
ATOM     28  H   UNL     1      12.926   9.348  19.863  0.00  0.00    +0.123 HD
BRANCH   5  11
ATOM     11  C   UNL     1      11.442   8.532  18.717  0.00  0.00    +0.117 C 
BRANCH  11  13
ATOM     13  C   UNL     1      12.124   9.209  17.559  0.00  0.00    -0.033 A 
ATOM     16  C   UNL     1      11.594   9.096  16.274  0.00  0.00    +0.008 A 
ATOM     17  C   UNL     1      13.286   9.951  17.772  0.00  0.00    +0.008 A 
ATOM     19  C   UNL     1      12.227   9.725  15.201  0.00  0.00    +0.046 A 
ATOM     20  C   UNL     1      13.919  10.580  16.699  0.00  0.00    +0.046 A 
ATOM     21  C   UNL     1      13.389  10.466  15.413  0.00  0.00    +0.120 A 
BRANCH  21   4
ATOM      4  O   UNL     1      14.005  11.079  14.367  0.00  0.00    -0.495 OA
ATOM     27  C   UNL     1      14.029  12.506  14.372  0.00  0.00    +0.277 C 
ENDBRANCH  21   4
ENDBRANCH  11  13
ENDBRANCH   5  11
ENDBRANCH   7   5
BRANCH   7  10
ATOM     10  C   UNL     1      12.520   6.572  20.456  0.00  0.00    +0.085 C 
BRANCH  10  12
ATOM      3  O   UNL     1      15.777   7.049  19.070  0.00  0.00    -0.354 OA
ATOM      6  N   UNL     1      14.396   6.952  18.956  0.00  0.00    -0.083 NA
ATOM     12  C   UNL     1      13.960   6.729  20.199  0.00  0.00    +0.086 A 
ATOM     14  C   UNL     1      15.012   6.675  21.131  0.00  0.00    +0.076 A 
ATOM     15  C   UNL     1      16.132   6.882  20.370  0.00  0.00    +0.167 A 
BRANCH  15  18
ATOM      1  F   UNL     1      21.592   7.177  21.440  0.00  0.00    -0.205 F 
ATOM     18  C   UNL     1      17.545   6.959  20.648  0.00  0.00    +0.020 A 
ATOM     22  C   UNL     1      18.058   8.037  21.368  0.00  0.00    +0.014 A 
ATOM     23  C   UNL     1      18.400   5.952  20.197  0.00  0.00    +0.014 A 
ATOM     24  C   UNL     1      19.424   8.112  21.636  0.00  0.00    +0.039 A 
ATOM     25  C   UNL     1      19.767   6.027  20.464  0.00  0.00    +0.039 A 
ATOM     26  C   UNL     1      20.280   7.107  21.183  0.00  0.00    +0.123 A 
ENDBRANCH  15  18
ENDBRANCH  10  12
ENDBRANCH   7  10
TORSDOF 7
ENDMDL
MODEL 3
REMARK VINA RESULT:      -6.3     26.802     28.621
REMARK  Name = 56775474
REMARK  8 active torsions:
REMARK  status: ('A' for Active; 'I' for Inactive)
REMARK    1  A    between atoms: O_4  and  C_21
REMARK    2  A    between atoms: O_4  and  C_27
REMARK    3  A    between atoms: N_5  and  C_7
REMARK    4  A    between atoms: N_5  and  C_11
REMARK    5  A    between atoms: C_7  and  C_10
REMARK    6  A    between atoms: C_10  and  C_12
REMARK    7  A    between atoms: C_11  and  C_13
REMARK    8  A    between atoms: C_15  and  C_18
REMARK                            x       y       z     vdW  Elec       q    Type
REMARK                         _______ _______ _______ _____ _____    ______ ____
ROOT
ATOM      2  O   UNL     1      -2.070 -14.145  13.931  0.00  0.00    -0.376 OA
ATOM      7  C   UNL     1      -2.060 -12.066  13.445  0.00  0.00    +0.072 C 
ATOM      8  C   UNL     1      -1.034 -13.175  13.649  0.00  0.00    +0.184 C 
ATOM      9  C   UNL     1      -3.087 -13.121  13.844  0.00  0.00    +0.184 C 
ENDROOT
BRANCH   7   5
ATOM      5  N   UNL     1      -2.188 -11.804  12.018  0.00  0.00    -0.302 NA
ATOM     28  H   UNL     1      -3.036 -12.169  11.585  0.00  0.00    +0.123 HD
BRANCH   5  11
ATOM     11  C   UNL     1      -2.085 -10.368  11.768  0.00  0.00    +0.117 C 
BRANCH  11  13
ATOM     13  C   UNL     1      -3.341  -9.816  11.148  0.00  0.00    -0.033 A 
ATOM     16  C   UNL     1      -4.543  -9.852  11.855  0.00  0.00    +0.008 A 
ATOM     17  C   UNL     1      -3.303  -9.270   9.865  0.00  0.00    +0.008 A 
ATOM     19  C   UNL     1      -5.706  -9.340  11.280  0.00  0.00    +0.046 A 
ATOM     20  C   UNL     1      -4.466  -8.758   9.290  0.00  0.00    +0.046 A 
ATOM     21  C   UNL     1      -5.668  -8.794   9.998  0.00  0.00    +0.120 A 
BRANCH  21   4
ATOM      4  O   UNL     1      -6.803  -8.294   9.437  0.00  0.00    -0.495 OA
ATOM     27  C   UNL     1      -8.040  -8.876   9.846  0.00  0.00    +0.277 C 
ENDBRANCH  21   4
ENDBRANCH  11  13
ENDBRANCH   5  11
ENDBRANCH   7   5
BRANCH   7  10
ATOM     10  C   UNL     1      -1.946 -10.784  14.281  0.00  0.00    +0.085 C 
BRANCH  10  12
ATOM      3  O   UNL     1      -3.334 -11.080  17.558  0.00  0.00    -0.354 OA
ATOM      6  N   UNL     1      -2.264 -11.084  16.673  0.00  0.00    -0.083 NA
ATOM     12  C   UNL     1      -2.804 -10.850  15.474  0.00  0.00    +0.086 A 
ATOM     14  C   UNL     1      -4.200 -10.692  15.541  0.00  0.00    +0.076 A 
ATOM     15  C   UNL     1      -4.482 -10.846  16.872  0.00  0.00    +0.167 A 
BRANCH  15  18
ATOM      1  F   UNL     1      -9.139 -10.709  19.927  0.00  0.00    -0.205 F 
ATOM     18  C   UNL     1      -5.688 -10.812  17.662  0.00  0.00    +0.020 A 
ATOM     22  C   UNL     1      -6.831 -10.187  17.164  0.00  0.00    +0.014 A 
ATOM     23  C   UNL     1      -5.712 -11.403  18.926  0.00  0.00    +0.014 A 
ATOM     24  C   UNL     1      -7.997 -10.153  17.928  0.00  0.00    +0.039 A 
ATOM     25  C   UNL     1      -6.877 -11.367  19.691  0.00  0.00    +0.039 A 
ATOM     26  C   UNL     1      -8.021 -10.742  19.193  0.00  0.00    +0.123 A 
ENDBRANCH  15  18
ENDBRANCH  10  12
ENDBRANCH   7  10
TORSDOF 7
ENDMDL
MODEL 4
REMARK VINA RESULT:      -6.2      4.535      7.646
REMARK  Name = 56775474
REMARK  8 active torsions:
REMARK  status: ('A' for Active; 'I' for Inactive)
REMARK    1  A    between atoms: O_4  and  C_21
REMARK    2  A    between atoms: O_4  and  C_27
REMARK    3  A    between atoms: N_5  and  C_7
REMARK    4  A    between atoms: N_5  and  C_11
REMARK    5  A    between atoms: C_7  and  C_10
REMARK    6  A    between atoms: C_10  and  C_12
REMARK    7  A    between atoms: C_11  and  C_13
REMARK    8  A    between atoms: C_15  and  C_18
REMARK                            x       y       z     vdW  Elec       q    Type
REMARK                         _______ _______ _______ _____ _____    ______ ____
ROOT
ATOM      2  O   UNL     1      20.119   8.154  23.662  0.00  0.00    -0.376 OA
ATOM      7  C   UNL     1      19.701   7.098  21.855  0.00  0.00    +0.072 C 
ATOM      8  C   UNL     1      20.274   6.782  23.232  0.00  0.00    +0.184 C 
ATOM      9  C   UNL     1      19.657   8.540  22.347  0.00  0.00    +0.184 C 
ENDROOT
BRANCH   7   5
ATOM      5  N   UNL     1      18.340   6.584  21.786  0.00  0.00    -0.302 NA
ATOM     28  H   UNL     1      17.660   7.080  22.362  0.00  0.00    +0.123 HD
BRANCH   5  11
ATOM     11  C   UNL     1      17.888   6.567  20.396  0.00  0.00    +0.117 C 
BRANCH  11  13
ATOM     13  C   UNL     1      16.400   6.760  20.288  0.00  0.00    -0.033 A 
ATOM     16  C   UNL     1      15.785   6.766  19.037  0.00  0.00    +0.008 A 
ATOM     17  C   UNL     1      15.634   6.933  21.442  0.00  0.00    +0.008 A 
ATOM     19  C   UNL     1      14.405   6.945  18.938  0.00  0.00    +0.046 A 
ATOM     20  C   UNL     1      14.254   7.112  21.344  0.00  0.00    +0.046 A 
ATOM     21  C   UNL     1      13.640   7.118  20.092  0.00  0.00    +0.120 A 
BRANCH  21   4
ATOM      4  O   UNL     1      12.294   7.293  19.996  0.00  0.00    -0.495 OA
ATOM     27  C   UNL     1      11.528   7.107  21.186  0.00  0.00    +0.277 C 
ENDBRANCH  21   4
ENDBRANCH  11  13
ENDBRANCH   5  11
ENDBRANCH   7   5
BRANCH   7  10
ATOM     10  C   UNL     1      20.532   6.761  20.610  0.00  0.00    +0.085 C 
BRANCH  10  12
ATOM      3  O   UNL     1      21.609   3.363  20.840  0.00  0.00    -0.354 OA
ATOM      6  N   UNL     1      20.644   4.332  20.595  0.00  0.00    -0.083 NA
ATOM     12  C   UNL     1      21.266   5.498  20.787  0.00  0.00    +0.086 A 
ATOM     14  C   UNL     1      22.614   5.329  21.152  0.00  0.00    +0.076 A 
ATOM     15  C   UNL     1      22.778   3.969  21.171  0.00  0.00    +0.167 A 
BRANCH  15  18
ATOM      1  F   UNL     1      27.046   0.558  22.262  0.00  0.00    -0.205 F 
ATOM     18  C   UNL     1      23.882   3.087  21.455  0.00  0.00    +0.020 A 
ATOM     22  C   UNL     1      25.106   3.611  21.869  0.00  0.00    +0.014 A 
ATOM     23  C   UNL     1      23.727   1.707  21.314  0.00  0.00    +0.014 A 
ATOM     24  C   UNL     1      26.175   2.758  22.142  0.00  0.00    +0.039 A 
ATOM     25  C   UNL     1      24.796   0.854  21.587  0.00  0.00    +0.039 A 
ATOM     26  C   UNL     1      26.021   1.378  22.000  0.00  0.00    +0.123 A 
ENDBRANCH  15  18
ENDBRANCH  10  12
ENDBRANCH   7  10
TORSDOF 7
ENDMDL
MODEL 5
REMARK VINA RESULT:      -6.2     27.182     28.808
REMARK  Name = 56775474
REMARK  8 active torsions:
REMARK  status: ('A' for Active; 'I' for Inactive)
REMARK    1  A    between atoms: O_4  and  C_21
REMARK    2  A    between atoms: O_4  and  C_27
REMARK    3  A    between atoms: N_5  and  C_7
REMARK    4  A    between atoms: N_5  and  C_11
REMARK    5  A    between atoms: C_7  and  C_10
REMARK    6  A    between atoms: C_10  and  C_12
REMARK    7  A    between atoms: C_11  and  C_13
REMARK    8  A    between atoms: C_15  and  C_18
REMARK                            x       y       z     vdW  Elec       q    Type
REMARK                         _______ _______ _______ _____ _____    ______ ____
ROOT
ATOM      2  O   UNL     1      -2.155 -13.827  13.134  0.00  0.00    -0.376 OA
ATOM      7  C   UNL     1      -2.595 -12.045  14.222  0.00  0.00    +0.072 C 
ATOM      8  C   UNL     1      -3.324 -12.988  13.272  0.00  0.00    +0.184 C 
ATOM      9  C   UNL     1      -1.379 -12.923  13.953  0.00  0.00    +0.184 C 
ENDROOT
BRANCH   7   5
ATOM      5  N   UNL     1      -3.062 -12.295  15.579  0.00  0.00    -0.302 NA
ATOM     28  H   UNL     1      -2.531 -12.993  16.098  0.00  0.00    +0.123 HD
BRANCH   5  11
ATOM     11  C   UNL     1      -3.093 -11.041  16.331  0.00  0.00    +0.117 C 
BRANCH  11  13
ATOM     13  C   UNL     1      -4.249 -10.993  17.293  0.00  0.00    -0.033 A 
ATOM     16  C   UNL     1      -4.186 -11.695  18.496  0.00  0.00    +0.008 A 
ATOM     17  C   UNL     1      -5.386 -10.247  16.980  0.00  0.00    +0.008 A 
ATOM     19  C   UNL     1      -5.258 -11.650  19.387  0.00  0.00    +0.046 A 
ATOM     20  C   UNL     1      -6.458 -10.201  17.871  0.00  0.00    +0.046 A 
ATOM     21  C   UNL     1      -6.394 -10.904  19.074  0.00  0.00    +0.120 A 
BRANCH  21   4
ATOM      4  O   UNL     1      -7.440 -10.859  19.944  0.00  0.00    -0.495 OA
ATOM     27  C   UNL     1      -8.709 -11.296  19.457  0.00  0.00    +0.277 C 
ENDBRANCH  21   4
ENDBRANCH  11  13
ENDBRANCH   5  11
ENDBRANCH   7   5
BRANCH   7  10
ATOM     10  C   UNL     1      -2.526 -10.551  13.879  0.00  0.00    +0.085 C 
BRANCH  10  12
ATOM      3  O   UNL     1      -2.920 -10.015  10.370  0.00  0.00    -0.354 OA
ATOM      6  N   UNL     1      -2.145 -10.276  11.493  0.00  0.00    -0.083 NA
ATOM     12  C   UNL     1      -3.009 -10.297  12.513  0.00  0.00    +0.086 A 
ATOM     14  C   UNL     1      -4.330 -10.055  12.097  0.00  0.00    +0.076 A 
ATOM     15  C   UNL     1      -4.219  -9.885  10.743  0.00  0.00    +0.167 A 
BRANCH  15  18
ATOM      1  F   UNL     1      -7.822  -8.823   6.628  0.00  0.00    -0.205 F 
ATOM     18  C   UNL     1      -5.152  -9.611   9.677  0.00  0.00    +0.020 A 
ATOM     22  C   UNL     1      -4.846  -9.984   8.369  0.00  0.00    +0.014 A 
ATOM     23  C   UNL     1      -6.362  -8.973   9.956  0.00  0.00    +0.014 A 
ATOM     24  C   UNL     1      -5.748  -9.718   7.338  0.00  0.00    +0.039 A 
ATOM     25  C   UNL     1      -7.263  -8.707   8.925  0.00  0.00    +0.039 A 
ATOM     26  C   UNL     1      -6.956  -9.079   7.616  0.00  0.00    +0.123 A 
ENDBRANCH  15  18
ENDBRANCH  10  12
ENDBRANCH   7  10
TORSDOF 7
ENDMDL
MODEL 6
REMARK VINA RESULT:      -6.1     27.434     29.035
REMARK  Name = 56775474
REMARK  8 active torsions:
REMARK  status: ('A' for Active; 'I' for Inactive)
REMARK    1  A    between atoms: O_4  and  C_21
REMARK    2  A    between atoms: O_4  and  C_27
REMARK    3  A    between atoms: N_5  and  C_7
REMARK    4  A    between atoms: N_5  and  C_11
REMARK    5  A    between atoms: C_7  and  C_10
REMARK    6  A    between atoms: C_10  and  C_12
REMARK    7  A    between atoms: C_11  and  C_13
REMARK    8  A    between atoms: C_15  and  C_18
REMARK                            x       y       z     vdW  Elec       q    Type
REMARK                         _______ _______ _______ _____ _____    ______ ____
ROOT
ATOM      2  O   UNL     1      -2.341 -13.981  13.182  0.00  0.00    -0.376 OA
ATOM      7  C   UNL     1      -2.641 -12.090  14.124  0.00  0.00    +0.072 C 
ATOM      8  C   UNL     1      -3.496 -13.153  13.444  0.00  0.00    +0.184 C 
ATOM      9  C   UNL     1      -1.462 -12.972  13.729  0.00  0.00    +0.184 C 
ENDROOT
BRANCH   7   5
ATOM      5  N   UNL     1      -2.835 -12.184  15.564  0.00  0.00    -0.302 NA
ATOM     28  H   UNL     1      -2.070 -12.622  16.077  0.00  0.00    +0.123 HD
BRANCH   5  11
ATOM     11  C   UNL     1      -3.101 -10.856  16.115  0.00  0.00    +0.117 C 
BRANCH  11  13
ATOM     13  C   UNL     1      -4.228 -10.879  17.112  0.00  0.00    -0.033 A 
ATOM     16  C   UNL     1      -4.062 -11.520  18.340  0.00  0.00    +0.008 A 
ATOM     17  C   UNL     1      -5.440 -10.259  16.807  0.00  0.00    +0.008 A 
ATOM     19  C   UNL     1      -5.107 -11.541  19.263  0.00  0.00    +0.046 A 
ATOM     20  C   UNL     1      -6.486 -10.280  17.731  0.00  0.00    +0.046 A 
ATOM     21  C   UNL     1      -6.319 -10.921  18.958  0.00  0.00    +0.120 A 
BRANCH  21   4
ATOM      4  O   UNL     1      -7.339 -10.941  19.859  0.00  0.00    -0.495 OA
ATOM     27  C   UNL     1      -8.663 -11.052  19.339  0.00  0.00    +0.277 C 
ENDBRANCH  21   4
ENDBRANCH  11  13
ENDBRANCH   5  11
ENDBRANCH   7   5
BRANCH   7  10
ATOM     10  C   UNL     1      -2.698 -10.646  13.605  0.00  0.00    +0.085 C 
BRANCH  10  12
ATOM      3  O   UNL     1      -5.182 -10.095  11.100  0.00  0.00    -0.354 OA
ATOM      6  N   UNL     1      -4.721 -10.027  12.408  0.00  0.00    -0.083 NA
ATOM     12  C   UNL     1      -3.495 -10.556  12.372  0.00  0.00    +0.086 A 
ATOM     14  C   UNL     1      -3.132 -10.972  11.079  0.00  0.00    +0.076 A 
ATOM     15  C   UNL     1      -4.227 -10.660  10.317  0.00  0.00    +0.167 A 
BRANCH  15  18
ATOM      1  F   UNL     1      -5.516 -11.188   4.923  0.00  0.00    -0.205 F 
ATOM     18  C   UNL     1      -4.561 -10.798   8.921  0.00  0.00    +0.020 A 
ATOM     22  C   UNL     1      -4.161 -11.932   8.216  0.00  0.00    +0.014 A 
ATOM     23  C   UNL     1      -5.286  -9.795   8.275  0.00  0.00    +0.014 A 
ATOM     24  C   UNL     1      -4.484 -12.065   6.866  0.00  0.00    +0.039 A 
ATOM     25  C   UNL     1      -5.607  -9.927   6.925  0.00  0.00    +0.039 A 
ATOM     26  C   UNL     1      -5.206 -11.062   6.219  0.00  0.00    +0.123 A 
ENDBRANCH  15  18
ENDBRANCH  10  12
ENDBRANCH   7  10
TORSDOF 7
ENDMDL
MODEL 7
REMARK VINA RESULT:      -6.0     28.137     31.091
REMARK  Name = 56775474
REMARK  8 active torsions:
REMARK  status: ('A' for Active; 'I' for Inactive)
REMARK    1  A    between atoms: O_4  and  C_21
REMARK    2  A    between atoms: O_4  and  C_27
REMARK    3  A    between atoms: N_5  and  C_7
REMARK    4  A    between atoms: N_5  and  C_11
REMARK    5  A    between atoms: C_7  and  C_10
REMARK    6  A    between atoms: C_10  and  C_12
REMARK    7  A    between atoms: C_11  and  C_13
REMARK    8  A    between atoms: C_15  and  C_18
REMARK                            x       y       z     vdW  Elec       q    Type
REMARK                         _______ _______ _______ _____ _____    ______ ____
ROOT
ATOM      2  O   UNL     1     -11.841 -11.515  15.997  0.00  0.00    -0.376 OA
ATOM      7  C   UNL     1     -11.031  -9.601  16.484  0.00  0.00    +0.072 C 
ATOM      8  C   UNL     1     -11.267 -10.931  17.189  0.00  0.00    +0.184 C 
ATOM      9  C   UNL     1     -11.732 -10.254  15.298  0.00  0.00    +0.184 C 
ENDROOT
BRANCH   7   5
ATOM      5  N   UNL     1      -9.612  -9.478  16.180  0.00  0.00    -0.302 NA
ATOM     28  H   UNL     1      -9.384  -8.821  15.435  0.00  0.00    +0.123 HD
BRANCH   5  11
ATOM     11  C   UNL     1      -8.876  -9.123  17.392  0.00  0.00    +0.117 C 
BRANCH  11  13
ATOM     13  C   UNL     1      -7.465  -9.645  17.363  0.00  0.00    -0.033 A 
ATOM     16  C   UNL     1      -6.916 -10.238  18.500  0.00  0.00    +0.008 A 
ATOM     17  C   UNL     1      -6.705  -9.534  16.198  0.00  0.00    +0.008 A 
ATOM     19  C   UNL     1      -5.608 -10.722  18.472  0.00  0.00    +0.046 A 
ATOM     20  C   UNL     1      -5.397 -10.018  16.170  0.00  0.00    +0.046 A 
ATOM     21  C   UNL     1      -4.849 -10.611  17.308  0.00  0.00    +0.120 A 
BRANCH  21   4
ATOM      4  O   UNL     1      -3.573 -11.083  17.281  0.00  0.00    -0.495 OA
ATOM     27  C   UNL     1      -2.751 -10.672  16.188  0.00  0.00    +0.277 C 
ENDBRANCH  21   4
ENDBRANCH  11  13
ENDBRANCH   5  11
ENDBRANCH   7   5
BRANCH   7  10
ATOM     10  C   UNL     1     -11.627  -8.323  17.089  0.00  0.00    +0.085 C 
BRANCH  10  12
ATOM      3  O   UNL     1     -11.047  -5.632  14.814  0.00  0.00    -0.354 OA
ATOM      6  N   UNL     1     -10.622  -6.543  15.772  0.00  0.00    -0.083 NA
ATOM     12  C   UNL     1     -11.711  -7.249  16.086  0.00  0.00    +0.086 A 
ATOM     14  C   UNL     1     -12.844  -6.832  15.364  0.00  0.00    +0.076 A 
ATOM     15  C   UNL     1     -12.372  -5.813  14.579  0.00  0.00    +0.167 A 
BRANCH  15  18
ATOM      1  F   UNL     1     -14.645  -2.423  10.788  0.00  0.00    -0.205 F 
ATOM     18  C   UNL     1     -12.961  -4.935  13.599  0.00  0.00    +0.020 A 
ATOM     22  C   UNL     1     -14.344  -4.761  13.558  0.00  0.00    +0.014 A 
ATOM     23  C   UNL     1     -12.146  -4.258  12.690  0.00  0.00    +0.014 A 
ATOM     24  C   UNL     1     -14.913  -3.913  12.609  0.00  0.00    +0.039 A 
ATOM     25  C   UNL     1     -12.716  -3.410  11.740  0.00  0.00    +0.039 A 
ATOM     26  C   UNL     1     -14.100  -3.237  11.699  0.00  0.00    +0.123 A 
ENDBRANCH  15  18
ENDBRANCH  10  12
ENDBRANCH   7  10
TORSDOF 7
ENDMDL
MODEL 8
REMARK VINA RESULT:      -5.9     27.013     29.986
REMARK  Name = 56775474
REMARK  8 active torsions:
REMARK  status: ('A' for Active; 'I' for Inactive)
REMARK    1  A    between atoms: O_4  and  C_21
REMARK    2  A    between atoms: O_4  and  C_27
REMARK    3  A    between atoms: N_5  and  C_7
REMARK    4  A    between atoms: N_5  and  C_11
REMARK    5  A    between atoms: C_7  and  C_10
REMARK    6  A    between atoms: C_10  and  C_12
REMARK    7  A    between atoms: C_11  and  C_13
REMARK    8  A    between atoms: C_15  and  C_18
REMARK                            x       y       z     vdW  Elec       q    Type
REMARK                         _______ _______ _______ _____ _____    ______ ____
ROOT
ATOM      2  O   UNL     1      -7.577 -12.864  19.337  0.00  0.00    -0.376 OA
ATOM      7  C   UNL     1      -6.633 -11.330  18.192  0.00  0.00    +0.072 C 
ATOM      8  C   UNL     1      -6.421 -12.018  19.535  0.00  0.00    +0.184 C 
ATOM      9  C   UNL     1      -7.889 -12.189  18.097  0.00  0.00    +0.184 C 
ENDROOT
BRANCH   7   5
ATOM      5  N   UNL     1      -5.647 -11.836  17.246  0.00  0.00    -0.302 NA
ATOM     28  H   UNL     1      -5.921 -11.784  16.265  0.00  0.00    +0.123 HD
BRANCH   5  11
ATOM     11  C   UNL     1      -4.375 -11.143  17.440  0.00  0.00    +0.117 C 
BRANCH  11  13
ATOM     13  C   UNL     1      -3.666 -10.900  16.135  0.00  0.00    -0.033 A 
ATOM     16  C   UNL     1      -2.301 -10.613  16.125  0.00  0.00    +0.008 A 
ATOM     17  C   UNL     1      -4.374 -10.962  14.934  0.00  0.00    +0.008 A 
ATOM     19  C   UNL     1      -1.644 -10.388  14.915  0.00  0.00    +0.046 A 
ATOM     20  C   UNL     1      -3.718 -10.737  13.724  0.00  0.00    +0.046 A 
ATOM     21  C   UNL     1      -2.353 -10.450  13.715  0.00  0.00    +0.120 A 
BRANCH  21   4
ATOM      4  O   UNL     1      -1.712 -10.230  12.535  0.00  0.00    -0.495 OA
ATOM     27  C   UNL     1      -2.510 -10.233  11.352  0.00  0.00    +0.277 C 
ENDBRANCH  21   4
ENDBRANCH  11  13
ENDBRANCH   5  11
ENDBRANCH   7   5
BRANCH   7  10
ATOM     10  C   UNL     1      -6.771  -9.802  18.152  0.00  0.00    +0.085 C 
BRANCH  10  12
ATOM      3  O   UNL     1      -8.689  -9.149  15.212  0.00  0.00    -0.354 OA
ATOM      6  N   UNL     1      -7.584  -9.681  15.864  0.00  0.00    -0.083 NA
ATOM     12  C   UNL     1      -7.767  -9.384  17.154  0.00  0.00    +0.086 A 
ATOM     14  C   UNL     1      -8.959  -8.671  17.373  0.00  0.00    +0.076 A 
ATOM     15  C   UNL     1      -9.501  -8.550  16.120  0.00  0.00    +0.167 A 
BRANCH  15  18
ATOM      1  F   UNL     1     -14.128  -6.221  14.071  0.00  0.00    -0.205 F 
ATOM     18  C   UNL     1     -10.699  -7.948  15.590  0.00  0.00    +0.020 A 
ATOM     22  C   UNL     1     -11.164  -8.314  14.327  0.00  0.00    +0.014 A 
ATOM     23  C   UNL     1     -11.394  -6.998  16.340  0.00  0.00    +0.014 A 
ATOM     24  C   UNL     1     -12.323  -7.732  13.814  0.00  0.00    +0.039 A 
ATOM     25  C   UNL     1     -12.552  -6.415  15.826  0.00  0.00    +0.039 A 
ATOM     26  C   UNL     1     -13.017  -6.781  14.563  0.00  0.00    +0.123 A 
ENDBRANCH  15  18
ENDBRANCH  10  12
ENDBRANCH   7  10
TORSDOF 7
ENDMDL
MODEL 9
REMARK VINA RESULT:      -5.9     12.076     15.633
REMARK  Name = 56775474
REMARK  8 active torsions:
REMARK  status: ('A' for Active; 'I' for Inactive)
REMARK    1  A    between atoms: O_4  and  C_21
REMARK    2  A    between atoms: O_4  and  C_27
REMARK    3  A    between atoms: N_5  and  C_7
REMARK    4  A    between atoms: N_5  and  C_11
REMARK    5  A    between atoms: C_7  and  C_10
REMARK    6  A    between atoms: C_10  and  C_12
REMARK    7  A    between atoms: C_11  and  C_13
REMARK    8  A    between atoms: C_15  and  C_18
REMARK                            x       y       z     vdW  Elec       q    Type
REMARK                         _______ _______ _______ _____ _____    ______ ____
ROOT
ATOM      2  O   UNL     1       5.686  10.264   3.191  0.00  0.00    -0.376 OA
ATOM      7  C   UNL     1       7.471   9.798   4.266  0.00  0.00    +0.072 C 
ATOM      8  C   UNL     1       6.166  10.541   4.527  0.00  0.00    +0.184 C 
ATOM      9  C   UNL     1       6.939   9.628   2.847  0.00  0.00    +0.184 C 
ENDROOT
BRANCH   7   5
ATOM      5  N   UNL     1       7.419   8.510   4.943  0.00  0.00    -0.302 NA
ATOM     28  H   UNL     1       6.606   7.936   4.722  0.00  0.00    +0.123 HD
BRANCH   5  11
ATOM     11  C   UNL     1       8.642   7.757   4.669  0.00  0.00    +0.117 C 
BRANCH  11  13
ATOM     13  C   UNL     1       9.004   6.843   5.808  0.00  0.00    -0.033 A 
ATOM     16  C   UNL     1       8.856   7.276   7.126  0.00  0.00    +0.008 A 
ATOM     17  C   UNL     1       9.488   5.560   5.545  0.00  0.00    +0.008 A 
ATOM     19  C   UNL     1       9.191   6.427   8.181  0.00  0.00    +0.046 A 
ATOM     20  C   UNL     1       9.823   4.712   6.600  0.00  0.00    +0.046 A 
ATOM     21  C   UNL     1       9.675   5.146   7.918  0.00  0.00    +0.120 A 
BRANCH  21   4
ATOM      4  O   UNL     1      10.002   4.318   8.947  0.00  0.00    -0.495 OA
ATOM     27  C   UNL     1       9.352   4.547  10.197  0.00  0.00    +0.277 C 
ENDBRANCH  21   4
ENDBRANCH  11  13
ENDBRANCH   5  11
ENDBRANCH   7   5
BRANCH   7  10
ATOM     10  C   UNL     1       8.800  10.534   4.479  0.00  0.00    +0.085 C 
BRANCH  10  12
ATOM      3  O   UNL     1       8.613  12.862   7.181  0.00  0.00    -0.354 OA
ATOM      6  N   UNL     1       8.493  12.526   5.838  0.00  0.00    -0.083 NA
ATOM     12  C   UNL     1       8.819  11.232   5.774  0.00  0.00    +0.086 A 
ATOM     14  C   UNL     1       9.153  10.704   7.034  0.00  0.00    +0.076 A 
ATOM     15  C   UNL     1       9.008  11.768   7.883  0.00  0.00    +0.167 A 
BRANCH  15  18
ATOM      1  F   UNL     1       9.661  12.518  13.365  0.00  0.00    -0.205 F 
ATOM     18  C   UNL     1       9.176  11.962   9.302  0.00  0.00    +0.020 A 
ATOM     22  C   UNL     1       8.151  12.533  10.055  0.00  0.00    +0.014 A 
ATOM     23  C   UNL     1      10.365  11.576   9.922  0.00  0.00    +0.014 A 
ATOM     24  C   UNL     1       8.314  12.721  11.427  0.00  0.00    +0.039 A 
ATOM     25  C   UNL     1      10.528  11.765  11.294  0.00  0.00    +0.039 A 
ATOM     26  C   UNL     1       9.503  12.338  12.047  0.00  0.00    +0.123 A 
ENDBRANCH  15  18
ENDBRANCH  10  12
ENDBRANCH   7  10
TORSDOF 7
ENDMDL
MODEL 10
REMARK VINA RESULT:      -5.9     26.960     29.126
REMARK  Name = 56775474
REMARK  8 active torsions:
REMARK  status: ('A' for Active; 'I' for Inactive)
REMARK    1  A    between atoms: O_4  and  C_21
REMARK    2  A    between atoms: O_4  and  C_27
REMARK    3  A    between atoms: N_5  and  C_7
REMARK    4  A    between atoms: N_5  and  C_11
REMARK    5  A    between atoms: C_7  and  C_10
REMARK    6  A    between atoms: C_10  and  C_12
REMARK    7  A    between atoms: C_11  and  C_13
REMARK    8  A    between atoms: C_15  and  C_18
REMARK                            x       y       z     vdW  Elec       q    Type
REMARK                         _______ _______ _______ _____ _____    ______ ____
ROOT
ATOM      2  O   UNL     1      -8.702 -13.924  19.156  0.00  0.00    -0.376 OA
ATOM      7  C   UNL     1      -8.116 -11.912  18.754  0.00  0.00    +0.072 C 
ATOM      8  C   UNL     1      -7.752 -13.306  18.258  0.00  0.00    +0.184 C 
ATOM      9  C   UNL     1      -9.026 -12.641  19.736  0.00  0.00    +0.184 C 
ENDROOT
BRANCH   7   5
ATOM      5  N   UNL     1      -8.942 -11.258  17.748  0.00  0.00    -0.302 NA
ATOM     28  H   UNL     1      -9.822 -11.727  17.538  0.00  0.00    +0.123 HD
BRANCH   5  11
ATOM     11  C   UNL     1      -9.204  -9.875  18.145  0.00  0.00    +0.117 C 
BRANCH  11  13
ATOM     13  C   UNL     1      -9.914  -9.107  17.063  0.00  0.00    -0.033 A 
ATOM     16  C   UNL     1     -10.362  -9.765  15.919  0.00  0.00    +0.008 A 
ATOM     17  C   UNL     1     -10.123  -7.735  17.206  0.00  0.00    +0.008 A 
ATOM     19  C   UNL     1     -11.021  -9.052  14.917  0.00  0.00    +0.046 A 
ATOM     20  C   UNL     1     -10.781  -7.021  16.204  0.00  0.00    +0.046 A 
ATOM     21  C   UNL     1     -11.229  -7.681  15.059  0.00  0.00    +0.120 A 
BRANCH  21   4
ATOM      4  O   UNL     1     -11.872  -6.985  14.082  0.00  0.00    -0.495 OA
ATOM     27  C   UNL     1     -12.245  -5.640  14.380  0.00  0.00    +0.277 C 
ENDBRANCH  21   4
ENDBRANCH  11  13
ENDBRANCH   5  11
ENDBRANCH   7   5
BRANCH   7  10
ATOM     10  C   UNL     1      -7.006 -11.003  19.300  0.00  0.00    +0.085 C 
BRANCH  10  12
ATOM      3  O   UNL     1      -3.772 -11.471  17.861  0.00  0.00    -0.354 OA
ATOM      6  N   UNL     1      -4.679 -11.587  18.906  0.00  0.00    -0.083 NA
ATOM     12  C   UNL     1      -5.812 -11.051  18.443  0.00  0.00    +0.086 A 
ATOM     14  C   UNL     1      -5.679 -10.583  17.123  0.00  0.00    +0.076 A 
ATOM     15  C   UNL     1      -4.379 -10.871  16.805  0.00  0.00    +0.167 A 
BRANCH  15  18
ATOM      1  F   UNL     1      -1.208 -10.135  12.283  0.00  0.00    -0.205 F 
ATOM     18  C   UNL     1      -3.557 -10.682  15.635  0.00  0.00    +0.020 A 
ATOM     22  C   UNL     1      -2.184 -10.482  15.770  0.00  0.00    +0.014 A 
ATOM     23  C   UNL     1      -4.137 -10.698  14.365  0.00  0.00    +0.014 A 
ATOM     24  C   UNL     1      -1.390 -10.297  14.639  0.00  0.00    +0.039 A 
ATOM     25  C   UNL     1      -3.343 -10.513  13.234  0.00  0.00    +0.039 A 
ATOM     26  C   UNL     1      -1.969 -10.312  13.370  0.00  0.00    +0.123 A 
ENDBRANCH  15  18
ENDBRANCH  10  12
ENDBRANCH   7  10
TORSDOF 7
ENDMDL
