MODEL 1
REMARK VINA RESULT:      -6.2      0.000      0.000
REMARK  Name = 40779854
REMARK  8 active torsions:
REMARK  status: ('A' for Active; 'I' for Inactive)
REMARK    1  A    between atoms: S_1  and  N_6
REMARK    2  A    between atoms: S_1  and  C_18
REMARK    3  A    between atoms: N_5  and  C_14
REMARK    4  A    between atoms: N_5  and  C_16
REMARK    5  A    between atoms: N_5  and  C_17
REMARK    6  A    between atoms: N_6  and  C_15
REMARK    7  A    between atoms: C_8  and  C_14
REMARK    8  A    between atoms: C_9  and  C_15
REMARK                            x       y       z     vdW  Elec       q    Type
REMARK                         _______ _______ _______ _____ _____    ______ ____
ROOT
ATOM      4  N   UNL     1      11.288  12.165  22.143  0.00  0.00    -0.298 NA
ATOM      7  C   UNL     1      13.817  11.918  22.699  0.00  0.00    -0.002 C 
ATOM      8  C   UNL     1      13.600  12.076  21.176  0.00  0.00    +0.023 C 
ATOM      9  C   UNL     1      11.509  10.958  22.984  0.00  0.00    +0.072 C 
ATOM     10  C   UNL     1      13.017  10.704  23.204  0.00  0.00    +0.024 C 
ATOM     11  C   UNL     1      12.081  12.073  20.893  0.00  0.00    +0.090 C 
ATOM     12  C   UNL     1      13.219  13.170  23.369  0.00  0.00    +0.019 C 
ATOM     13  C   UNL     1      11.762  13.346  22.904  0.00  0.00    +0.085 C 
ENDROOT
BRANCH   8  14
ATOM     14  C   UNL     1      14.329  11.019  20.350  0.00  0.00    +0.109 C 
BRANCH  14   5
ATOM      5  N   UNL     1      14.500  11.489  19.001  0.00  0.00    -0.333 N 
ATOM     16  C   UNL     1      15.156  12.782  18.783  0.00  0.00    +0.129 C 
BRANCH   5  17
ATOM     17  C   UNL     1      14.049  10.744  17.899  0.00  0.00    +0.029 A 
ATOM     19  C   UNL     1      12.842  10.048  17.975  0.00  0.00    +0.023 A 
ATOM     20  C   UNL     1      14.808  10.700  16.730  0.00  0.00    +0.023 A 
ATOM     21  C   UNL     1      12.394   9.308  16.881  0.00  0.00    +0.002 A 
ATOM     22  C   UNL     1      14.359   9.960  15.636  0.00  0.00    +0.002 A 
ATOM     25  C   UNL     1      13.152   9.264  15.711  0.00  0.00    +0.000 A 
ENDBRANCH   5  17
ENDBRANCH  14   5
ENDBRANCH   8  14
BRANCH   9  15
ATOM     15  C   UNL     1      10.799   9.721  22.429  0.00  0.00    +0.124 C 
BRANCH  15   6
ATOM      6  N   UNL     1      11.678   8.586  22.502  0.00  0.00    -0.188 NA
ATOM     29  H   UNL     1      12.547   8.705  23.037  0.00  0.00    +0.148 HD
BRANCH   6   1
ATOM      1  S   UNL     1      11.701   7.395  21.259  0.00  0.00    +0.058 S 
ATOM      2  O   UNL     1      10.961   7.900  20.119  0.00  0.00    -0.153 OA
ATOM      3  O   UNL     1      11.388   6.092  21.813  0.00  0.00    -0.153 OA
BRANCH   1  18
ATOM     18  C   UNL     1      13.416   7.377  20.830  0.00  0.00    +0.105 A 
ATOM     23  C   UNL     1      14.381   7.644  21.801  0.00  0.00    +0.028 A 
ATOM     24  C   UNL     1      13.804   7.098  19.520  0.00  0.00    +0.028 A 
ATOM     26  C   UNL     1      15.733   7.633  21.462  0.00  0.00    +0.002 A 
ATOM     27  C   UNL     1      15.157   7.086  19.181  0.00  0.00    +0.002 A 
ATOM     28  C   UNL     1      16.122   7.355  20.153  0.00  0.00    +0.000 A 
ENDBRANCH   1  18
ENDBRANCH   6   1
ENDBRANCH  15   6
ENDBRANCH   9  15
TORSDOF 7
ENDMDL
MODEL 2
REMARK VINA RESULT:      -5.9     27.523     30.479
REMARK  Name = 40779854
REMARK  8 active torsions:
REMARK  status: ('A' for Active; 'I' for Inactive)
REMARK    1  A    between atoms: S_1  and  N_6
REMARK    2  A    between atoms: S_1  and  C_18
REMARK    3  A    between atoms: N_5  and  C_14
REMARK    4  A    between atoms: N_5  and  C_16
REMARK    5  A    between atoms: N_5  and  C_17
REMARK    6  A    between atoms: N_6  and  C_15
REMARK    7  A    between atoms: C_8  and  C_14
REMARK    8  A    between atoms: C_9  and  C_15
REMARK                            x       y       z     vdW  Elec       q    Type
REMARK                         _______ _______ _______ _____ _____    ______ ____
ROOT
ATOM      4  N   UNL     1     -17.497   4.179  24.139  0.00  0.00    -0.298 NA
ATOM      7  C   UNL     1     -17.335   2.454  26.080  0.00  0.00    -0.002 C 
ATOM      8  C   UNL     1     -17.652   3.867  26.622  0.00  0.00    +0.023 C 
ATOM      9  C   UNL     1     -16.218   3.425  24.046  0.00  0.00    +0.072 C 
ATOM     10  C   UNL     1     -16.028   2.501  25.269  0.00  0.00    +0.024 C 
ATOM     11  C   UNL     1     -17.593   4.870  25.447  0.00  0.00    +0.090 C 
ATOM     12  C   UNL     1     -18.468   2.087  25.101  0.00  0.00    +0.019 C 
ATOM     13  C   UNL     1     -18.610   3.202  24.050  0.00  0.00    +0.085 C 
ENDROOT
BRANCH   8  14
ATOM     14  C   UNL     1     -16.739   4.291  27.770  0.00  0.00    +0.109 C 
BRANCH  14   5
ATOM      5  N   UNL     1     -16.943   3.422  28.900  0.00  0.00    -0.333 N 
ATOM     16  C   UNL     1     -18.257   3.409  29.549  0.00  0.00    +0.129 C 
BRANCH   5  17
ATOM     17  C   UNL     1     -15.915   2.600  29.391  0.00  0.00    +0.029 A 
ATOM     19  C   UNL     1     -14.726   3.168  29.849  0.00  0.00    +0.023 A 
ATOM     20  C   UNL     1     -16.084   1.216  29.422  0.00  0.00    +0.023 A 
ATOM     21  C   UNL     1     -13.706   2.353  30.337  0.00  0.00    +0.002 A 
ATOM     22  C   UNL     1     -15.064   0.401  29.910  0.00  0.00    +0.002 A 
ATOM     25  C   UNL     1     -13.874   0.968  30.368  0.00  0.00    +0.000 A 
ENDBRANCH   5  17
ENDBRANCH  14   5
ENDBRANCH   8  14
BRANCH   9  15
ATOM     15  C   UNL     1     -15.013   4.345  23.835  0.00  0.00    +0.124 C 
BRANCH  15   6
ATOM      6  N   UNL     1     -14.728   4.454  22.431  0.00  0.00    -0.188 NA
ATOM     29  H   UNL     1     -13.819   4.094  22.113  0.00  0.00    +0.148 HD
BRANCH   6   1
ATOM      1  S   UNL     1     -15.443   5.690  21.471  0.00  0.00    +0.058 S 
ATOM      2  O   UNL     1     -16.150   6.606  22.344  0.00  0.00    -0.153 OA
ATOM      3  O   UNL     1     -16.116   5.105  20.327  0.00  0.00    -0.153 OA
BRANCH   1  18
ATOM     18  C   UNL     1     -14.009   6.522  20.855  0.00  0.00    +0.105 A 
ATOM     23  C   UNL     1     -12.752   6.231  21.386  0.00  0.00    +0.028 A 
ATOM     24  C   UNL     1     -14.135   7.472  19.842  0.00  0.00    +0.028 A 
ATOM     26  C   UNL     1     -11.622   6.889  20.903  0.00  0.00    +0.002 A 
ATOM     27  C   UNL     1     -13.005   8.130  19.359  0.00  0.00    +0.002 A 
ATOM     28  C   UNL     1     -11.747   7.840  19.890  0.00  0.00    +0.000 A 
ENDBRANCH   1  18
ENDBRANCH   6   1
ENDBRANCH  15   6
ENDBRANCH   9  15
TORSDOF 7
ENDMDL
MODEL 3
REMARK VINA RESULT:      -5.8     27.027     29.057
REMARK  Name = 40779854
REMARK  8 active torsions:
REMARK  status: ('A' for Active; 'I' for Inactive)
REMARK    1  A    between atoms: S_1  and  N_6
REMARK    2  A    between atoms: S_1  and  C_18
REMARK    3  A    between atoms: N_5  and  C_14
REMARK    4  A    between atoms: N_5  and  C_16
REMARK    5  A    between atoms: N_5  and  C_17
REMARK    6  A    between atoms: N_6  and  C_15
REMARK    7  A    between atoms: C_8  and  C_14
REMARK    8  A    between atoms: C_9  and  C_15
REMARK                            x       y       z     vdW  Elec       q    Type
REMARK                         _______ _______ _______ _____ _____    ______ ____
ROOT
ATOM      4  N   UNL     1      -5.289 -10.347  17.955  0.00  0.00    -0.298 NA
ATOM      7  C   UNL     1      -5.395 -12.671  16.790  0.00  0.00    -0.002 C 
ATOM      8  C   UNL     1      -4.394 -11.738  16.071  0.00  0.00    +0.023 C 
ATOM      9  C   UNL     1      -6.702 -10.698  17.646  0.00  0.00    +0.072 C 
ATOM     10  C   UNL     1      -6.781 -12.002  16.822  0.00  0.00    +0.024 C 
ATOM     11  C   UNL     1      -4.479 -10.335  16.713  0.00  0.00    +0.090 C 
ATOM     12  C   UNL     1      -4.917 -12.800  18.250  0.00  0.00    +0.019 C 
ATOM     13  C   UNL     1      -4.743 -11.394  18.852  0.00  0.00    +0.085 C 
ENDROOT
BRANCH   8  14
ATOM     14  C   UNL     1      -4.604 -11.680  14.559  0.00  0.00    +0.109 C 
BRANCH  14   5
ATOM      5  N   UNL     1      -3.333 -11.547  13.897  0.00  0.00    -0.333 N 
ATOM     16  C   UNL     1      -2.168 -12.233  14.464  0.00  0.00    +0.129 C 
BRANCH   5  17
ATOM     17  C   UNL     1      -3.187 -10.776  12.732  0.00  0.00    +0.029 A 
ATOM     19  C   UNL     1      -4.314 -10.392  12.004  0.00  0.00    +0.023 A 
ATOM     20  C   UNL     1      -1.916 -10.395  12.303  0.00  0.00    +0.023 A 
ATOM     21  C   UNL     1      -4.169  -9.626  10.847  0.00  0.00    +0.002 A 
ATOM     22  C   UNL     1      -1.771  -9.629  11.147  0.00  0.00    +0.002 A 
ATOM     25  C   UNL     1      -2.897  -9.244  10.418  0.00  0.00    +0.000 A 
ENDBRANCH   5  17
ENDBRANCH  14   5
ENDBRANCH   8  14
BRANCH   9  15
ATOM     15  C   UNL     1      -7.455  -9.551  16.969  0.00  0.00    +0.124 C 
BRANCH  15   6
ATOM      6  N   UNL     1      -8.486  -9.067  17.845  0.00  0.00    -0.188 NA
ATOM     29  H   UNL     1      -8.182  -8.648  18.733  0.00  0.00    +0.148 HD
BRANCH   6   1
ATOM      1  S   UNL     1     -10.068  -9.744  17.818  0.00  0.00    +0.058 S 
ATOM      2  O   UNL     1     -10.535  -9.887  19.182  0.00  0.00    -0.153 OA
ATOM      3  O   UNL     1     -10.110 -10.875  16.910  0.00  0.00    -0.153 OA
BRANCH   1  18
ATOM     18  C   UNL     1     -10.990  -8.440  17.060  0.00  0.00    +0.105 A 
ATOM     23  C   UNL     1     -10.362  -7.236  16.741  0.00  0.00    +0.028 A 
ATOM     24  C   UNL     1     -12.346  -8.613  16.785  0.00  0.00    +0.028 A 
ATOM     26  C   UNL     1     -11.089  -6.206  16.147  0.00  0.00    +0.002 A 
ATOM     27  C   UNL     1     -13.074  -7.583  16.190  0.00  0.00    +0.002 A 
ATOM     28  C   UNL     1     -12.445  -6.378  15.871  0.00  0.00    +0.000 A 
ENDBRANCH   1  18
ENDBRANCH   6   1
ENDBRANCH  15   6
ENDBRANCH   9  15
TORSDOF 7
ENDMDL
MODEL 4
REMARK VINA RESULT:      -5.8     27.161     29.172
REMARK  Name = 40779854
REMARK  8 active torsions:
REMARK  status: ('A' for Active; 'I' for Inactive)
REMARK    1  A    between atoms: S_1  and  N_6
REMARK    2  A    between atoms: S_1  and  C_18
REMARK    3  A    between atoms: N_5  and  C_14
REMARK    4  A    between atoms: N_5  and  C_16
REMARK    5  A    between atoms: N_5  and  C_17
REMARK    6  A    between atoms: N_6  and  C_15
REMARK    7  A    between atoms: C_8  and  C_14
REMARK    8  A    between atoms: C_9  and  C_15
REMARK                            x       y       z     vdW  Elec       q    Type
REMARK                         _______ _______ _______ _____ _____    ______ ____
ROOT
ATOM      4  N   UNL     1      -5.362 -12.731  16.797  0.00  0.00    -0.298 NA
ATOM      7  C   UNL     1      -5.207 -10.688  18.401  0.00  0.00    -0.002 C 
ATOM      8  C   UNL     1      -6.682 -11.057  18.119  0.00  0.00    +0.023 C 
ATOM      9  C   UNL     1      -4.480 -11.687  16.210  0.00  0.00    +0.072 C 
ATOM     10  C   UNL     1      -4.488 -10.404  17.070  0.00  0.00    +0.024 C 
ATOM     11  C   UNL     1      -6.714 -12.176  17.054  0.00  0.00    +0.090 C 
ATOM     12  C   UNL     1      -4.546 -11.934  19.021  0.00  0.00    +0.019 C 
ATOM     13  C   UNL     1      -4.779 -13.144  18.097  0.00  0.00    +0.085 C 
ENDROOT
BRANCH   8  14
ATOM     14  C   UNL     1      -7.533  -9.859  17.702  0.00  0.00    +0.109 C 
BRANCH  14   5
ATOM      5  N   UNL     1      -8.860  -9.994  18.244  0.00  0.00    -0.333 N 
ATOM     16  C   UNL     1      -9.073 -10.917  19.364  0.00  0.00    +0.129 C 
BRANCH   5  17
ATOM     17  C   UNL     1      -9.946  -9.272  17.722  0.00  0.00    +0.029 A 
ATOM     19  C   UNL     1      -9.742  -8.004  17.177  0.00  0.00    +0.023 A 
ATOM     20  C   UNL     1     -11.227  -9.822  17.749  0.00  0.00    +0.023 A 
ATOM     21  C   UNL     1     -10.820  -7.286  16.658  0.00  0.00    +0.002 A 
ATOM     22  C   UNL     1     -12.304  -9.105  17.231  0.00  0.00    +0.002 A 
ATOM     25  C   UNL     1     -12.102  -7.837  16.685  0.00  0.00    +0.000 A 
ENDBRANCH   5  17
ENDBRANCH  14   5
ENDBRANCH   8  14
BRANCH   9  15
ATOM     15  C   UNL     1      -4.817 -11.392  14.746  0.00  0.00    +0.124 C 
BRANCH  15   6
ATOM      6  N   UNL     1      -3.881 -10.438  14.217  0.00  0.00    -0.188 NA
ATOM     29  H   UNL     1      -4.078  -9.446  14.399  0.00  0.00    +0.148 HD
BRANCH   6   1
ATOM      1  S   UNL     1      -2.946 -10.791  12.817  0.00  0.00    +0.058 S 
ATOM      2  O   UNL     1      -3.053 -12.208  12.531  0.00  0.00    -0.153 OA
ATOM      3  O   UNL     1      -1.642 -10.163  12.918  0.00  0.00    -0.153 OA
BRANCH   1  18
ATOM     18  C   UNL     1      -3.845  -9.915  11.571  0.00  0.00    +0.105 A 
ATOM     23  C   UNL     1      -3.222  -9.573  10.372  0.00  0.00    +0.028 A 
ATOM     24  C   UNL     1      -5.177  -9.564  11.791  0.00  0.00    +0.028 A 
ATOM     26  C   UNL     1      -3.930  -8.879   9.391  0.00  0.00    +0.002 A 
ATOM     27  C   UNL     1      -5.885  -8.871  10.810  0.00  0.00    +0.002 A 
ATOM     28  C   UNL     1      -5.261  -8.527   9.609  0.00  0.00    +0.000 A 
ENDBRANCH   1  18
ENDBRANCH   6   1
ENDBRANCH  15   6
ENDBRANCH   9  15
TORSDOF 7
ENDMDL
MODEL 5
REMARK VINA RESULT:      -5.7     27.855     30.919
REMARK  Name = 40779854
REMARK  8 active torsions:
REMARK  status: ('A' for Active; 'I' for Inactive)
REMARK    1  A    between atoms: S_1  and  N_6
REMARK    2  A    between atoms: S_1  and  C_18
REMARK    3  A    between atoms: N_5  and  C_14
REMARK    4  A    between atoms: N_5  and  C_16
REMARK    5  A    between atoms: N_5  and  C_17
REMARK    6  A    between atoms: N_6  and  C_15
REMARK    7  A    between atoms: C_8  and  C_14
REMARK    8  A    between atoms: C_9  and  C_15
REMARK                            x       y       z     vdW  Elec       q    Type
REMARK                         _______ _______ _______ _____ _____    ______ ____
ROOT
ATOM      4  N   UNL     1     -17.061   3.750  27.295  0.00  0.00    -0.298 NA
ATOM      7  C   UNL     1     -17.402   1.300  28.102  0.00  0.00    -0.002 C 
ATOM      8  C   UNL     1     -16.366   2.032  28.985  0.00  0.00    +0.023 C 
ATOM      9  C   UNL     1     -16.891   2.809  26.155  0.00  0.00    +0.072 C 
ATOM     10  C   UNL     1     -16.942   1.341  26.634  0.00  0.00    +0.024 C 
ATOM     11  C   UNL     1     -16.097   3.426  28.375  0.00  0.00    +0.090 C 
ATOM     12  C   UNL     1     -18.714   2.104  28.192  0.00  0.00    +0.019 C 
ATOM     13  C   UNL     1     -18.432   3.575  27.833  0.00  0.00    +0.085 C 
ENDROOT
BRANCH   8  14
ATOM     14  C   UNL     1     -15.072   1.242  29.176  0.00  0.00    +0.109 C 
BRANCH  14   5
ATOM      5  N   UNL     1     -14.860   0.988  30.577  0.00  0.00    -0.333 N 
ATOM     16  C   UNL     1     -15.003  -0.384  31.073  0.00  0.00    +0.129 C 
BRANCH   5  17
ATOM     17  C   UNL     1     -14.530   2.020  31.470  0.00  0.00    +0.029 A 
ATOM     19  C   UNL     1     -15.190   2.120  32.696  0.00  0.00    +0.023 A 
ATOM     20  C   UNL     1     -13.543   2.946  31.132  0.00  0.00    +0.023 A 
ATOM     21  C   UNL     1     -14.862   3.145  33.583  0.00  0.00    +0.002 A 
ATOM     22  C   UNL     1     -13.215   3.970  32.019  0.00  0.00    +0.002 A 
ATOM     25  C   UNL     1     -13.874   4.070  33.245  0.00  0.00    +0.000 A 
ENDBRANCH   5  17
ENDBRANCH  14   5
ENDBRANCH   8  14
BRANCH   9  15
ATOM     15  C   UNL     1     -15.628   3.099  25.341  0.00  0.00    +0.124 C 
BRANCH  15   6
ATOM      6  N   UNL     1     -15.676   4.444  24.837  0.00  0.00    -0.188 NA
ATOM     29  H   UNL     1     -15.733   5.199  25.533  0.00  0.00    +0.148 HD
BRANCH   6   1
ATOM      1  S   UNL     1     -16.318   4.789  23.277  0.00  0.00    +0.058 S 
ATOM      2  O   UNL     1     -17.457   5.672  23.429  0.00  0.00    -0.153 OA
ATOM      3  O   UNL     1     -16.440   3.565  22.508  0.00  0.00    -0.153 OA
BRANCH   1  18
ATOM     18  C   UNL     1     -14.998   5.720  22.559  0.00  0.00    +0.105 A 
ATOM     23  C   UNL     1     -13.826   5.077  22.161  0.00  0.00    +0.028 A 
ATOM     24  C   UNL     1     -15.126   7.099  22.395  0.00  0.00    +0.028 A 
ATOM     26  C   UNL     1     -12.783   5.812  21.598  0.00  0.00    +0.002 A 
ATOM     27  C   UNL     1     -14.084   7.834  21.831  0.00  0.00    +0.002 A 
ATOM     28  C   UNL     1     -12.911   7.190  21.433  0.00  0.00    +0.000 A 
ENDBRANCH   1  18
ENDBRANCH   6   1
ENDBRANCH  15   6
ENDBRANCH   9  15
TORSDOF 7
ENDMDL
MODEL 6
REMARK VINA RESULT:      -5.6      3.168      6.976
REMARK  Name = 40779854
REMARK  8 active torsions:
REMARK  status: ('A' for Active; 'I' for Inactive)
REMARK    1  A    between atoms: S_1  and  N_6
REMARK    2  A    between atoms: S_1  and  C_18
REMARK    3  A    between atoms: N_5  and  C_14
REMARK    4  A    between atoms: N_5  and  C_16
REMARK    5  A    between atoms: N_5  and  C_17
REMARK    6  A    between atoms: N_6  and  C_15
REMARK    7  A    between atoms: C_8  and  C_14
REMARK    8  A    between atoms: C_9  and  C_15
REMARK                            x       y       z     vdW  Elec       q    Type
REMARK                         _______ _______ _______ _____ _____    ______ ____
ROOT
ATOM      4  N   UNL     1      13.255   7.690  21.408  0.00  0.00    -0.298 NA
ATOM      7  C   UNL     1      14.426   8.049  19.112  0.00  0.00    -0.002 C 
ATOM      8  C   UNL     1      15.280   7.145  20.032  0.00  0.00    +0.023 C 
ATOM      9  C   UNL     1      13.342   9.143  21.102  0.00  0.00    +0.072 C 
ATOM     10  C   UNL     1      14.164   9.392  19.818  0.00  0.00    +0.024 C 
ATOM     11  C   UNL     1      14.609   7.086  21.423  0.00  0.00    +0.090 C 
ATOM     12  C   UNL     1      13.063   7.351  18.940  0.00  0.00    +0.019 C 
ATOM     13  C   UNL     1      12.473   7.041  20.327  0.00  0.00    +0.085 C 
ENDROOT
BRANCH   8  14
ATOM     14  C   UNL     1      16.738   7.590  20.128  0.00  0.00    +0.109 C 
BRANCH  14   5
ATOM      5  N   UNL     1      17.604   6.489  19.798  0.00  0.00    -0.333 N 
ATOM     16  C   UNL     1      17.259   5.639  18.654  0.00  0.00    +0.129 C 
BRANCH   5  17
ATOM     17  C   UNL     1      18.759   6.210  20.548  0.00  0.00    +0.029 A 
ATOM     19  C   UNL     1      19.012   6.915  21.726  0.00  0.00    +0.023 A 
ATOM     20  C   UNL     1      19.651   5.230  20.116  0.00  0.00    +0.023 A 
ATOM     21  C   UNL     1      20.158   6.639  22.471  0.00  0.00    +0.002 A 
ATOM     22  C   UNL     1      20.797   4.953  20.861  0.00  0.00    +0.002 A 
ATOM     25  C   UNL     1      21.052   5.657  22.039  0.00  0.00    +0.000 A 
ENDBRANCH   5  17
ENDBRANCH  14   5
ENDBRANCH   8  14
BRANCH   9  15
ATOM     15  C   UNL     1      13.873   9.958  22.284  0.00  0.00    +0.124 C 
BRANCH  15   6
ATOM      6  N   UNL     1      13.083  11.148  22.443  0.00  0.00    -0.188 NA
ATOM     29  H   UNL     1      13.533  12.040  22.203  0.00  0.00    +0.148 HD
BRANCH   6   1
ATOM      1  S   UNL     1      11.803  11.220  23.591  0.00  0.00    +0.058 S 
ATOM      2  O   UNL     1      12.368  11.478  24.901  0.00  0.00    -0.153 OA
ATOM      3  O   UNL     1      10.895  10.106  23.395  0.00  0.00    -0.153 OA
BRANCH   1  18
ATOM     18  C   UNL     1      10.951  12.678  23.068  0.00  0.00    +0.105 A 
ATOM     23  C   UNL     1      11.009  13.079  21.734  0.00  0.00    +0.028 A 
ATOM     24  C   UNL     1      10.224  13.430  23.992  0.00  0.00    +0.028 A 
ATOM     26  C   UNL     1      10.340  14.231  21.322  0.00  0.00    +0.002 A 
ATOM     27  C   UNL     1       9.555  14.582  23.580  0.00  0.00    +0.002 A 
ATOM     28  C   UNL     1       9.613  14.984  22.244  0.00  0.00    +0.000 A 
ENDBRANCH   1  18
ENDBRANCH   6   1
ENDBRANCH  15   6
ENDBRANCH   9  15
TORSDOF 7
ENDMDL
MODEL 7
REMARK VINA RESULT:      -5.6      3.117      4.372
REMARK  Name = 40779854
REMARK  8 active torsions:
REMARK  status: ('A' for Active; 'I' for Inactive)
REMARK    1  A    between atoms: S_1  and  N_6
REMARK    2  A    between atoms: S_1  and  C_18
REMARK    3  A    between atoms: N_5  and  C_14
REMARK    4  A    between atoms: N_5  and  C_16
REMARK    5  A    between atoms: N_5  and  C_17
REMARK    6  A    between atoms: N_6  and  C_15
REMARK    7  A    between atoms: C_8  and  C_14
REMARK    8  A    between atoms: C_9  and  C_15
REMARK                            x       y       z     vdW  Elec       q    Type
REMARK                         _______ _______ _______ _____ _____    ______ ____
ROOT
ATOM      4  N   UNL     1      12.701   7.559  21.910  0.00  0.00    -0.298 NA
ATOM      7  C   UNL     1      11.742   8.863  19.873  0.00  0.00    -0.002 C 
ATOM      8  C   UNL     1      12.536   7.621  19.408  0.00  0.00    +0.023 C 
ATOM      9  C   UNL     1      13.084   8.994  21.997  0.00  0.00    +0.072 C 
ATOM     10  C   UNL     1      12.654   9.762  20.727  0.00  0.00    +0.024 C 
ATOM     11  C   UNL     1      13.200   6.971  20.643  0.00  0.00    +0.090 C 
ATOM     12  C   UNL     1      10.613   8.355  20.792  0.00  0.00    +0.019 C 
ATOM     13  C   UNL     1      11.220   7.480  21.904  0.00  0.00    +0.085 C 
ENDROOT
BRANCH   8  14
ATOM     14  C   UNL     1      13.558   7.933  18.318  0.00  0.00    +0.109 C 
BRANCH  14   5
ATOM      5  N   UNL     1      12.982   8.836  17.356  0.00  0.00    -0.333 N 
ATOM     16  C   UNL     1      11.619   8.582  16.880  0.00  0.00    +0.129 C 
BRANCH   5  17
ATOM     17  C   UNL     1      13.696   9.941  16.864  0.00  0.00    +0.029 A 
ATOM     19  C   UNL     1      13.509  10.362  15.547  0.00  0.00    +0.023 A 
ATOM     20  C   UNL     1      14.592  10.617  17.691  0.00  0.00    +0.023 A 
ATOM     21  C   UNL     1      14.217  11.459  15.058  0.00  0.00    +0.002 A 
ATOM     22  C   UNL     1      15.300  11.714  17.202  0.00  0.00    +0.002 A 
ATOM     25  C   UNL     1      15.113  12.136  15.886  0.00  0.00    +0.000 A 
ENDBRANCH   5  17
ENDBRANCH  14   5
ENDBRANCH   8  14
BRANCH   9  15
ATOM     15  C   UNL     1      14.572   9.185  22.302  0.00  0.00    +0.124 C 
BRANCH  15   6
ATOM      6  N   UNL     1      15.203   9.878  21.212  0.00  0.00    -0.188 NA
ATOM     29  H   UNL     1      14.744   9.815  20.294  0.00  0.00    +0.148 HD
BRANCH   6   1
ATOM      1  S   UNL     1      16.899  10.168  21.204  0.00  0.00    +0.058 S 
ATOM      2  O   UNL     1      17.313  10.541  22.542  0.00  0.00    -0.153 OA
ATOM      3  O   UNL     1      17.257  11.000  20.071  0.00  0.00    -0.153 OA
BRANCH   1  18
ATOM     18  C   UNL     1      17.524   8.547  20.872  0.00  0.00    +0.105 A 
ATOM     23  C   UNL     1      18.737   8.141  21.427  0.00  0.00    +0.028 A 
ATOM     24  C   UNL     1      16.805   7.677  20.053  0.00  0.00    +0.028 A 
ATOM     26  C   UNL     1      19.232   6.864  21.162  0.00  0.00    +0.002 A 
ATOM     27  C   UNL     1      17.300   6.400  19.789  0.00  0.00    +0.002 A 
ATOM     28  C   UNL     1      18.515   5.994  20.343  0.00  0.00    +0.000 A 
ENDBRANCH   1  18
ENDBRANCH   6   1
ENDBRANCH  15   6
ENDBRANCH   9  15
TORSDOF 7
ENDMDL
MODEL 8
REMARK VINA RESULT:      -5.5     27.107     29.195
REMARK  Name = 40779854
REMARK  8 active torsions:
REMARK  status: ('A' for Active; 'I' for Inactive)
REMARK    1  A    between atoms: S_1  and  N_6
REMARK    2  A    between atoms: S_1  and  C_18
REMARK    3  A    between atoms: N_5  and  C_14
REMARK    4  A    between atoms: N_5  and  C_16
REMARK    5  A    between atoms: N_5  and  C_17
REMARK    6  A    between atoms: N_6  and  C_15
REMARK    7  A    between atoms: C_8  and  C_14
REMARK    8  A    between atoms: C_9  and  C_15
REMARK                            x       y       z     vdW  Elec       q    Type
REMARK                         _______ _______ _______ _____ _____    ______ ____
ROOT
ATOM      4  N   UNL     1      -6.266 -12.088  16.701  0.00  0.00    -0.298 NA
ATOM      7  C   UNL     1      -6.871 -10.689  18.810  0.00  0.00    -0.002 C 
ATOM      8  C   UNL     1      -8.046 -10.709  17.805  0.00  0.00    +0.023 C 
ATOM      9  C   UNL     1      -5.210 -11.073  16.959  0.00  0.00    +0.072 C 
ATOM     10  C   UNL     1      -5.615 -10.132  18.115  0.00  0.00    +0.024 C 
ATOM     11  C   UNL     1      -7.581 -11.427  16.518  0.00  0.00    +0.090 C 
ATOM     12  C   UNL     1      -6.574 -12.155  19.180  0.00  0.00    +0.019 C 
ATOM     13  C   UNL     1      -6.354 -12.969  17.892  0.00  0.00    +0.085 C 
ENDROOT
BRANCH   8  14
ATOM     14  C   UNL     1      -8.604  -9.319  17.504  0.00  0.00    +0.109 C 
BRANCH  14   5
ATOM      5  N   UNL     1      -9.996  -9.266  17.868  0.00  0.00    -0.333 N 
ATOM     16  C   UNL     1     -10.478 -10.143  18.940  0.00  0.00    +0.129 C 
BRANCH   5  17
ATOM     17  C   UNL     1     -10.894  -8.403  17.219  0.00  0.00    +0.029 A 
ATOM     19  C   UNL     1     -10.485  -7.121  16.848  0.00  0.00    +0.023 A 
ATOM     20  C   UNL     1     -12.194  -8.827  16.946  0.00  0.00    +0.023 A 
ATOM     21  C   UNL     1     -11.377  -6.264  16.204  0.00  0.00    +0.002 A 
ATOM     22  C   UNL     1     -13.085  -7.970  16.302  0.00  0.00    +0.002 A 
ATOM     25  C   UNL     1     -12.678  -6.688  15.930  0.00  0.00    +0.000 A 
ENDBRANCH   5  17
ENDBRANCH  14   5
ENDBRANCH   8  14
BRANCH   9  15
ATOM     15  C   UNL     1      -4.829 -10.293  15.698  0.00  0.00    +0.124 C 
BRANCH  15   6
ATOM      6  N   UNL     1      -3.447 -10.531  15.383  0.00  0.00    -0.188 NA
ATOM     29  H   UNL     1      -2.800  -9.742  15.509  0.00  0.00    +0.148 HD
BRANCH   6   1
ATOM      1  S   UNL     1      -2.989 -11.722  14.228  0.00  0.00    +0.058 S 
ATOM      2  O   UNL     1      -4.043 -12.714  14.141  0.00  0.00    -0.153 OA
ATOM      3  O   UNL     1      -1.617 -12.134  14.455  0.00  0.00    -0.153 OA
BRANCH   1  18
ATOM     18  C   UNL     1      -3.004 -10.778  12.734  0.00  0.00    +0.105 A 
ATOM     23  C   UNL     1      -1.812 -10.269  12.218  0.00  0.00    +0.028 A 
ATOM     24  C   UNL     1      -4.209 -10.539  12.072  0.00  0.00    +0.028 A 
ATOM     26  C   UNL     1      -1.825  -9.521  11.041  0.00  0.00    +0.002 A 
ATOM     27  C   UNL     1      -4.221  -9.791  10.895  0.00  0.00    +0.002 A 
ATOM     28  C   UNL     1      -3.028  -9.281  10.379  0.00  0.00    +0.000 A 
ENDBRANCH   1  18
ENDBRANCH   6   1
ENDBRANCH  15   6
ENDBRANCH   9  15
TORSDOF 7
ENDMDL
MODEL 9
REMARK VINA RESULT:      -5.5     13.836     16.865
REMARK  Name = 40779854
REMARK  8 active torsions:
REMARK  status: ('A' for Active; 'I' for Inactive)
REMARK    1  A    between atoms: S_1  and  N_6
REMARK    2  A    between atoms: S_1  and  C_18
REMARK    3  A    between atoms: N_5  and  C_14
REMARK    4  A    between atoms: N_5  and  C_16
REMARK    5  A    between atoms: N_5  and  C_17
REMARK    6  A    between atoms: N_6  and  C_15
REMARK    7  A    between atoms: C_8  and  C_14
REMARK    8  A    between atoms: C_9  and  C_15
REMARK                            x       y       z     vdW  Elec       q    Type
REMARK                         _______ _______ _______ _____ _____    ______ ____
ROOT
ATOM      4  N   UNL     1      13.565   9.606   6.044  0.00  0.00    -0.298 NA
ATOM      7  C   UNL     1      14.863   7.404   5.560  0.00  0.00    -0.002 C 
ATOM      8  C   UNL     1      14.259   7.985   4.261  0.00  0.00    +0.023 C 
ATOM      9  C   UNL     1      13.092   8.526   6.950  0.00  0.00    +0.072 C 
ATOM     10  C   UNL     1      13.739   7.172   6.585  0.00  0.00    +0.024 C 
ATOM     11  C   UNL     1      13.384   9.205   4.628  0.00  0.00    +0.090 C 
ATOM     12  C   UNL     1      15.796   8.484   6.142  0.00  0.00    +0.019 C 
ATOM     13  C   UNL     1      15.015   9.803   6.285  0.00  0.00    +0.085 C 
ENDROOT
BRANCH   8  14
ATOM     14  C   UNL     1      13.478   6.956   3.447  0.00  0.00    +0.109 C 
BRANCH  14   5
ATOM      5  N   UNL     1      14.219   6.609   2.263  0.00  0.00    -0.333 N 
ATOM     16  C   UNL     1      15.460   7.333   1.971  0.00  0.00    +0.129 C 
BRANCH   5  17
ATOM     17  C   UNL     1      13.778   5.604   1.386  0.00  0.00    +0.029 A 
ATOM     19  C   UNL     1      13.904   4.261   1.743  0.00  0.00    +0.023 A 
ATOM     20  C   UNL     1      13.213   5.949   0.158  0.00  0.00    +0.023 A 
ATOM     21  C   UNL     1      13.466   3.264   0.873  0.00  0.00    +0.002 A 
ATOM     22  C   UNL     1      12.775   4.952  -0.712  0.00  0.00    +0.002 A 
ATOM     25  C   UNL     1      12.901   3.609  -0.356  0.00  0.00    +0.000 A 
ENDBRANCH   5  17
ENDBRANCH  14   5
ENDBRANCH   8  14
BRANCH   9  15
ATOM     15  C   UNL     1      11.565   8.432   7.000  0.00  0.00    +0.124 C 
BRANCH  15   6
ATOM      6  N   UNL     1      11.173   7.075   7.266  0.00  0.00    -0.188 NA
ATOM     29  H   UNL     1      11.925   6.377   7.321  0.00  0.00    +0.148 HD
BRANCH   6   1
ATOM      1  S   UNL     1       9.618   6.493   6.814  0.00  0.00    +0.058 S 
ATOM      2  O   UNL     1       8.666   7.583   6.915  0.00  0.00    -0.153 OA
ATOM      3  O   UNL     1       9.350   5.227   7.470  0.00  0.00    -0.153 OA
BRANCH   1  18
ATOM     18  C   UNL     1       9.865   6.143   5.098  0.00  0.00    +0.105 A 
ATOM     23  C   UNL     1      10.392   4.913   4.707  0.00  0.00    +0.028 A 
ATOM     24  C   UNL     1       9.537   7.099   4.137  0.00  0.00    +0.028 A 
ATOM     26  C   UNL     1      10.591   4.638   3.354  0.00  0.00    +0.002 A 
ATOM     27  C   UNL     1       9.735   6.824   2.785  0.00  0.00    +0.002 A 
ATOM     28  C   UNL     1      10.263   5.593   2.392  0.00  0.00    +0.000 A 
ENDBRANCH   1  18
ENDBRANCH   6   1
ENDBRANCH  15   6
ENDBRANCH   9  15
TORSDOF 7
ENDMDL
MODEL 10
REMARK VINA RESULT:      -5.5     23.197     25.742
REMARK  Name = 40779854
REMARK  8 active torsions:
REMARK  status: ('A' for Active; 'I' for Inactive)
REMARK    1  A    between atoms: S_1  and  N_6
REMARK    2  A    between atoms: S_1  and  C_18
REMARK    3  A    between atoms: N_5  and  C_14
REMARK    4  A    between atoms: N_5  and  C_16
REMARK    5  A    between atoms: N_5  and  C_17
REMARK    6  A    between atoms: N_6  and  C_15
REMARK    7  A    between atoms: C_8  and  C_14
REMARK    8  A    between atoms: C_9  and  C_15
REMARK                            x       y       z     vdW  Elec       q    Type
REMARK                         _______ _______ _______ _____ _____    ______ ____
ROOT
ATOM      4  N   UNL     1       4.858  -9.641  37.214  0.00  0.00    -0.298 NA
ATOM      7  C   UNL     1       3.739 -10.617  35.078  0.00  0.00    -0.002 C 
ATOM      8  C   UNL     1       4.584 -11.693  35.799  0.00  0.00    +0.023 C 
ATOM      9  C   UNL     1       5.160  -8.778  36.040  0.00  0.00    +0.072 C 
ATOM     10  C   UNL     1       4.633  -9.412  34.735  0.00  0.00    +0.024 C 
ATOM     11  C   UNL     1       5.337 -11.024  36.971  0.00  0.00    +0.090 C 
ATOM     12  C   UNL     1       2.682 -10.128  36.088  0.00  0.00    +0.019 C 
ATOM     13  C   UNL     1       3.386  -9.685  37.383  0.00  0.00    +0.085 C 
ENDROOT
BRANCH   8  14
ATOM     14  C   UNL     1       5.539 -12.434  34.865  0.00  0.00    +0.109 C 
BRANCH  14   5
ATOM      5  N   UNL     1       4.791 -13.296  33.989  0.00  0.00    -0.333 N 
ATOM     16  C   UNL     1       3.793 -14.198  34.572  0.00  0.00    +0.129 C 
BRANCH   5  17
ATOM     17  C   UNL     1       5.001 -13.296  32.600  0.00  0.00    +0.029 A 
ATOM     19  C   UNL     1       4.168 -14.046  31.769  0.00  0.00    +0.023 A 
ATOM     20  C   UNL     1       6.042 -12.547  32.053  0.00  0.00    +0.023 A 
ATOM     21  C   UNL     1       4.376 -14.046  30.390  0.00  0.00    +0.002 A 
ATOM     22  C   UNL     1       6.250 -12.547  30.674  0.00  0.00    +0.002 A 
ATOM     25  C   UNL     1       5.418 -13.297  29.842  0.00  0.00    +0.000 A 
ENDBRANCH   5  17
ENDBRANCH  14   5
ENDBRANCH   8  14
BRANCH   9  15
ATOM     15  C   UNL     1       6.645  -8.423  35.942  0.00  0.00    +0.124 C 
BRANCH  15   6
ATOM      6  N   UNL     1       6.792  -7.010  35.726  0.00  0.00    -0.188 NA
ATOM     29  H   UNL     1       5.970  -6.424  35.919  0.00  0.00    +0.148 HD
BRANCH   6   1
ATOM      1  S   UNL     1       7.921  -6.396  34.581  0.00  0.00    +0.058 S 
ATOM      2  O   UNL     1       9.262  -6.681  35.052  0.00  0.00    -0.153 OA
ATOM      3  O   UNL     1       7.554  -5.047  34.194  0.00  0.00    -0.153 OA
BRANCH   1  18
ATOM     18  C   UNL     1       7.600  -7.437  33.188  0.00  0.00    +0.105 A 
ATOM     23  C   UNL     1       8.531  -8.405  32.812  0.00  0.00    +0.028 A 
ATOM     24  C   UNL     1       6.418  -7.288  32.464  0.00  0.00    +0.028 A 
ATOM     26  C   UNL     1       8.281  -9.224  31.712  0.00  0.00    +0.002 A 
ATOM     27  C   UNL     1       6.166  -8.108  31.364  0.00  0.00    +0.002 A 
ATOM     28  C   UNL     1       7.099  -9.076  30.986  0.00  0.00    +0.000 A 
ENDBRANCH   1  18
ENDBRANCH   6   1
ENDBRANCH  15   6
ENDBRANCH   9  15
TORSDOF 7
ENDMDL
