MODEL 1
REMARK VINA RESULT:      -5.8      0.000      0.000
REMARK  Name = 75536393
REMARK  10 active torsions:
REMARK  status: ('A' for Active; 'I' for Inactive)
REMARK    1  A    between atoms: O_2  and  C_11
REMARK    2  A    between atoms: O_5  and  C_27
REMARK    3  A    between atoms: O_5  and  C_33
REMARK    4  A    between atoms: N_6  and  C_15
REMARK    5  A    between atoms: N_8  and  C_21
REMARK    6  A    between atoms: C_9  and  C_14
REMARK    7  A    between atoms: C_10  and  C_15
REMARK    8  A    between atoms: C_14  and  C_16
REMARK    9  A    between atoms: C_19  and  C_20
REMARK   10  A    between atoms: C_21  and  C_24
REMARK                            x       y       z     vdW  Elec       q    Type
REMARK                         _______ _______ _______ _____ _____    ______ ____
ROOT
ATOM      1  O   UNL     1      -6.773 -11.964  17.396  0.00  0.00    -0.369 OA
ATOM      9  C   UNL     1      -6.105 -10.787  16.935  0.00  0.00    +0.125 C 
ATOM     10  C   UNL     1      -6.314 -12.472  18.656  0.00  0.00    +0.164 C 
ATOM     11  C   UNL     1      -4.802 -12.735  18.635  0.00  0.00    +0.145 C 
ATOM     12  C   UNL     1      -4.606 -11.041  16.786  0.00  0.00    +0.034 C 
ATOM     13  C   UNL     1      -4.013 -11.543  18.099  0.00  0.00    +0.036 C 
ENDROOT
BRANCH  11   2
ATOM      2  O   UNL     1      -4.540 -13.851  17.780  0.00  0.00    -0.389 OA
ATOM     34  H   UNL     1      -4.155 -14.556  18.327  0.00  0.00    +0.210 HD
ENDBRANCH  11   2
BRANCH   9  14
ATOM     14  C   UNL     1      -6.725 -10.402  15.597  0.00  0.00    +0.090 C 
BRANCH  14  16
ATOM      3  O   UNL     1      -9.347  -8.217  16.756  0.00  0.00    -0.354 OA
ATOM      7  N   UNL     1      -8.150  -8.902  16.930  0.00  0.00    -0.083 NA
ATOM     16  C   UNL     1      -7.949  -9.544  15.776  0.00  0.00    +0.087 A 
ATOM     17  C   UNL     1      -8.975  -9.305  14.846  0.00  0.00    +0.076 A 
ATOM     19  C   UNL     1      -9.829  -8.466  15.512  0.00  0.00    +0.167 A 
BRANCH  19  20
ATOM     20  C   UNL     1     -11.067  -7.821  15.184  0.00  0.00    +0.020 A 
ATOM     22  C   UNL     1     -11.702  -8.101  13.975  0.00  0.00    +0.015 A 
ATOM     23  C   UNL     1     -11.637  -6.912  16.077  0.00  0.00    +0.015 A 
ATOM     25  C   UNL     1     -12.905  -7.472  13.656  0.00  0.00    +0.046 A 
ATOM     26  C   UNL     1     -12.841  -6.283  15.758  0.00  0.00    +0.046 A 
ATOM     27  C   UNL     1     -13.475  -6.563  14.548  0.00  0.00    +0.120 A 
BRANCH  27   5
ATOM      5  O   UNL     1     -14.648  -5.948  14.236  0.00  0.00    -0.495 OA
ATOM     33  C   UNL     1     -15.845  -6.703  14.417  0.00  0.00    +0.277 C 
ENDBRANCH  27   5
ENDBRANCH  19  20
ENDBRANCH  14  16
ENDBRANCH   9  14
BRANCH  10  15
ATOM     15  C   UNL     1      -6.745 -11.563  19.805  0.00  0.00    +0.140 C 
BRANCH  15   6
ATOM      4  O   UNL     1      -9.536 -11.880  20.421  0.00  0.00    -0.253 OA
ATOM      6  N   UNL     1      -7.814 -10.700  19.404  0.00  0.00    -0.297 N 
ATOM      8  N   UNL     1      -9.988  -9.938  19.231  0.00  0.00    -0.295 N 
ATOM     18  C   UNL     1      -9.152 -10.925  19.746  0.00  0.00    +0.300 C 
ATOM     35  H   UNL     1      -7.591  -9.893  18.828  0.00  0.00    +0.150 HD
ATOM     36  H   UNL     1      -9.565  -9.194  18.683  0.00  0.00    +0.151 HD
BRANCH   8  21
ATOM     21  C   UNL     1     -11.418  -9.928  19.435  0.00  0.00    +0.141 C 
BRANCH  21  24
ATOM     24  C   UNL     1     -12.170 -10.153  18.155  0.00  0.00    -0.030 A 
ATOM     28  C   UNL     1     -13.374  -9.487  17.925  0.00  0.00    +0.005 A 
ATOM     29  C   UNL     1     -11.664 -11.030  17.195  0.00  0.00    +0.005 A 
ATOM     30  C   UNL     1     -14.071  -9.696  16.736  0.00  0.00    +0.000 A 
ATOM     31  C   UNL     1     -12.362 -11.240  16.004  0.00  0.00    +0.000 A 
ATOM     32  C   UNL     1     -13.566 -10.573  15.776  0.00  0.00    +0.000 A 
ENDBRANCH  21  24
ENDBRANCH   8  21
ENDBRANCH  15   6
ENDBRANCH  10  15
TORSDOF 9
ENDMDL
MODEL 2
REMARK VINA RESULT:      -5.7      5.011      7.730
REMARK  Name = 75536393
REMARK  10 active torsions:
REMARK  status: ('A' for Active; 'I' for Inactive)
REMARK    1  A    between atoms: O_2  and  C_11
REMARK    2  A    between atoms: O_5  and  C_27
REMARK    3  A    between atoms: O_5  and  C_33
REMARK    4  A    between atoms: N_6  and  C_15
REMARK    5  A    between atoms: N_8  and  C_21
REMARK    6  A    between atoms: C_9  and  C_14
REMARK    7  A    between atoms: C_10  and  C_15
REMARK    8  A    between atoms: C_14  and  C_16
REMARK    9  A    between atoms: C_19  and  C_20
REMARK   10  A    between atoms: C_21  and  C_24
REMARK                            x       y       z     vdW  Elec       q    Type
REMARK                         _______ _______ _______ _____ _____    ______ ____
ROOT
ATOM      1  O   UNL     1      -6.306  -9.810  17.203  0.00  0.00    -0.369 OA
ATOM      9  C   UNL     1      -7.158 -10.798  16.615  0.00  0.00    +0.125 C 
ATOM     10  C   UNL     1      -5.309 -10.320  18.098  0.00  0.00    +0.164 C 
ATOM     11  C   UNL     1      -5.939 -11.162  19.216  0.00  0.00    +0.145 C 
ATOM     12  C   UNL     1      -7.898 -11.584  17.696  0.00  0.00    +0.034 C 
ATOM     13  C   UNL     1      -6.911 -12.209  18.677  0.00  0.00    +0.036 C 
ENDROOT
BRANCH  11   2
ATOM      2  O   UNL     1      -6.670 -10.297  20.088  0.00  0.00    -0.389 OA
ATOM     34  H   UNL     1      -6.230 -10.314  20.955  0.00  0.00    +0.210 HD
ENDBRANCH  11   2
BRANCH   9  14
ATOM     14  C   UNL     1      -8.141 -10.071  15.705  0.00  0.00    +0.090 C 
BRANCH  14  16
ATOM      3  O   UNL     1      -6.175  -9.827  12.692  0.00  0.00    -0.354 OA
ATOM      7  N   UNL     1      -6.303  -9.927  14.073  0.00  0.00    -0.083 NA
ATOM     16  C   UNL     1      -7.619  -9.962  14.296  0.00  0.00    +0.087 A 
ATOM     17  C   UNL     1      -8.365  -9.888  13.107  0.00  0.00    +0.076 A 
ATOM     19  C   UNL     1      -7.410  -9.804  12.129  0.00  0.00    +0.167 A 
BRANCH  19  20
ATOM     20  C   UNL     1      -7.438  -9.704  10.698  0.00  0.00    +0.020 A 
ATOM     22  C   UNL     1      -7.744 -10.824   9.926  0.00  0.00    +0.015 A 
ATOM     23  C   UNL     1      -7.158  -8.485  10.079  0.00  0.00    +0.015 A 
ATOM     25  C   UNL     1      -7.770 -10.727   8.535  0.00  0.00    +0.046 A 
ATOM     26  C   UNL     1      -7.184  -8.388   8.688  0.00  0.00    +0.046 A 
ATOM     27  C   UNL     1      -7.490  -9.508   7.916  0.00  0.00    +0.120 A 
BRANCH  27   5
ATOM      5  O   UNL     1      -7.513  -9.414   6.559  0.00  0.00    -0.495 OA
ATOM     33  C   UNL     1      -6.378  -9.915   5.853  0.00  0.00    +0.277 C 
ENDBRANCH  27   5
ENDBRANCH  19  20
ENDBRANCH  14  16
ENDBRANCH   9  14
BRANCH  10  15
ATOM     15  C   UNL     1      -4.215 -11.064  17.335  0.00  0.00    +0.140 C 
BRANCH  15   6
ATOM      4  O   UNL     1      -2.208 -11.798  15.412  0.00  0.00    -0.253 OA
ATOM      6  N   UNL     1      -4.069 -10.545  16.010  0.00  0.00    -0.297 N 
ATOM      8  N   UNL     1      -3.143 -10.297  13.908  0.00  0.00    -0.295 N 
ATOM     18  C   UNL     1      -3.060 -10.956  15.131  0.00  0.00    +0.300 C 
ATOM     35  H   UNL     1      -4.721  -9.831  15.697  0.00  0.00    +0.150 HD
ATOM     36  H   UNL     1      -3.888  -9.616  13.783  0.00  0.00    +0.151 HD
BRANCH   8  21
ATOM     21  C   UNL     1      -2.224 -10.532  12.819  0.00  0.00    +0.141 C 
BRANCH  21  24
ATOM     24  C   UNL     1      -2.922 -10.560  11.490  0.00  0.00    -0.030 A 
ATOM     28  C   UNL     1      -3.060  -9.388  10.748  0.00  0.00    +0.005 A 
ATOM     29  C   UNL     1      -3.433 -11.761  10.997  0.00  0.00    +0.005 A 
ATOM     30  C   UNL     1      -3.707  -9.414   9.513  0.00  0.00    +0.000 A 
ATOM     31  C   UNL     1      -4.081 -11.789   9.761  0.00  0.00    +0.000 A 
ATOM     32  C   UNL     1      -4.218 -10.615   9.020  0.00  0.00    +0.000 A 
ENDBRANCH  21  24
ENDBRANCH   8  21
ENDBRANCH  15   6
ENDBRANCH  10  15
TORSDOF 9
ENDMDL
MODEL 3
REMARK VINA RESULT:      -5.7     29.169     31.871
REMARK  Name = 75536393
REMARK  10 active torsions:
REMARK  status: ('A' for Active; 'I' for Inactive)
REMARK    1  A    between atoms: O_2  and  C_11
REMARK    2  A    between atoms: O_5  and  C_27
REMARK    3  A    between atoms: O_5  and  C_33
REMARK    4  A    between atoms: N_6  and  C_15
REMARK    5  A    between atoms: N_8  and  C_21
REMARK    6  A    between atoms: C_9  and  C_14
REMARK    7  A    between atoms: C_10  and  C_15
REMARK    8  A    between atoms: C_14  and  C_16
REMARK    9  A    between atoms: C_19  and  C_20
REMARK   10  A    between atoms: C_21  and  C_24
REMARK                            x       y       z     vdW  Elec       q    Type
REMARK                         _______ _______ _______ _____ _____    ______ ____
ROOT
ATOM      1  O   UNL     1      14.929  12.953  15.975  0.00  0.00    -0.369 OA
ATOM      9  C   UNL     1      16.141  12.254  16.273  0.00  0.00    +0.125 C 
ATOM     10  C   UNL     1      14.430  12.766  14.644  0.00  0.00    +0.164 C 
ATOM     11  C   UNL     1      15.485  13.133  13.593  0.00  0.00    +0.145 C 
ATOM     12  C   UNL     1      17.257  12.679  15.320  0.00  0.00    +0.034 C 
ATOM     13  C   UNL     1      16.834  12.471  13.869  0.00  0.00    +0.036 C 
ENDROOT
BRANCH  11   2
ATOM      2  O   UNL     1      15.682  14.549  13.613  0.00  0.00    -0.389 OA
ATOM     34  H   UNL     1      15.617  14.867  12.697  0.00  0.00    +0.210 HD
ENDBRANCH  11   2
BRANCH   9  14
ATOM     14  C   UNL     1      16.510  12.573  17.717  0.00  0.00    +0.090 C 
BRANCH  14  16
ATOM      3  O   UNL     1      14.017  10.736  19.563  0.00  0.00    -0.354 OA
ATOM      7  N   UNL     1      14.927  10.867  18.520  0.00  0.00    -0.083 NA
ATOM     16  C   UNL     1      15.464  12.080  18.681  0.00  0.00    +0.087 A 
ATOM     17  C   UNL     1      14.937  12.754  19.797  0.00  0.00    +0.076 A 
ATOM     19  C   UNL     1      14.032  11.866  20.315  0.00  0.00    +0.167 A 
BRANCH  19  20
ATOM     20  C   UNL     1      13.139  11.877  21.437  0.00  0.00    +0.020 A 
ATOM     22  C   UNL     1      13.593  11.477  22.694  0.00  0.00    +0.015 A 
ATOM     23  C   UNL     1      11.816  12.287  21.271  0.00  0.00    +0.015 A 
ATOM     25  C   UNL     1      12.723  11.486  23.785  0.00  0.00    +0.046 A 
ATOM     26  C   UNL     1      10.947  12.296  22.362  0.00  0.00    +0.046 A 
ATOM     27  C   UNL     1      11.400  11.896  23.619  0.00  0.00    +0.120 A 
BRANCH  27   5
ATOM      5  O   UNL     1      10.552  11.903  24.682  0.00  0.00    -0.495 OA
ATOM     33  C   UNL     1      10.589  13.046  25.536  0.00  0.00    +0.277 C 
ENDBRANCH  27   5
ENDBRANCH  19  20
ENDBRANCH  14  16
ENDBRANCH   9  14
BRANCH  10  15
ATOM     15  C   UNL     1      13.870  11.357  14.461  0.00  0.00    +0.140 C 
BRANCH  15   6
ATOM      4  O   UNL     1      13.416   8.624  15.231  0.00  0.00    -0.253 OA
ATOM      6  N   UNL     1      13.227  10.900  15.654  0.00  0.00    -0.297 N 
ATOM      8  N   UNL     1      12.391   9.375  17.175  0.00  0.00    -0.295 N 
ATOM     18  C   UNL     1      13.043   9.546  15.957  0.00  0.00    +0.300 C 
ATOM     35  H   UNL     1      12.871  11.593  16.306  0.00  0.00    +0.150 HD
ATOM     36  H   UNL     1      12.125  10.207  17.694  0.00  0.00    +0.151 HD
BRANCH   8  21
ATOM     21  C   UNL     1      12.076   8.078  17.728  0.00  0.00    +0.141 C 
BRANCH  21  24
ATOM     24  C   UNL     1      12.061   8.095  19.229  0.00  0.00    -0.030 A 
ATOM     28  C   UNL     1      10.973   8.641  19.911  0.00  0.00    +0.005 A 
ATOM     29  C   UNL     1      13.135   7.564  19.943  0.00  0.00    +0.005 A 
ATOM     30  C   UNL     1      10.959   8.656  21.305  0.00  0.00    +0.000 A 
ATOM     31  C   UNL     1      13.122   7.578  21.338  0.00  0.00    +0.000 A 
ATOM     32  C   UNL     1      12.034   8.125  22.018  0.00  0.00    +0.000 A 
ENDBRANCH  21  24
ENDBRANCH   8  21
ENDBRANCH  15   6
ENDBRANCH  10  15
TORSDOF 9
ENDMDL
MODEL 4
REMARK VINA RESULT:      -5.5      4.450      7.850
REMARK  Name = 75536393
REMARK  10 active torsions:
REMARK  status: ('A' for Active; 'I' for Inactive)
REMARK    1  A    between atoms: O_2  and  C_11
REMARK    2  A    between atoms: O_5  and  C_27
REMARK    3  A    between atoms: O_5  and  C_33
REMARK    4  A    between atoms: N_6  and  C_15
REMARK    5  A    between atoms: N_8  and  C_21
REMARK    6  A    between atoms: C_9  and  C_14
REMARK    7  A    between atoms: C_10  and  C_15
REMARK    8  A    between atoms: C_14  and  C_16
REMARK    9  A    between atoms: C_19  and  C_20
REMARK   10  A    between atoms: C_21  and  C_24
REMARK                            x       y       z     vdW  Elec       q    Type
REMARK                         _______ _______ _______ _____ _____    ______ ____
ROOT
ATOM      1  O   UNL     1      -5.708 -11.067  10.472  0.00  0.00    -0.369 OA
ATOM      9  C   UNL     1      -6.152  -9.728  10.236  0.00  0.00    +0.125 C 
ATOM     10  C   UNL     1      -4.471 -11.419   9.838  0.00  0.00    +0.164 C 
ATOM     11  C   UNL     1      -4.528 -11.174   8.324  0.00  0.00    +0.145 C 
ATOM     12  C   UNL     1      -6.337  -9.477   8.741  0.00  0.00    +0.034 C 
ATOM     13  C   UNL     1      -5.049  -9.780   7.981  0.00  0.00    +0.036 C 
ENDROOT
BRANCH  11   2
ATOM      2  O   UNL     1      -5.416 -12.128   7.737  0.00  0.00    -0.389 OA
ATOM     34  H   UNL     1      -5.950 -11.662   7.072  0.00  0.00    +0.210 HD
ENDBRANCH  11   2
BRANCH   9  14
ATOM     14  C   UNL     1      -7.467  -9.544  10.984  0.00  0.00    +0.090 C 
BRANCH  14  16
ATOM      3  O   UNL     1      -6.291  -9.611  14.390  0.00  0.00    -0.354 OA
ATOM      7  N   UNL     1      -6.112  -9.376  13.032  0.00  0.00    -0.083 NA
ATOM     16  C   UNL     1      -7.286  -9.680  12.472  0.00  0.00    +0.087 A 
ATOM     17  C   UNL     1      -8.234 -10.110  13.417  0.00  0.00    +0.076 A 
ATOM     19  C   UNL     1      -7.557 -10.048  14.607  0.00  0.00    +0.167 A 
BRANCH  19  20
ATOM     20  C   UNL     1      -7.892 -10.332  15.972  0.00  0.00    +0.020 A 
ATOM     22  C   UNL     1      -8.804 -11.343  16.272  0.00  0.00    +0.015 A 
ATOM     23  C   UNL     1      -7.304  -9.596  17.002  0.00  0.00    +0.015 A 
ATOM     25  C   UNL     1      -9.130 -11.618  17.600  0.00  0.00    +0.046 A 
ATOM     26  C   UNL     1      -7.630  -9.871  18.330  0.00  0.00    +0.046 A 
ATOM     27  C   UNL     1      -8.542 -10.882  18.629  0.00  0.00    +0.120 A 
BRANCH  27   5
ATOM      5  O   UNL     1      -8.862 -11.149  19.924  0.00  0.00    -0.495 OA
ATOM     33  C   UNL     1     -10.188 -11.609  20.185  0.00  0.00    +0.277 C 
ENDBRANCH  27   5
ENDBRANCH  19  20
ENDBRANCH  14  16
ENDBRANCH   9  14
BRANCH  10  15
ATOM     15  C   UNL     1      -3.291 -10.721  10.511  0.00  0.00    +0.140 C 
BRANCH  15   6
ATOM      4  O   UNL     1      -1.947 -11.666  12.871  0.00  0.00    -0.253 OA
ATOM      6  N   UNL     1      -3.600 -10.381  11.866  0.00  0.00    -0.297 N 
ATOM      8  N   UNL     1      -3.397 -10.398  14.167  0.00  0.00    -0.295 N 
ATOM     18  C   UNL     1      -2.895 -10.886  12.964  0.00  0.00    +0.300 C 
ATOM     35  H   UNL     1      -4.380  -9.754  12.040  0.00  0.00    +0.150 HD
ATOM     36  H   UNL     1      -4.187  -9.759  14.129  0.00  0.00    +0.151 HD
BRANCH   8  21
ATOM     21  C   UNL     1      -2.853 -10.759  15.456  0.00  0.00    +0.141 C 
BRANCH  21  24
ATOM     24  C   UNL     1      -3.829 -11.554  16.275  0.00  0.00    -0.030 A 
ATOM     28  C   UNL     1      -4.665 -12.483  15.658  0.00  0.00    +0.005 A 
ATOM     29  C   UNL     1      -3.897 -11.362  17.655  0.00  0.00    +0.005 A 
ATOM     30  C   UNL     1      -5.570 -13.222  16.420  0.00  0.00    +0.000 A 
ATOM     31  C   UNL     1      -4.803 -12.101  18.419  0.00  0.00    +0.000 A 
ATOM     32  C   UNL     1      -5.639 -13.031  17.800  0.00  0.00    +0.000 A 
ENDBRANCH  21  24
ENDBRANCH   8  21
ENDBRANCH  15   6
ENDBRANCH  10  15
TORSDOF 9
ENDMDL
MODEL 5
REMARK VINA RESULT:      -5.5     28.275     30.340
REMARK  Name = 75536393
REMARK  10 active torsions:
REMARK  status: ('A' for Active; 'I' for Inactive)
REMARK    1  A    between atoms: O_2  and  C_11
REMARK    2  A    between atoms: O_5  and  C_27
REMARK    3  A    between atoms: O_5  and  C_33
REMARK    4  A    between atoms: N_6  and  C_15
REMARK    5  A    between atoms: N_8  and  C_21
REMARK    6  A    between atoms: C_9  and  C_14
REMARK    7  A    between atoms: C_10  and  C_15
REMARK    8  A    between atoms: C_14  and  C_16
REMARK    9  A    between atoms: C_19  and  C_20
REMARK   10  A    between atoms: C_21  and  C_24
REMARK                            x       y       z     vdW  Elec       q    Type
REMARK                         _______ _______ _______ _____ _____    ______ ____
ROOT
ATOM      1  O   UNL     1      13.407   3.246   0.277  0.00  0.00    -0.369 OA
ATOM      9  C   UNL     1      13.190   3.747  -1.045  0.00  0.00    +0.125 C 
ATOM     10  C   UNL     1      14.076   4.148   1.168  0.00  0.00    +0.164 C 
ATOM     11  C   UNL     1      15.417   4.616   0.589  0.00  0.00    +0.145 C 
ATOM     12  C   UNL     1      14.517   4.116  -1.706  0.00  0.00    +0.034 C 
ATOM     13  C   UNL     1      15.285   5.117  -0.848  0.00  0.00    +0.036 C 
ENDROOT
BRANCH  11   2
ATOM      2  O   UNL     1      16.327   3.514   0.585  0.00  0.00    -0.389 OA
ATOM     34  H   UNL     1      15.943   2.817   0.026  0.00  0.00    +0.210 HD
ENDBRANCH  11   2
BRANCH   9  14
ATOM     14  C   UNL     1      12.475   2.658  -1.836  0.00  0.00    +0.090 C 
BRANCH  14  16
ATOM      3  O   UNL     1       9.229   3.055  -3.353  0.00  0.00    -0.354 OA
ATOM      7  N   UNL     1      10.299   2.279  -2.925  0.00  0.00    -0.083 NA
ATOM     16  C   UNL     1      11.171   3.150  -2.408  0.00  0.00    +0.087 A 
ATOM     17  C   UNL     1      10.711   4.476  -2.482  0.00  0.00    +0.076 A 
ATOM     19  C   UNL     1       9.486   4.361  -3.084  0.00  0.00    +0.167 A 
BRANCH  19  20
ATOM     20  C   UNL     1       8.462   5.288  -3.471  0.00  0.00    +0.020 A 
ATOM     22  C   UNL     1       8.124   6.346  -2.628  0.00  0.00    +0.015 A 
ATOM     23  C   UNL     1       7.804   5.131  -4.692  0.00  0.00    +0.015 A 
ATOM     25  C   UNL     1       7.127   7.246  -3.003  0.00  0.00    +0.046 A 
ATOM     26  C   UNL     1       6.807   6.031  -5.067  0.00  0.00    +0.046 A 
ATOM     27  C   UNL     1       6.469   7.089  -4.224  0.00  0.00    +0.120 A 
BRANCH  27   5
ATOM      5  O   UNL     1       5.495   7.966  -4.589  0.00  0.00    -0.495 OA
ATOM     33  C   UNL     1       4.769   8.605  -3.540  0.00  0.00    +0.277 C 
ENDBRANCH  27   5
ENDBRANCH  19  20
ENDBRANCH  14  16
ENDBRANCH   9  14
BRANCH  10  15
ATOM     15  C   UNL     1      13.161   5.305   1.567  0.00  0.00    +0.140 C 
BRANCH  15   6
ATOM      4  O   UNL     1      10.385   4.986   2.243  0.00  0.00    -0.253 OA
ATOM      6  N   UNL     1      12.617   5.102   2.875  0.00  0.00    -0.297 N 
ATOM      8  N   UNL     1      10.985   4.773   4.476  0.00  0.00    -0.295 N 
ATOM     18  C   UNL     1      11.247   4.956   3.121  0.00  0.00    +0.300 C 
ATOM     35  H   UNL     1      13.255   5.081   3.664  0.00  0.00    +0.150 HD
ATOM     36  H   UNL     1      11.773   4.768   5.117  0.00  0.00    +0.151 HD
BRANCH   8  21
ATOM     21  C   UNL     1       9.653   4.596   5.007  0.00  0.00    +0.141 C 
BRANCH  21  24
ATOM     24  C   UNL     1       9.327   5.616   6.059  0.00  0.00    -0.030 A 
ATOM     28  C   UNL     1       8.594   6.754   5.725  0.00  0.00    +0.005 A 
ATOM     29  C   UNL     1       9.756   5.424   7.372  0.00  0.00    +0.005 A 
ATOM     30  C   UNL     1       8.290   7.701   6.703  0.00  0.00    +0.000 A 
ATOM     31  C   UNL     1       9.453   6.371   8.352  0.00  0.00    +0.000 A 
ATOM     32  C   UNL     1       8.720   7.509   8.016  0.00  0.00    +0.000 A 
ENDBRANCH  21  24
ENDBRANCH   8  21
ENDBRANCH  15   6
ENDBRANCH  10  15
TORSDOF 9
ENDMDL
MODEL 6
REMARK VINA RESULT:      -5.4     29.293     32.168
REMARK  Name = 75536393
REMARK  10 active torsions:
REMARK  status: ('A' for Active; 'I' for Inactive)
REMARK    1  A    between atoms: O_2  and  C_11
REMARK    2  A    between atoms: O_5  and  C_27
REMARK    3  A    between atoms: O_5  and  C_33
REMARK    4  A    between atoms: N_6  and  C_15
REMARK    5  A    between atoms: N_8  and  C_21
REMARK    6  A    between atoms: C_9  and  C_14
REMARK    7  A    between atoms: C_10  and  C_15
REMARK    8  A    between atoms: C_14  and  C_16
REMARK    9  A    between atoms: C_19  and  C_20
REMARK   10  A    between atoms: C_21  and  C_24
REMARK                            x       y       z     vdW  Elec       q    Type
REMARK                         _______ _______ _______ _____ _____    ______ ____
ROOT
ATOM      1  O   UNL     1      15.402  13.212  15.596  0.00  0.00    -0.369 OA
ATOM      9  C   UNL     1      16.666  12.550  15.701  0.00  0.00    +0.125 C 
ATOM     10  C   UNL     1      14.694  12.983  14.371  0.00  0.00    +0.164 C 
ATOM     11  C   UNL     1      15.550  13.353  13.153  0.00  0.00    +0.145 C 
ATOM     12  C   UNL     1      17.596  12.983  14.569  0.00  0.00    +0.034 C 
ATOM     13  C   UNL     1      16.944  12.731  13.212  0.00  0.00    +0.036 C 
ENDROOT
BRANCH  11   2
ATOM      2  O   UNL     1      15.707  14.773  13.114  0.00  0.00    -0.389 OA
ATOM     34  H   UNL     1      15.030  15.160  13.694  0.00  0.00    +0.210 HD
ENDBRANCH  11   2
BRANCH   9  14
ATOM     14  C   UNL     1      17.259  12.910  17.058  0.00  0.00    +0.090 C 
BRANCH  14  16
ATOM      3  O   UNL     1      14.992  13.173  19.848  0.00  0.00    -0.354 OA
ATOM      7  N   UNL     1      15.888  13.718  18.936  0.00  0.00    -0.083 NA
ATOM     16  C   UNL     1      16.273  12.691  18.174  0.00  0.00    +0.087 A 
ATOM     17  C   UNL     1      15.659  11.485  18.554  0.00  0.00    +0.076 A 
ATOM     19  C   UNL     1      14.864  11.843  19.610  0.00  0.00    +0.167 A 
BRANCH  19  20
ATOM     20  C   UNL     1      13.963  11.141  20.478  0.00  0.00    +0.020 A 
ATOM     22  C   UNL     1      14.465  10.311  21.480  0.00  0.00    +0.015 A 
ATOM     23  C   UNL     1      12.585  11.288  20.318  0.00  0.00    +0.015 A 
ATOM     25  C   UNL     1      13.589   9.626  22.323  0.00  0.00    +0.046 A 
ATOM     26  C   UNL     1      11.709  10.603  21.161  0.00  0.00    +0.046 A 
ATOM     27  C   UNL     1      12.210   9.773  22.163  0.00  0.00    +0.120 A 
BRANCH  27   5
ATOM      5  O   UNL     1      11.356   9.104  22.984  0.00  0.00    -0.495 OA
ATOM     33  C   UNL     1      10.581   8.057  22.401  0.00  0.00    +0.277 C 
ENDBRANCH  27   5
ENDBRANCH  19  20
ENDBRANCH  14  16
ENDBRANCH   9  14
BRANCH  10  15
ATOM     15  C   UNL     1      14.152  11.556  14.308  0.00  0.00    +0.140 C 
BRANCH  15   6
ATOM      4  O   UNL     1      13.279   8.930  15.086  0.00  0.00    -0.253 OA
ATOM      6  N   UNL     1      13.506  11.197  15.533  0.00  0.00    -0.297 N 
ATOM      8  N   UNL     1      12.505   9.814  17.089  0.00  0.00    -0.295 N 
ATOM     18  C   UNL     1      13.110   9.890  15.838  0.00  0.00    +0.300 C 
ATOM     35  H   UNL     1      13.310  11.931  16.208  0.00  0.00    +0.150 HD
ATOM     36  H   UNL     1      12.414  10.672  17.627  0.00  0.00    +0.151 HD
BRANCH   8  21
ATOM     21  C   UNL     1      12.003   8.582  17.652  0.00  0.00    +0.141 C 
BRANCH  21  24
ATOM     24  C   UNL     1      13.004   7.930  18.562  0.00  0.00    -0.030 A 
ATOM     28  C   UNL     1      14.369   8.108  18.341  0.00  0.00    +0.005 A 
ATOM     29  C   UNL     1      12.567   7.147  19.630  0.00  0.00    +0.005 A 
ATOM     30  C   UNL     1      15.298   7.503  19.187  0.00  0.00    +0.000 A 
ATOM     31  C   UNL     1      13.495   6.541  20.478  0.00  0.00    +0.000 A 
ATOM     32  C   UNL     1      14.861   6.720  20.255  0.00  0.00    +0.000 A 
ENDBRANCH  21  24
ENDBRANCH   8  21
ENDBRANCH  15   6
ENDBRANCH  10  15
TORSDOF 9
ENDMDL
MODEL 7
REMARK VINA RESULT:      -5.4     29.835     33.564
REMARK  Name = 75536393
REMARK  10 active torsions:
REMARK  status: ('A' for Active; 'I' for Inactive)
REMARK    1  A    between atoms: O_2  and  C_11
REMARK    2  A    between atoms: O_5  and  C_27
REMARK    3  A    between atoms: O_5  and  C_33
REMARK    4  A    between atoms: N_6  and  C_15
REMARK    5  A    between atoms: N_8  and  C_21
REMARK    6  A    between atoms: C_9  and  C_14
REMARK    7  A    between atoms: C_10  and  C_15
REMARK    8  A    between atoms: C_14  and  C_16
REMARK    9  A    between atoms: C_19  and  C_20
REMARK   10  A    between atoms: C_21  and  C_24
REMARK                            x       y       z     vdW  Elec       q    Type
REMARK                         _______ _______ _______ _____ _____    ______ ____
ROOT
ATOM      1  O   UNL     1      22.754   3.942  22.550  0.00  0.00    -0.369 OA
ATOM      9  C   UNL     1      23.805   4.846  22.199  0.00  0.00    +0.125 C 
ATOM     10  C   UNL     1      23.099   2.552  22.485  0.00  0.00    +0.164 C 
ATOM     11  C   UNL     1      23.637   2.173  21.099  0.00  0.00    +0.145 C 
ATOM     12  C   UNL     1      24.292   4.580  20.776  0.00  0.00    +0.034 C 
ATOM     13  C   UNL     1      24.729   3.127  20.620  0.00  0.00    +0.036 C 
ENDROOT
BRANCH  11   2
ATOM      2  O   UNL     1      22.563   2.231  20.157  0.00  0.00    -0.389 OA
ATOM     34  H   UNL     1      22.940   2.480  19.296  0.00  0.00    +0.210 HD
ENDBRANCH  11   2
BRANCH   9  14
ATOM     14  C   UNL     1      23.254   6.261  22.328  0.00  0.00    +0.090 C 
BRANCH  14  16
ATOM      3  O   UNL     1      19.670   6.204  22.716  0.00  0.00    -0.354 OA
ATOM      7  N   UNL     1      20.963   6.115  23.218  0.00  0.00    -0.083 NA
ATOM     16  C   UNL     1      21.758   6.294  22.160  0.00  0.00    +0.087 A 
ATOM     17  C   UNL     1      21.030   6.498  20.974  0.00  0.00    +0.076 A 
ATOM     19  C   UNL     1      19.723   6.432  21.379  0.00  0.00    +0.167 A 
BRANCH  19  20
ATOM     20  C   UNL     1      18.456   6.550  20.718  0.00  0.00    +0.020 A 
ATOM     22  C   UNL     1      18.150   5.717  19.643  0.00  0.00    +0.015 A 
ATOM     23  C   UNL     1      17.530   7.500  21.151  0.00  0.00    +0.015 A 
ATOM     25  C   UNL     1      16.918   5.833  18.999  0.00  0.00    +0.046 A 
ATOM     26  C   UNL     1      16.298   7.616  20.507  0.00  0.00    +0.046 A 
ATOM     27  C   UNL     1      15.992   6.783  19.432  0.00  0.00    +0.120 A 
BRANCH  27   5
ATOM      5  O   UNL     1      14.791   6.898  18.802  0.00  0.00    -0.495 OA
ATOM     33  C   UNL     1      13.628   6.957  19.628  0.00  0.00    +0.277 C 
ENDBRANCH  27   5
ENDBRANCH  19  20
ENDBRANCH  14  16
ENDBRANCH   9  14
BRANCH  10  15
ATOM     15  C   UNL     1      24.048   2.167  23.618  0.00  0.00    +0.140 C 
BRANCH  15   6
ATOM      4  O   UNL     1      21.783   1.537  25.273  0.00  0.00    -0.253 OA
ATOM      6  N   UNL     1      23.712   0.885  24.157  0.00  0.00    -0.297 N 
ATOM      8  N   UNL     1      22.493  -0.673  25.351  0.00  0.00    -0.295 N 
ATOM     18  C   UNL     1      22.587   0.660  24.958  0.00  0.00    +0.300 C 
ATOM     35  H   UNL     1      24.331   0.104  23.963  0.00  0.00    +0.150 HD
ATOM     36  H   UNL     1      23.215  -1.314  25.035  0.00  0.00    +0.151 HD
BRANCH   8  21
ATOM     21  C   UNL     1      21.426  -1.179  26.182  0.00  0.00    +0.141 C 
BRANCH  21  24
ATOM     24  C   UNL     1      20.296  -1.739  25.368  0.00  0.00    -0.030 A 
ATOM     28  C   UNL     1      20.318  -3.075  24.968  0.00  0.00    +0.005 A 
ATOM     29  C   UNL     1      19.223  -0.923  25.010  0.00  0.00    +0.005 A 
ATOM     30  C   UNL     1      19.268  -3.595  24.212  0.00  0.00    +0.000 A 
ATOM     31  C   UNL     1      18.171  -1.442  24.254  0.00  0.00    +0.000 A 
ATOM     32  C   UNL     1      18.195  -2.779  23.855  0.00  0.00    +0.000 A 
ENDBRANCH  21  24
ENDBRANCH   8  21
ENDBRANCH  15   6
ENDBRANCH  10  15
TORSDOF 9
ENDMDL
MODEL 8
REMARK VINA RESULT:      -5.4     29.084     32.052
REMARK  Name = 75536393
REMARK  10 active torsions:
REMARK  status: ('A' for Active; 'I' for Inactive)
REMARK    1  A    between atoms: O_2  and  C_11
REMARK    2  A    between atoms: O_5  and  C_27
REMARK    3  A    between atoms: O_5  and  C_33
REMARK    4  A    between atoms: N_6  and  C_15
REMARK    5  A    between atoms: N_8  and  C_21
REMARK    6  A    between atoms: C_9  and  C_14
REMARK    7  A    between atoms: C_10  and  C_15
REMARK    8  A    between atoms: C_14  and  C_16
REMARK    9  A    between atoms: C_19  and  C_20
REMARK   10  A    between atoms: C_21  and  C_24
REMARK                            x       y       z     vdW  Elec       q    Type
REMARK                         _______ _______ _______ _____ _____    ______ ____
ROOT
ATOM      1  O   UNL     1      10.697   6.831   5.759  0.00  0.00    -0.369 OA
ATOM      9  C   UNL     1      10.520   5.472   5.349  0.00  0.00    +0.125 C 
ATOM     10  C   UNL     1      11.130   7.008   7.114  0.00  0.00    +0.164 C 
ATOM     11  C   UNL     1      10.181   6.312   8.099  0.00  0.00    +0.145 C 
ATOM     12  C   UNL     1       9.490   4.773   6.234  0.00  0.00    +0.034 C 
ATOM     13  C   UNL     1       9.892   4.866   7.703  0.00  0.00    +0.036 C 
ENDROOT
BRANCH  11   2
ATOM      2  O   UNL     1       8.938   7.017   8.118  0.00  0.00    -0.389 OA
ATOM     34  H   UNL     1       8.281   6.467   7.658  0.00  0.00    +0.210 HD
ENDBRANCH  11   2
BRANCH   9  14
ATOM     14  C   UNL     1      10.064   5.489   3.895  0.00  0.00    +0.090 C 
BRANCH  14  16
ATOM      3  O   UNL     1      12.248   3.349   1.985  0.00  0.00    -0.354 OA
ATOM      7  N   UNL     1      11.225   3.558   2.903  0.00  0.00    -0.083 NA
ATOM     16  C   UNL     1      11.096   4.885   2.980  0.00  0.00    +0.087 A 
ATOM     17  C   UNL     1      12.002   5.560   2.142  0.00  0.00    +0.076 A 
ATOM     19  C   UNL     1      12.702   4.548   1.540  0.00  0.00    +0.167 A 
BRANCH  19  20
ATOM     20  C   UNL     1      13.765   4.492   0.579  0.00  0.00    +0.020 A 
ATOM     22  C   UNL     1      13.506   4.764  -0.764  0.00  0.00    +0.015 A 
ATOM     23  C   UNL     1      15.058   4.164   0.987  0.00  0.00    +0.015 A 
ATOM     25  C   UNL     1      14.540   4.708  -1.699  0.00  0.00    +0.046 A 
ATOM     26  C   UNL     1      16.092   4.108   0.052  0.00  0.00    +0.046 A 
ATOM     27  C   UNL     1      15.833   4.380  -1.291  0.00  0.00    +0.120 A 
BRANCH  27   5
ATOM      5  O   UNL     1      16.841   4.323  -2.203  0.00  0.00    -0.495 OA
ATOM     33  C   UNL     1      16.879   5.350  -3.193  0.00  0.00    +0.277 C 
ENDBRANCH  27   5
ENDBRANCH  19  20
ENDBRANCH  14  16
ENDBRANCH   9  14
BRANCH  10  15
ATOM     15  C   UNL     1      12.586   6.581   7.286  0.00  0.00    +0.140 C 
BRANCH  15   6
ATOM      4  O   UNL     1      14.758   8.238   6.389  0.00  0.00    -0.253 OA
ATOM      6  N   UNL     1      13.253   6.508   6.022  0.00  0.00    -0.297 N 
ATOM      8  N   UNL     1      14.775   7.075   4.379  0.00  0.00    -0.295 N 
ATOM     18  C   UNL     1      14.306   7.356   5.660  0.00  0.00    +0.300 C 
ATOM     35  H   UNL     1      12.934   5.819   5.348  0.00  0.00    +0.150 HD
ATOM     36  H   UNL     1      14.327   6.324   3.862  0.00  0.00    +0.151 HD
BRANCH   8  21
ATOM     21  C   UNL     1      15.859   7.800   3.758  0.00  0.00    +0.141 C 
BRANCH  21  24
ATOM     24  C   UNL     1      15.700   7.879   2.267  0.00  0.00    -0.030 A 
ATOM     28  C   UNL     1      16.797   7.655   1.434  0.00  0.00    +0.005 A 
ATOM     29  C   UNL     1      14.455   8.178   1.714  0.00  0.00    +0.005 A 
ATOM     30  C   UNL     1      16.649   7.728   0.050  0.00  0.00    +0.000 A 
ATOM     31  C   UNL     1      14.306   8.251   0.328  0.00  0.00    +0.000 A 
ATOM     32  C   UNL     1      15.403   8.026  -0.503  0.00  0.00    +0.000 A 
ENDBRANCH  21  24
ENDBRANCH   8  21
ENDBRANCH  15   6
ENDBRANCH  10  15
TORSDOF 9
ENDMDL
MODEL 9
REMARK VINA RESULT:      -5.3      2.925      4.848
REMARK  Name = 75536393
REMARK  10 active torsions:
REMARK  status: ('A' for Active; 'I' for Inactive)
REMARK    1  A    between atoms: O_2  and  C_11
REMARK    2  A    between atoms: O_5  and  C_27
REMARK    3  A    between atoms: O_5  and  C_33
REMARK    4  A    between atoms: N_6  and  C_15
REMARK    5  A    between atoms: N_8  and  C_21
REMARK    6  A    between atoms: C_9  and  C_14
REMARK    7  A    between atoms: C_10  and  C_15
REMARK    8  A    between atoms: C_14  and  C_16
REMARK    9  A    between atoms: C_19  and  C_20
REMARK   10  A    between atoms: C_21  and  C_24
REMARK                            x       y       z     vdW  Elec       q    Type
REMARK                         _______ _______ _______ _____ _____    ______ ____
ROOT
ATOM      1  O   UNL     1      -4.052 -11.731  14.117  0.00  0.00    -0.369 OA
ATOM      9  C   UNL     1      -4.356 -10.568  13.341  0.00  0.00    +0.125 C 
ATOM     10  C   UNL     1      -2.691 -11.833  14.554  0.00  0.00    +0.164 C 
ATOM     11  C   UNL     1      -1.716 -11.757  13.371  0.00  0.00    +0.145 C 
ATOM     12  C   UNL     1      -3.487 -10.514  12.087  0.00  0.00    +0.034 C 
ATOM     13  C   UNL     1      -2.007 -10.570  12.456  0.00  0.00    +0.036 C 
ENDROOT
BRANCH  11   2
ATOM      2  O   UNL     1      -1.842 -12.949  12.593  0.00  0.00    -0.389 OA
ATOM     34  H   UNL     1      -2.229 -12.702  11.737  0.00  0.00    +0.210 HD
ENDBRANCH  11   2
BRANCH   9  14
ATOM     14  C   UNL     1      -5.834 -10.636  12.974  0.00  0.00    +0.090 C 
BRANCH  14  16
ATOM      3  O   UNL     1      -7.272  -9.403  16.041  0.00  0.00    -0.354 OA
ATOM      7  N   UNL     1      -6.208  -9.574  15.163  0.00  0.00    -0.083 NA
ATOM     16  C   UNL     1      -6.715 -10.262  14.137  0.00  0.00    +0.087 A 
ATOM     17  C   UNL     1      -8.080 -10.550  14.308  0.00  0.00    +0.076 A 
ATOM     19  C   UNL     1      -8.381  -9.988  15.521  0.00  0.00    +0.167 A 
BRANCH  19  20
ATOM     20  C   UNL     1      -9.568  -9.891  16.320  0.00  0.00    +0.020 A 
ATOM     22  C   UNL     1     -10.655 -10.723  16.058  0.00  0.00    +0.015 A 
ATOM     23  C   UNL     1      -9.634  -8.962  17.359  0.00  0.00    +0.015 A 
ATOM     25  C   UNL     1     -11.810 -10.627  16.834  0.00  0.00    +0.046 A 
ATOM     26  C   UNL     1     -10.789  -8.865  18.135  0.00  0.00    +0.046 A 
ATOM     27  C   UNL     1     -11.877  -9.698  17.873  0.00  0.00    +0.120 A 
BRANCH  27   5
ATOM      5  O   UNL     1     -13.005  -9.603  18.629  0.00  0.00    -0.495 OA
ATOM     33  C   UNL     1     -12.887  -9.921  20.015  0.00  0.00    +0.277 C 
ENDBRANCH  27   5
ENDBRANCH  19  20
ENDBRANCH  14  16
ENDBRANCH   9  14
BRANCH  10  15
ATOM     15  C   UNL     1      -2.386 -10.810  15.646  0.00  0.00    +0.140 C 
BRANCH  15   6
ATOM      4  O   UNL     1      -3.410 -11.795  18.145  0.00  0.00    -0.253 OA
ATOM      6  N   UNL     1      -3.584 -10.389  16.305  0.00  0.00    -0.297 N 
ATOM      8  N   UNL     1      -5.209 -10.340  17.947  0.00  0.00    -0.295 N 
ATOM     18  C   UNL     1      -4.016 -10.921  17.526  0.00  0.00    +0.300 C 
ATOM     35  H   UNL     1      -4.159  -9.682  15.856  0.00  0.00    +0.150 HD
ATOM     36  H   UNL     1      -5.627  -9.627  17.355  0.00  0.00    +0.151 HD
BRANCH   8  21
ATOM     21  C   UNL     1      -5.875 -10.705  19.175  0.00  0.00    +0.141 C 
BRANCH  21  24
ATOM     24  C   UNL     1      -7.113 -11.517  18.924  0.00  0.00    -0.030 A 
ATOM     28  C   UNL     1      -8.247 -11.325  19.713  0.00  0.00    +0.005 A 
ATOM     29  C   UNL     1      -7.128 -12.464  17.901  0.00  0.00    +0.005 A 
ATOM     30  C   UNL     1      -9.396 -12.078  19.479  0.00  0.00    +0.000 A 
ATOM     31  C   UNL     1      -8.278 -13.219  17.665  0.00  0.00    +0.000 A 
ATOM     32  C   UNL     1      -9.412 -13.026  18.456  0.00  0.00    +0.000 A 
ENDBRANCH  21  24
ENDBRANCH   8  21
ENDBRANCH  15   6
ENDBRANCH  10  15
TORSDOF 9
ENDMDL
MODEL 10
REMARK VINA RESULT:      -5.3     29.565     32.729
REMARK  Name = 75536393
REMARK  10 active torsions:
REMARK  status: ('A' for Active; 'I' for Inactive)
REMARK    1  A    between atoms: O_2  and  C_11
REMARK    2  A    between atoms: O_5  and  C_27
REMARK    3  A    between atoms: O_5  and  C_33
REMARK    4  A    between atoms: N_6  and  C_15
REMARK    5  A    between atoms: N_8  and  C_21
REMARK    6  A    between atoms: C_9  and  C_14
REMARK    7  A    between atoms: C_10  and  C_15
REMARK    8  A    between atoms: C_14  and  C_16
REMARK    9  A    between atoms: C_19  and  C_20
REMARK   10  A    between atoms: C_21  and  C_24
REMARK                            x       y       z     vdW  Elec       q    Type
REMARK                         _______ _______ _______ _____ _____    ______ ____
ROOT
ATOM      1  O   UNL     1      11.258   7.033   5.391  0.00  0.00    -0.369 OA
ATOM      9  C   UNL     1      10.648   5.741   5.337  0.00  0.00    +0.125 C 
ATOM     10  C   UNL     1      11.802   7.397   6.667  0.00  0.00    +0.164 C 
ATOM     11  C   UNL     1      10.744   7.302   7.774  0.00  0.00    +0.145 C 
ATOM     12  C   UNL     1       9.505   5.642   6.346  0.00  0.00    +0.034 C 
ATOM     13  C   UNL     1      10.000   5.968   7.752  0.00  0.00    +0.036 C 
ENDROOT
BRANCH  11   2
ATOM      2  O   UNL     1       9.782   8.341   7.582  0.00  0.00    -0.389 OA
ATOM     34  H   UNL     1      10.090   9.121   8.074  0.00  0.00    +0.210 HD
ENDBRANCH  11   2
BRANCH   9  14
ATOM     14  C   UNL     1      10.135   5.536   3.917  0.00  0.00    +0.090 C 
BRANCH  14  16
ATOM      3  O   UNL     1      12.295   3.374   2.005  0.00  0.00    -0.354 OA
ATOM      7  N   UNL     1      11.229   3.595   2.869  0.00  0.00    -0.083 NA
ATOM     16  C   UNL     1      11.184   4.921   3.029  0.00  0.00    +0.087 A 
ATOM     17  C   UNL     1      12.186   5.581   2.298  0.00  0.00    +0.076 A 
ATOM     19  C   UNL     1      12.857   4.564   1.672  0.00  0.00    +0.167 A 
BRANCH  19  20
ATOM     20  C   UNL     1      13.976   4.494   0.777  0.00  0.00    +0.020 A 
ATOM     22  C   UNL     1      13.948   5.192  -0.430  0.00  0.00    +0.015 A 
ATOM     23  C   UNL     1      15.091   3.727   1.115  0.00  0.00    +0.015 A 
ATOM     25  C   UNL     1      15.036   5.122  -1.300  0.00  0.00    +0.046 A 
ATOM     26  C   UNL     1      16.179   3.657   0.244  0.00  0.00    +0.046 A 
ATOM     27  C   UNL     1      16.152   4.355  -0.963  0.00  0.00    +0.120 A 
BRANCH  27   5
ATOM      5  O   UNL     1      17.212   4.286  -1.813  0.00  0.00    -0.495 OA
ATOM     33  C   UNL     1      17.660   5.510  -2.394  0.00  0.00    +0.277 C 
ENDBRANCH  27   5
ENDBRANCH  19  20
ENDBRANCH  14  16
ENDBRANCH   9  14
BRANCH  10  15
ATOM     15  C   UNL     1      13.064   6.594   6.976  0.00  0.00    +0.140 C 
BRANCH  15   6
ATOM      4  O   UNL     1      14.689   7.240   4.694  0.00  0.00    -0.253 OA
ATOM      6  N   UNL     1      14.224   7.432   6.961  0.00  0.00    -0.297 N 
ATOM      8  N   UNL     1      16.041   8.539   6.064  0.00  0.00    -0.295 N 
ATOM     18  C   UNL     1      14.964   7.698   5.803  0.00  0.00    +0.300 C 
ATOM     35  H   UNL     1      14.534   7.839   7.838  0.00  0.00    +0.150 HD
ATOM     36  H   UNL     1      16.177   8.857   7.020  0.00  0.00    +0.151 HD
BRANCH   8  21
ATOM     21  C   UNL     1      16.969   8.974   5.046  0.00  0.00    +0.141 C 
BRANCH  21  24
ATOM     24  C   UNL     1      18.369   8.507   5.324  0.00  0.00    -0.030 A 
ATOM     28  C   UNL     1      19.101   7.862   4.327  0.00  0.00    +0.005 A 
ATOM     29  C   UNL     1      18.937   8.719   6.579  0.00  0.00    +0.005 A 
ATOM     30  C   UNL     1      20.401   7.429   4.585  0.00  0.00    +0.000 A 
ATOM     31  C   UNL     1      20.239   8.286   6.839  0.00  0.00    +0.000 A 
ATOM     32  C   UNL     1      20.969   7.641   5.841  0.00  0.00    +0.000 A 
ENDBRANCH  21  24
ENDBRANCH   8  21
ENDBRANCH  15   6
ENDBRANCH  10  15
TORSDOF 9
ENDMDL
