MODEL 1
REMARK VINA RESULT:      -7.5      0.000      0.000
REMARK  Name = 26745401
REMARK  6 active torsions:
REMARK  status: ('A' for Active; 'I' for Inactive)
REMARK    1  A    between atoms: N_3  and  C_18
REMARK    2  A    between atoms: C_6  and  C_13
REMARK    3  A    between atoms: C_11  and  C_12
REMARK    4  A    between atoms: C_13  and  C_19
REMARK    5  A    between atoms: C_18  and  C_20
REMARK    6  A    between atoms: C_31  and  C_32
REMARK                            x       y       z     vdW  Elec       q    Type
REMARK                         _______ _______ _______ _____ _____    ______ ____
ROOT
ATOM      3  N   UNL     1      10.038   7.360   4.934  0.00  0.00    -0.281 NA
ATOM      4  N   UNL     1       7.633   8.870   2.491  0.00  0.00    -0.347 N 
ATOM      5  N   UNL     1       8.901  10.701   2.693  0.00  0.00    -0.240 NA
ATOM     11  C   UNL     1      11.165   8.243   4.516  0.00  0.00    +0.150 C 
ATOM     14  C   UNL     1      10.711   9.689   4.155  0.00  0.00    +0.085 C 
ATOM     15  C   UNL     1       9.021   7.205   3.854  0.00  0.00    +0.140 C 
ATOM     16  C   UNL     1       9.462   9.655   3.368  0.00  0.00    +0.065 A 
ATOM     17  C   UNL     1       8.698   8.521   3.264  0.00  0.00    +0.053 A 
ATOM     21  C   UNL     1       7.800  10.195   2.172  0.00  0.00    +0.197 A 
ATOM     33  H   UNL     1       6.869   8.274   2.203  0.00  0.00    +0.167 HD
ENDROOT
BRANCH  11  12
ATOM      1  O   UNL     1      11.755   8.865   6.716  0.00  0.00    -0.274 OA
ATOM      2  N   UNL     1      13.426   7.898   5.426  0.00  0.00    -0.300 N 
ATOM      6  C   UNL     1      16.244   8.073   4.755  0.00  0.00    -0.004 C 
ATOM      7  C   UNL     1      15.155   8.020   3.672  0.00  0.00    +0.023 C 
ATOM      8  C   UNL     1      15.678   8.683   6.047  0.00  0.00    +0.023 C 
ATOM      9  C   UNL     1      13.906   7.298   4.175  0.00  0.00    +0.108 C 
ATOM     10  C   UNL     1      14.420   7.947   6.500  0.00  0.00    +0.108 C 
ATOM     12  C   UNL     1      12.134   8.365   5.653  0.00  0.00    +0.233 C 
BRANCH   6  13
ATOM     13  C   UNL     1      17.457   8.862   4.268  0.00  0.00    +0.038 C 
BRANCH  13  19
ATOM     19  C   UNL     1      18.722   8.403   4.940  0.00  0.00    -0.047 A 
ATOM     22  C   UNL     1      18.988   8.777   6.257  0.00  0.00    +0.003 A 
ATOM     23  C   UNL     1      19.630   7.603   4.245  0.00  0.00    +0.003 A 
ATOM     26  C   UNL     1      20.162   8.352   6.879  0.00  0.00    +0.000 A 
ATOM     27  C   UNL     1      20.803   7.178   4.867  0.00  0.00    +0.000 A 
ATOM     28  C   UNL     1      21.070   7.552   6.184  0.00  0.00    +0.000 A 
ENDBRANCH  13  19
ENDBRANCH   6  13
ENDBRANCH  11  12
BRANCH   3  18
ATOM     18  C   UNL     1      10.493   6.025   5.340  0.00  0.00    +0.120 C 
BRANCH  18  20
ATOM     20  C   UNL     1      10.004   5.660   6.717  0.00  0.00    -0.033 A 
ATOM     24  C   UNL     1       9.442   6.636   7.539  0.00  0.00    +0.005 A 
ATOM     25  C   UNL     1      10.116   4.346   7.171  0.00  0.00    +0.005 A 
ATOM     29  C   UNL     1       8.993   6.299   8.815  0.00  0.00    +0.003 A 
ATOM     30  C   UNL     1       9.666   4.008   8.447  0.00  0.00    +0.003 A 
ATOM     31  C   UNL     1       9.104   4.985   9.269  0.00  0.00    -0.050 A 
ATOM     32  C   UNL     1       8.622   4.624  10.634  0.00  0.00    +0.044 C 
ENDBRANCH  18  20
ENDBRANCH   3  18
TORSDOF 5
ENDMDL
MODEL 2
REMARK VINA RESULT:      -7.2      3.905      7.626
REMARK  Name = 26745401
REMARK  6 active torsions:
REMARK  status: ('A' for Active; 'I' for Inactive)
REMARK    1  A    between atoms: N_3  and  C_18
REMARK    2  A    between atoms: C_6  and  C_13
REMARK    3  A    between atoms: C_11  and  C_12
REMARK    4  A    between atoms: C_13  and  C_19
REMARK    5  A    between atoms: C_18  and  C_20
REMARK    6  A    between atoms: C_31  and  C_32
REMARK                            x       y       z     vdW  Elec       q    Type
REMARK                         _______ _______ _______ _____ _____    ______ ____
ROOT
ATOM      3  N   UNL     1       9.971   7.980   6.561  0.00  0.00    -0.281 NA
ATOM      4  N   UNL     1       8.568   5.826   9.286  0.00  0.00    -0.347 N 
ATOM      5  N   UNL     1      10.437   4.627   9.014  0.00  0.00    -0.240 NA
ATOM     11  C   UNL     1      11.385   7.640   6.889  0.00  0.00    +0.150 C 
ATOM     14  C   UNL     1      11.572   6.160   7.342  0.00  0.00    +0.085 C 
ATOM     15  C   UNL     1       9.068   7.801   7.734  0.00  0.00    +0.140 C 
ATOM     16  C   UNL     1      10.480   5.759   8.251  0.00  0.00    +0.065 A 
ATOM     17  C   UNL     1       9.341   6.508   8.396  0.00  0.00    +0.053 A 
ATOM     21  C   UNL     1       9.271   4.698   9.629  0.00  0.00    +0.197 A 
ATOM     33  H   UNL     1       7.657   6.095   9.632  0.00  0.00    +0.167 HD
ENDROOT
BRANCH  11  12
ATOM      1  O   UNL     1      13.096   8.702   5.656  0.00  0.00    -0.274 OA
ATOM      2  N   UNL     1      11.964   6.977   4.589  0.00  0.00    -0.300 N 
ATOM      6  C   UNL     1      10.810   6.170   2.052  0.00  0.00    -0.004 C 
ATOM      7  C   UNL     1      10.014   6.097   3.364  0.00  0.00    +0.023 C 
ATOM      8  C   UNL     1      11.883   7.267   2.143  0.00  0.00    +0.023 C 
ATOM      9  C   UNL     1      10.940   5.926   4.567  0.00  0.00    +0.108 C 
ATOM     10  C   UNL     1      12.770   7.071   3.371  0.00  0.00    +0.108 C 
ATOM     12  C   UNL     1      12.227   7.826   5.663  0.00  0.00    +0.233 C 
BRANCH   6  13
ATOM     13  C   UNL     1       9.882   6.416   0.866  0.00  0.00    +0.038 C 
BRANCH  13  19
ATOM     19  C   UNL     1      10.189   5.490  -0.280  0.00  0.00    -0.047 A 
ATOM     22  C   UNL     1       9.517   5.634  -1.493  0.00  0.00    +0.003 A 
ATOM     23  C   UNL     1      11.146   4.486  -0.127  0.00  0.00    +0.003 A 
ATOM     26  C   UNL     1       9.802   4.775  -2.555  0.00  0.00    +0.000 A 
ATOM     27  C   UNL     1      11.431   3.628  -1.188  0.00  0.00    +0.000 A 
ATOM     28  C   UNL     1      10.759   3.772  -2.402  0.00  0.00    +0.000 A 
ENDBRANCH  13  19
ENDBRANCH   6  13
ENDBRANCH  11  12
BRANCH   3  18
ATOM     18  C   UNL     1       9.825   9.355   6.067  0.00  0.00    +0.120 C 
BRANCH  18  20
ATOM     20  C   UNL     1       9.236   9.394   4.682  0.00  0.00    -0.033 A 
ATOM     24  C   UNL     1       7.976   8.847   4.444  0.00  0.00    +0.005 A 
ATOM     25  C   UNL     1       9.952   9.976   3.636  0.00  0.00    +0.005 A 
ATOM     29  C   UNL     1       7.432   8.881   3.161  0.00  0.00    +0.003 A 
ATOM     30  C   UNL     1       9.408  10.010   2.352  0.00  0.00    +0.003 A 
ATOM     31  C   UNL     1       8.148   9.462   2.115  0.00  0.00    -0.050 A 
ATOM     32  C   UNL     1       7.565   9.499   0.742  0.00  0.00    +0.044 C 
ENDBRANCH  18  20
ENDBRANCH   3  18
TORSDOF 5
ENDMDL
MODEL 3
REMARK VINA RESULT:      -7.1     25.651     27.753
REMARK  Name = 26745401
REMARK  6 active torsions:
REMARK  status: ('A' for Active; 'I' for Inactive)
REMARK    1  A    between atoms: N_3  and  C_18
REMARK    2  A    between atoms: C_6  and  C_13
REMARK    3  A    between atoms: C_11  and  C_12
REMARK    4  A    between atoms: C_13  and  C_19
REMARK    5  A    between atoms: C_18  and  C_20
REMARK    6  A    between atoms: C_31  and  C_32
REMARK                            x       y       z     vdW  Elec       q    Type
REMARK                         _______ _______ _______ _____ _____    ______ ____
ROOT
ATOM      3  N   UNL     1      -3.306 -11.986  14.029  0.00  0.00    -0.281 NA
ATOM      4  N   UNL     1      -0.862 -14.726  13.284  0.00  0.00    -0.347 N 
ATOM      5  N   UNL     1      -2.324 -15.313  11.696  0.00  0.00    -0.240 NA
ATOM     11  C   UNL     1      -3.833 -11.947  12.634  0.00  0.00    +0.150 C 
ATOM     14  C   UNL     1      -3.912 -13.353  11.967  0.00  0.00    +0.085 C 
ATOM     15  C   UNL     1      -1.921 -12.536  14.086  0.00  0.00    +0.140 C 
ATOM     16  C   UNL     1      -2.703 -14.140  12.284  0.00  0.00    +0.065 A 
ATOM     17  C   UNL     1      -1.825 -13.763  13.266  0.00  0.00    +0.053 A 
ATOM     21  C   UNL     1      -1.208 -15.640  12.319  0.00  0.00    +0.197 A 
ATOM     33  H   UNL     1      -0.050 -14.763  13.883  0.00  0.00    +0.167 HD
ENDROOT
BRANCH  11  12
ATOM      1  O   UNL     1      -6.086 -11.967  13.342  0.00  0.00    -0.274 OA
ATOM      2  N   UNL     1      -5.470 -10.268  11.883  0.00  0.00    -0.300 N 
ATOM      6  C   UNL     1      -6.345  -8.764   9.561  0.00  0.00    -0.004 C 
ATOM      7  C   UNL     1      -4.964  -9.434   9.619  0.00  0.00    +0.023 C 
ATOM      8  C   UNL     1      -7.338  -9.516  10.462  0.00  0.00    +0.023 C 
ATOM      9  C   UNL     1      -4.474  -9.574  11.060  0.00  0.00    +0.108 C 
ATOM     10  C   UNL     1      -6.799  -9.653  11.884  0.00  0.00    +0.108 C 
ATOM     12  C   UNL     1      -5.229 -11.402  12.657  0.00  0.00    +0.233 C 
BRANCH   6  13
ATOM     13  C   UNL     1      -6.858  -8.698   8.125  0.00  0.00    +0.038 C 
BRANCH  13  19
ATOM     19  C   UNL     1      -8.042  -7.778   8.001  0.00  0.00    -0.047 A 
ATOM     22  C   UNL     1      -9.254  -8.263   7.512  0.00  0.00    +0.003 A 
ATOM     23  C   UNL     1      -7.926  -6.439   8.375  0.00  0.00    +0.003 A 
ATOM     26  C   UNL     1     -10.352  -7.410   7.396  0.00  0.00    +0.000 A 
ATOM     27  C   UNL     1      -9.022  -5.585   8.259  0.00  0.00    +0.000 A 
ATOM     28  C   UNL     1     -10.236  -6.070   7.770  0.00  0.00    +0.000 A 
ENDBRANCH  13  19
ENDBRANCH   6  13
ENDBRANCH  11  12
BRANCH   3  18
ATOM     18  C   UNL     1      -3.308 -10.664  14.666  0.00  0.00    +0.120 C 
BRANCH  18  20
ATOM     20  C   UNL     1      -4.070 -10.668  15.965  0.00  0.00    -0.033 A 
ATOM     24  C   UNL     1      -5.289  -9.997  16.061  0.00  0.00    +0.005 A 
ATOM     25  C   UNL     1      -3.555 -11.341  17.073  0.00  0.00    +0.005 A 
ATOM     29  C   UNL     1      -5.992  -9.998  17.264  0.00  0.00    +0.003 A 
ATOM     30  C   UNL     1      -4.259 -11.343  18.277  0.00  0.00    +0.003 A 
ATOM     31  C   UNL     1      -5.477 -10.671  18.372  0.00  0.00    -0.050 A 
ATOM     32  C   UNL     1      -6.231 -10.673  19.660  0.00  0.00    +0.044 C 
ENDBRANCH  18  20
ENDBRANCH   3  18
TORSDOF 5
ENDMDL
MODEL 4
REMARK VINA RESULT:      -7.0      2.369      4.976
REMARK  Name = 26745401
REMARK  6 active torsions:
REMARK  status: ('A' for Active; 'I' for Inactive)
REMARK    1  A    between atoms: N_3  and  C_18
REMARK    2  A    between atoms: C_6  and  C_13
REMARK    3  A    between atoms: C_11  and  C_12
REMARK    4  A    between atoms: C_13  and  C_19
REMARK    5  A    between atoms: C_18  and  C_20
REMARK    6  A    between atoms: C_31  and  C_32
REMARK                            x       y       z     vdW  Elec       q    Type
REMARK                         _______ _______ _______ _____ _____    ______ ____
ROOT
ATOM      3  N   UNL     1      10.468   6.009   5.427  0.00  0.00    -0.281 NA
ATOM      4  N   UNL     1       9.748   3.681   8.272  0.00  0.00    -0.347 N 
ATOM      5  N   UNL     1      10.097   5.478   9.557  0.00  0.00    -0.240 NA
ATOM     11  C   UNL     1      10.003   7.215   6.171  0.00  0.00    +0.150 C 
ATOM     14  C   UNL     1      10.356   7.175   7.689  0.00  0.00    +0.085 C 
ATOM     15  C   UNL     1       9.848   4.758   5.951  0.00  0.00    +0.140 C 
ATOM     16  C   UNL     1      10.116   5.824   8.236  0.00  0.00    +0.065 A 
ATOM     17  C   UNL     1       9.910   4.737   7.427  0.00  0.00    +0.053 A 
ATOM     21  C   UNL     1       9.870   4.179   9.546  0.00  0.00    +0.197 A 
ATOM     33  H   UNL     1       9.569   2.719   8.017  0.00  0.00    +0.167 HD
ENDROOT
BRANCH  11  12
ATOM      1  O   UNL     1      10.003   9.267   5.003  0.00  0.00    -0.274 OA
ATOM      2  N   UNL     1      12.055   8.523   5.795  0.00  0.00    -0.300 N 
ATOM      6  C   UNL     1      14.864   8.279   5.110  0.00  0.00    -0.004 C 
ATOM      7  C   UNL     1      14.049   7.083   5.628  0.00  0.00    +0.023 C 
ATOM      8  C   UNL     1      13.941   9.283   4.402  0.00  0.00    +0.023 C 
ATOM      9  C   UNL     1      12.885   7.542   6.504  0.00  0.00    +0.108 C 
ATOM     10  C   UNL     1      12.780   9.696   5.304  0.00  0.00    +0.108 C 
ATOM     12  C   UNL     1      10.678   8.427   5.603  0.00  0.00    +0.233 C 
BRANCH   6  13
ATOM     13  C   UNL     1      15.978   7.813   4.175  0.00  0.00    +0.038 C 
BRANCH  13  19
ATOM     19  C   UNL     1      17.331   8.249   4.666  0.00  0.00    -0.047 A 
ATOM     22  C   UNL     1      17.479   8.737   5.964  0.00  0.00    +0.003 A 
ATOM     23  C   UNL     1      18.439   8.163   3.823  0.00  0.00    +0.003 A 
ATOM     26  C   UNL     1      18.734   9.141   6.419  0.00  0.00    +0.000 A 
ATOM     27  C   UNL     1      19.694   8.567   4.277  0.00  0.00    +0.000 A 
ATOM     28  C   UNL     1      19.842   9.056   5.575  0.00  0.00    +0.000 A 
ENDBRANCH  13  19
ENDBRANCH   6  13
ENDBRANCH  11  12
BRANCH   3  18
ATOM     18  C   UNL     1      10.192   6.098   3.988  0.00  0.00    +0.120 C 
BRANCH  18  20
ATOM     20  C   UNL     1      11.289   5.474   3.167  0.00  0.00    -0.033 A 
ATOM     24  C   UNL     1      12.391   6.236   2.780  0.00  0.00    +0.005 A 
ATOM     25  C   UNL     1      11.202   4.133   2.791  0.00  0.00    +0.005 A 
ATOM     29  C   UNL     1      13.405   5.659   2.018  0.00  0.00    +0.003 A 
ATOM     30  C   UNL     1      12.216   3.555   2.028  0.00  0.00    +0.003 A 
ATOM     31  C   UNL     1      13.318   4.318   1.642  0.00  0.00    -0.050 A 
ATOM     32  C   UNL     1      14.404   3.701   0.826  0.00  0.00    +0.044 C 
ENDBRANCH  18  20
ENDBRANCH   3  18
TORSDOF 5
ENDMDL
MODEL 5
REMARK VINA RESULT:      -7.0      4.068      9.626
REMARK  Name = 26745401
REMARK  6 active torsions:
REMARK  status: ('A' for Active; 'I' for Inactive)
REMARK    1  A    between atoms: N_3  and  C_18
REMARK    2  A    between atoms: C_6  and  C_13
REMARK    3  A    between atoms: C_11  and  C_12
REMARK    4  A    between atoms: C_13  and  C_19
REMARK    5  A    between atoms: C_18  and  C_20
REMARK    6  A    between atoms: C_31  and  C_32
REMARK                            x       y       z     vdW  Elec       q    Type
REMARK                         _______ _______ _______ _____ _____    ______ ____
ROOT
ATOM      3  N   UNL     1      10.364   5.789   4.802  0.00  0.00    -0.281 NA
ATOM      4  N   UNL     1       9.792   3.689   7.852  0.00  0.00    -0.347 N 
ATOM      5  N   UNL     1       9.636   5.650   8.917  0.00  0.00    -0.240 NA
ATOM     11  C   UNL     1       9.592   6.946   5.338  0.00  0.00    +0.150 C 
ATOM     14  C   UNL     1       9.771   7.147   6.873  0.00  0.00    +0.085 C 
ATOM     15  C   UNL     1       9.944   4.502   5.428  0.00  0.00    +0.140 C 
ATOM     16  C   UNL     1       9.737   5.845   7.569  0.00  0.00    +0.065 A 
ATOM     17  C   UNL     1       9.841   4.656   6.894  0.00  0.00    +0.053 A 
ATOM     21  C   UNL     1       9.670   4.338   9.055  0.00  0.00    +0.197 A 
ATOM     33  H   UNL     1       9.835   2.689   7.710  0.00  0.00    +0.167 HD
ENDROOT
BRANCH  11  12
ATOM      1  O   UNL     1      11.288   8.444   4.662  0.00  0.00    -0.274 OA
ATOM      2  N   UNL     1       9.107   9.030   4.119  0.00  0.00    -0.300 N 
ATOM      6  C   UNL     1       7.260  11.265   3.995  0.00  0.00    -0.004 C 
ATOM      7  C   UNL     1       6.900   9.955   4.713  0.00  0.00    +0.023 C 
ATOM      8  C   UNL     1       8.783  11.470   4.000  0.00  0.00    +0.023 C 
ATOM      9  C   UNL     1       7.663   8.770   4.122  0.00  0.00    +0.108 C 
ATOM     10  C   UNL     1       9.506  10.255   3.423  0.00  0.00    +0.108 C 
ATOM     12  C   UNL     1      10.078   8.202   4.679  0.00  0.00    +0.233 C 
BRANCH   6  13
ATOM     13  C   UNL     1       6.551  12.451   4.642  0.00  0.00    +0.038 C 
BRANCH  13  19
ATOM     19  C   UNL     1       5.066  12.405   4.406  0.00  0.00    -0.047 A 
ATOM     22  C   UNL     1       4.570  12.178   3.122  0.00  0.00    +0.003 A 
ATOM     23  C   UNL     1       4.184  12.589   5.472  0.00  0.00    +0.003 A 
ATOM     26  C   UNL     1       3.193  12.136   2.903  0.00  0.00    +0.000 A 
ATOM     27  C   UNL     1       2.808  12.547   5.253  0.00  0.00    +0.000 A 
ATOM     28  C   UNL     1       2.311  12.320   3.969  0.00  0.00    +0.000 A 
ENDBRANCH  13  19
ENDBRANCH   6  13
ENDBRANCH  11  12
BRANCH   3  18
ATOM     18  C   UNL     1      10.241   5.659   3.345  0.00  0.00    +0.120 C 
BRANCH  18  20
ATOM     20  C   UNL     1      11.501   5.121   2.722  0.00  0.00    -0.033 A 
ATOM     24  C   UNL     1      11.557   3.794   2.295  0.00  0.00    +0.005 A 
ATOM     25  C   UNL     1      12.614   5.948   2.574  0.00  0.00    +0.005 A 
ATOM     29  C   UNL     1      12.725   3.295   1.720  0.00  0.00    +0.003 A 
ATOM     30  C   UNL     1      13.783   5.449   1.999  0.00  0.00    +0.003 A 
ATOM     31  C   UNL     1      13.838   4.122   1.572  0.00  0.00    -0.050 A 
ATOM     32  C   UNL     1      15.088   3.588   0.957  0.00  0.00    +0.044 C 
ENDBRANCH  18  20
ENDBRANCH   3  18
TORSDOF 5
ENDMDL
MODEL 6
REMARK VINA RESULT:      -6.9      4.815      7.339
REMARK  Name = 26745401
REMARK  6 active torsions:
REMARK  status: ('A' for Active; 'I' for Inactive)
REMARK    1  A    between atoms: N_3  and  C_18
REMARK    2  A    between atoms: C_6  and  C_13
REMARK    3  A    between atoms: C_11  and  C_12
REMARK    4  A    between atoms: C_13  and  C_19
REMARK    5  A    between atoms: C_18  and  C_20
REMARK    6  A    between atoms: C_31  and  C_32
REMARK                            x       y       z     vdW  Elec       q    Type
REMARK                         _______ _______ _______ _____ _____    ______ ____
ROOT
ATOM      3  N   UNL     1       9.825   7.777   4.002  0.00  0.00    -0.281 NA
ATOM      4  N   UNL     1       9.598  11.467   3.402  0.00  0.00    -0.347 N 
ATOM      5  N   UNL     1      11.505  11.188   2.265  0.00  0.00    -0.240 NA
ATOM     11  C   UNL     1      10.595   7.524   2.751  0.00  0.00    +0.150 C 
ATOM     14  C   UNL     1      11.610   8.657   2.413  0.00  0.00    +0.085 C 
ATOM     15  C   UNL     1       9.017   9.027   3.916  0.00  0.00    +0.140 C 
ATOM     16  C   UNL     1      11.001   9.981   2.658  0.00  0.00    +0.065 A 
ATOM     17  C   UNL     1       9.835  10.127   3.363  0.00  0.00    +0.053 A 
ATOM     21  C   UNL     1      10.634  12.065   2.727  0.00  0.00    +0.197 A 
ATOM     33  H   UNL     1       8.815  11.935   3.837  0.00  0.00    +0.167 HD
ENDROOT
BRANCH  11  12
ATOM      1  O   UNL     1      12.204   6.184   3.844  0.00  0.00    -0.274 OA
ATOM      2  N   UNL     1      11.160   5.252   1.990  0.00  0.00    -0.300 N 
ATOM      6  C   UNL     1      11.631   3.655  -0.387  0.00  0.00    -0.004 C 
ATOM      7  C   UNL     1      10.892   5.001  -0.448  0.00  0.00    +0.023 C 
ATOM      8  C   UNL     1      12.596   3.634   0.808  0.00  0.00    +0.023 C 
ATOM      9  C   UNL     1      10.204   5.318   0.879  0.00  0.00    +0.108 C 
ATOM     10  C   UNL     1      11.873   3.978   2.108  0.00  0.00    +0.108 C 
ATOM     12  C   UNL     1      11.393   6.266   2.917  0.00  0.00    +0.233 C 
BRANCH   6  13
ATOM     13  C   UNL     1      12.377   3.385  -1.691  0.00  0.00    +0.038 C 
BRANCH  13  19
ATOM     19  C   UNL     1      11.427   3.146  -2.834  0.00  0.00    -0.047 A 
ATOM     22  C   UNL     1      11.524   3.914  -3.994  0.00  0.00    +0.003 A 
ATOM     23  C   UNL     1      10.449   2.157  -2.732  0.00  0.00    +0.003 A 
ATOM     26  C   UNL     1      10.643   3.693  -5.053  0.00  0.00    +0.000 A 
ATOM     27  C   UNL     1       9.568   1.935  -3.790  0.00  0.00    +0.000 A 
ATOM     28  C   UNL     1       9.665   2.703  -4.951  0.00  0.00    +0.000 A 
ENDBRANCH  13  19
ENDBRANCH   6  13
ENDBRANCH  11  12
BRANCH   3  18
ATOM     18  C   UNL     1       8.928   6.666   4.343  0.00  0.00    +0.120 C 
BRANCH  18  20
ATOM     20  C   UNL     1       9.121   6.204   5.763  0.00  0.00    -0.033 A 
ATOM     24  C   UNL     1       9.711   4.966   6.020  0.00  0.00    +0.005 A 
ATOM     25  C   UNL     1       8.708   7.012   6.821  0.00  0.00    +0.005 A 
ATOM     29  C   UNL     1       9.887   4.537   7.334  0.00  0.00    +0.003 A 
ATOM     30  C   UNL     1       8.884   6.583   8.137  0.00  0.00    +0.003 A 
ATOM     31  C   UNL     1       9.474   5.346   8.393  0.00  0.00    -0.050 A 
ATOM     32  C   UNL     1       9.663   4.887   9.800  0.00  0.00    +0.044 C 
ENDBRANCH  18  20
ENDBRANCH   3  18
TORSDOF 5
ENDMDL
MODEL 7
REMARK VINA RESULT:      -6.8     25.212     28.897
REMARK  Name = 26745401
REMARK  6 active torsions:
REMARK  status: ('A' for Active; 'I' for Inactive)
REMARK    1  A    between atoms: N_3  and  C_18
REMARK    2  A    between atoms: C_6  and  C_13
REMARK    3  A    between atoms: C_11  and  C_12
REMARK    4  A    between atoms: C_13  and  C_19
REMARK    5  A    between atoms: C_18  and  C_20
REMARK    6  A    between atoms: C_31  and  C_32
REMARK                            x       y       z     vdW  Elec       q    Type
REMARK                         _______ _______ _______ _____ _____    ______ ____
ROOT
ATOM      3  N   UNL     1      -9.335  -9.445  16.718  0.00  0.00    -0.281 NA
ATOM      4  N   UNL     1     -10.985  -6.085  16.577  0.00  0.00    -0.347 N 
ATOM      5  N   UNL     1     -12.158  -6.964  14.888  0.00  0.00    -0.240 NA
ATOM     11  C   UNL     1     -10.520 -10.157  16.158  0.00  0.00    +0.150 C 
ATOM     14  C   UNL     1     -11.273  -9.334  15.069  0.00  0.00    +0.085 C 
ATOM     15  C   UNL     1      -9.715  -8.161  17.374  0.00  0.00    +0.140 C 
ATOM     16  C   UNL     1     -11.378  -7.919  15.475  0.00  0.00    +0.065 A 
ATOM     17  C   UNL     1     -10.644  -7.402  16.511  0.00  0.00    +0.053 A 
ATOM     21  C   UNL     1     -11.901  -5.869  15.577  0.00  0.00    +0.197 A 
ATOM     33  H   UNL     1     -10.638  -5.399  17.233  0.00  0.00    +0.167 HD
ENDROOT
BRANCH  11  12
ATOM      1  O   UNL     1     -10.401 -12.509  15.983  0.00  0.00    -0.274 OA
ATOM      2  N   UNL     1      -9.263 -11.287  14.369  0.00  0.00    -0.300 N 
ATOM      6  C   UNL     1      -6.796 -11.176  12.845  0.00  0.00    -0.004 C 
ATOM      7  C   UNL     1      -7.324  -9.960  13.623  0.00  0.00    +0.023 C 
ATOM      8  C   UNL     1      -7.288 -12.477  13.498  0.00  0.00    +0.023 C 
ATOM      9  C   UNL     1      -8.843 -10.013  13.773  0.00  0.00    +0.108 C 
ATOM     10  C   UNL     1      -8.807 -12.479  13.649  0.00  0.00    +0.108 C 
ATOM     12  C   UNL     1     -10.061 -11.424  15.502  0.00  0.00    +0.233 C 
BRANCH   6  13
ATOM     13  C   UNL     1      -5.271 -11.151  12.767  0.00  0.00    +0.038 C 
BRANCH  13  19
ATOM     19  C   UNL     1      -4.791 -10.378  11.569  0.00  0.00    -0.047 A 
ATOM     22  C   UNL     1      -3.437 -10.071  11.433  0.00  0.00    +0.003 A 
ATOM     23  C   UNL     1      -5.700  -9.968  10.593  0.00  0.00    +0.003 A 
ATOM     26  C   UNL     1      -2.991  -9.354  10.323  0.00  0.00    +0.000 A 
ATOM     27  C   UNL     1      -5.255  -9.252   9.483  0.00  0.00    +0.000 A 
ATOM     28  C   UNL     1      -3.901  -8.944   9.347  0.00  0.00    +0.000 A 
ENDBRANCH  13  19
ENDBRANCH   6  13
ENDBRANCH  11  12
BRANCH   3  18
ATOM     18  C   UNL     1      -8.597 -10.263  17.688  0.00  0.00    +0.120 C 
BRANCH  18  20
ATOM     20  C   UNL     1      -7.191 -10.546  17.230  0.00  0.00    -0.033 A 
ATOM     24  C   UNL     1      -6.347  -9.493  16.878  0.00  0.00    +0.005 A 
ATOM     25  C   UNL     1      -6.734 -11.861  17.154  0.00  0.00    +0.005 A 
ATOM     29  C   UNL     1      -5.046  -9.755  16.451  0.00  0.00    +0.003 A 
ATOM     30  C   UNL     1      -5.433 -12.124  16.726  0.00  0.00    +0.003 A 
ATOM     31  C   UNL     1      -4.589 -11.071  16.375  0.00  0.00    -0.050 A 
ATOM     32  C   UNL     1      -3.197 -11.351  15.918  0.00  0.00    +0.044 C 
ENDBRANCH  18  20
ENDBRANCH   3  18
TORSDOF 5
ENDMDL
MODEL 8
REMARK VINA RESULT:      -6.7     25.917     29.710
REMARK  Name = 26745401
REMARK  6 active torsions:
REMARK  status: ('A' for Active; 'I' for Inactive)
REMARK    1  A    between atoms: N_3  and  C_18
REMARK    2  A    between atoms: C_6  and  C_13
REMARK    3  A    between atoms: C_11  and  C_12
REMARK    4  A    between atoms: C_13  and  C_19
REMARK    5  A    between atoms: C_18  and  C_20
REMARK    6  A    between atoms: C_31  and  C_32
REMARK                            x       y       z     vdW  Elec       q    Type
REMARK                         _______ _______ _______ _____ _____    ______ ____
ROOT
ATOM      3  N   UNL     1      -7.973 -12.220  17.984  0.00  0.00    -0.281 NA
ATOM      4  N   UNL     1     -10.156 -10.293  20.342  0.00  0.00    -0.347 N 
ATOM      5  N   UNL     1     -11.694 -10.463  18.727  0.00  0.00    -0.240 NA
ATOM     11  C   UNL     1      -9.125 -12.894  17.318  0.00  0.00    +0.150 C 
ATOM     14  C   UNL     1     -10.375 -11.975  17.174  0.00  0.00    +0.085 C 
ATOM     15  C   UNL     1      -8.311 -11.778  19.368  0.00  0.00    +0.140 C 
ATOM     16  C   UNL     1     -10.584 -11.193  18.409  0.00  0.00    +0.065 A 
ATOM     17  C   UNL     1      -9.623 -11.098  19.382  0.00  0.00    +0.053 A 
ATOM     21  C   UNL     1     -11.405  -9.934  19.900  0.00  0.00    +0.197 A 
ATOM     33  H   UNL     1      -9.722 -10.013  21.211  0.00  0.00    +0.167 HD
ENDROOT
BRANCH  11  12
ATOM      1  O   UNL     1      -8.691 -14.490  15.633  0.00  0.00    -0.274 OA
ATOM      2  N   UNL     1      -8.391 -12.260  15.055  0.00  0.00    -0.300 N 
ATOM      6  C   UNL     1      -6.651 -10.445  13.608  0.00  0.00    -0.004 C 
ATOM      7  C   UNL     1      -7.070 -10.179  15.062  0.00  0.00    +0.023 C 
ATOM      8  C   UNL     1      -6.670 -11.954  13.319  0.00  0.00    +0.023 C 
ATOM      9  C   UNL     1      -8.416 -10.829  15.380  0.00  0.00    +0.108 C 
ATOM     10  C   UNL     1      -8.023 -12.567  13.672  0.00  0.00    +0.108 C 
ATOM     12  C   UNL     1      -8.719 -13.293  15.932  0.00  0.00    +0.233 C 
BRANCH   6  13
ATOM     13  C   UNL     1      -5.272  -9.855  13.324  0.00  0.00    +0.038 C 
BRANCH  13  19
ATOM     19  C   UNL     1      -5.087  -9.558  11.861  0.00  0.00    -0.047 A 
ATOM     22  C   UNL     1      -3.903  -9.919  11.219  0.00  0.00    +0.003 A 
ATOM     23  C   UNL     1      -6.102  -8.921  11.146  0.00  0.00    +0.003 A 
ATOM     26  C   UNL     1      -3.731  -9.642   9.863  0.00  0.00    +0.000 A 
ATOM     27  C   UNL     1      -5.931  -8.645   9.790  0.00  0.00    +0.000 A 
ATOM     28  C   UNL     1      -4.746  -9.005   9.148  0.00  0.00    +0.000 A 
ENDBRANCH  13  19
ENDBRANCH   6  13
ENDBRANCH  11  12
BRANCH   3  18
ATOM     18  C   UNL     1      -6.782 -13.075  18.047  0.00  0.00    +0.120 C 
BRANCH  18  20
ATOM     20  C   UNL     1      -5.598 -12.439  17.370  0.00  0.00    -0.033 A 
ATOM     24  C   UNL     1      -4.996 -13.067  16.280  0.00  0.00    +0.005 A 
ATOM     25  C   UNL     1      -5.101 -11.221  17.835  0.00  0.00    +0.005 A 
ATOM     29  C   UNL     1      -3.897 -12.478  15.655  0.00  0.00    +0.003 A 
ATOM     30  C   UNL     1      -4.002 -10.631  17.209  0.00  0.00    +0.003 A 
ATOM     31  C   UNL     1      -3.400 -11.260  16.120  0.00  0.00    -0.050 A 
ATOM     32  C   UNL     1      -2.225 -10.631  15.450  0.00  0.00    +0.044 C 
ENDBRANCH  18  20
ENDBRANCH   3  18
TORSDOF 5
ENDMDL
MODEL 9
REMARK VINA RESULT:      -6.7     24.789     28.513
REMARK  Name = 26745401
REMARK  6 active torsions:
REMARK  status: ('A' for Active; 'I' for Inactive)
REMARK    1  A    between atoms: N_3  and  C_18
REMARK    2  A    between atoms: C_6  and  C_13
REMARK    3  A    between atoms: C_11  and  C_12
REMARK    4  A    between atoms: C_13  and  C_19
REMARK    5  A    between atoms: C_18  and  C_20
REMARK    6  A    between atoms: C_31  and  C_32
REMARK                            x       y       z     vdW  Elec       q    Type
REMARK                         _______ _______ _______ _____ _____    ______ ____
ROOT
ATOM      3  N   UNL     1      -3.734 -12.518  12.445  0.00  0.00    -0.281 NA
ATOM      4  N   UNL     1      -4.575 -10.878   9.184  0.00  0.00    -0.347 N 
ATOM      5  N   UNL     1      -3.360  -9.172   9.967  0.00  0.00    -0.240 NA
ATOM     11  C   UNL     1      -2.456 -11.765  12.603  0.00  0.00    +0.150 C 
ATOM     14  C   UNL     1      -2.540 -10.297  12.088  0.00  0.00    +0.085 C 
ATOM     15  C   UNL     1      -4.150 -12.616  11.017  0.00  0.00    +0.140 C 
ATOM     16  C   UNL     1      -3.284 -10.241  10.814  0.00  0.00    +0.065 A 
ATOM     17  C   UNL     1      -4.028 -11.298  10.358  0.00  0.00    +0.053 A 
ATOM     21  C   UNL     1      -4.144  -9.589   8.992  0.00  0.00    +0.197 A 
ATOM     33  H   UNL     1      -5.179 -11.408   8.570  0.00  0.00    +0.167 HD
ENDROOT
BRANCH  11  12
ATOM      1  O   UNL     1      -1.082 -12.242  14.464  0.00  0.00    -0.274 OA
ATOM      2  N   UNL     1      -2.998 -10.996  14.878  0.00  0.00    -0.300 N 
ATOM      6  C   UNL     1      -5.192 -10.653  16.746  0.00  0.00    -0.004 C 
ATOM      7  C   UNL     1      -5.431 -10.816  15.237  0.00  0.00    +0.023 C 
ATOM      8  C   UNL     1      -3.881 -11.343  17.153  0.00  0.00    +0.023 C 
ATOM      9  C   UNL     1      -4.228 -10.332  14.429  0.00  0.00    +0.108 C 
ATOM     10  C   UNL     1      -2.710 -10.848  16.306  0.00  0.00    +0.108 C 
ATOM     12  C   UNL     1      -2.111 -11.693  14.060  0.00  0.00    +0.233 C 
BRANCH   6  13
ATOM     13  C   UNL     1      -6.368 -11.208  17.545  0.00  0.00    +0.038 C 
BRANCH  13  19
ATOM     19  C   UNL     1      -7.659 -10.532  17.173  0.00  0.00    -0.047 A 
ATOM     22  C   UNL     1      -7.833  -9.172  17.425  0.00  0.00    +0.003 A 
ATOM     23  C   UNL     1      -8.684 -11.267  16.576  0.00  0.00    +0.003 A 
ATOM     26  C   UNL     1      -9.031  -8.545  17.081  0.00  0.00    +0.000 A 
ATOM     27  C   UNL     1      -9.881 -10.641  16.231  0.00  0.00    +0.000 A 
ATOM     28  C   UNL     1     -10.055  -9.280  16.484  0.00  0.00    +0.000 A 
ENDBRANCH  13  19
ENDBRANCH   6  13
ENDBRANCH  11  12
BRANCH   3  18
ATOM     18  C   UNL     1      -3.658 -13.874  13.001  0.00  0.00    +0.120 C 
BRANCH  18  20
ATOM     20  C   UNL     1      -4.699 -14.104  14.064  0.00  0.00    -0.033 A 
ATOM     24  C   UNL     1      -6.052 -13.967  13.756  0.00  0.00    +0.005 A 
ATOM     25  C   UNL     1      -4.310 -14.451  15.358  0.00  0.00    +0.005 A 
ATOM     29  C   UNL     1      -7.016 -14.178  14.741  0.00  0.00    +0.003 A 
ATOM     30  C   UNL     1      -5.274 -14.662  16.344  0.00  0.00    +0.003 A 
ATOM     31  C   UNL     1      -6.627 -14.525  16.035  0.00  0.00    -0.050 A 
ATOM     32  C   UNL     1      -7.659 -14.750  17.089  0.00  0.00    +0.044 C 
ENDBRANCH  18  20
ENDBRANCH   3  18
TORSDOF 5
ENDMDL
MODEL 10
REMARK VINA RESULT:      -6.6     28.825     31.737
REMARK  Name = 26745401
REMARK  6 active torsions:
REMARK  status: ('A' for Active; 'I' for Inactive)
REMARK    1  A    between atoms: N_3  and  C_18
REMARK    2  A    between atoms: C_6  and  C_13
REMARK    3  A    between atoms: C_11  and  C_12
REMARK    4  A    between atoms: C_13  and  C_19
REMARK    5  A    between atoms: C_18  and  C_20
REMARK    6  A    between atoms: C_31  and  C_32
REMARK                            x       y       z     vdW  Elec       q    Type
REMARK                         _______ _______ _______ _____ _____    ______ ____
ROOT
ATOM      3  N   UNL     1      -9.824 -11.078  17.818  0.00  0.00    -0.281 NA
ATOM      4  N   UNL     1     -12.141 -13.446  19.568  0.00  0.00    -0.347 N 
ATOM      5  N   UNL     1     -13.467 -11.657  19.787  0.00  0.00    -0.240 NA
ATOM     11  C   UNL     1     -10.928 -10.184  17.363  0.00  0.00    +0.150 C 
ATOM     14  C   UNL     1     -12.076 -10.045  18.407  0.00  0.00    +0.085 C 
ATOM     15  C   UNL     1     -10.303 -12.467  18.077  0.00  0.00    +0.140 C 
ATOM     16  C   UNL     1     -12.383 -11.357  19.012  0.00  0.00    +0.065 A 
ATOM     17  C   UNL     1     -11.551 -12.437  18.868  0.00  0.00    +0.053 A 
ATOM     21  C   UNL     1     -13.293 -12.926  20.105  0.00  0.00    +0.197 A 
ATOM     33  H   UNL     1     -11.804 -14.393  19.672  0.00  0.00    +0.167 HD
ENDROOT
BRANCH  11  12
ATOM      1  O   UNL     1      -9.598  -8.329  17.968  0.00  0.00    -0.274 OA
ATOM      2  N   UNL     1     -10.796  -8.147  15.986  0.00  0.00    -0.300 N 
ATOM      6  C   UNL     1     -12.392  -6.323  14.390  0.00  0.00    -0.004 C 
ATOM      7  C   UNL     1     -12.887  -7.733  14.749  0.00  0.00    +0.023 C 
ATOM      8  C   UNL     1     -11.409  -5.819  15.459  0.00  0.00    +0.023 C 
ATOM      9  C   UNL     1     -11.720  -8.690  14.983  0.00  0.00    +0.108 C 
ATOM     10  C   UNL     1     -10.272  -6.815  15.678  0.00  0.00    +0.108 C 
ATOM     12  C   UNL     1     -10.378  -8.808  17.140  0.00  0.00    +0.233 C 
BRANCH   6  13
ATOM     13  C   UNL     1     -13.564  -5.359  14.233  0.00  0.00    +0.038 C 
BRANCH  13  19
ATOM     19  C   UNL     1     -13.497  -4.614  12.927  0.00  0.00    -0.047 A 
ATOM     22  C   UNL     1     -12.335  -4.659  12.157  0.00  0.00    +0.003 A 
ATOM     23  C   UNL     1     -14.598  -3.878  12.487  0.00  0.00    +0.003 A 
ATOM     26  C   UNL     1     -12.273  -3.967  10.947  0.00  0.00    +0.000 A 
ATOM     27  C   UNL     1     -14.536  -3.188  11.278  0.00  0.00    +0.000 A 
ATOM     28  C   UNL     1     -13.374  -3.231  10.507  0.00  0.00    +0.000 A 
ENDBRANCH  13  19
ENDBRANCH   6  13
ENDBRANCH  11  12
BRANCH   3  18
ATOM     18  C   UNL     1      -8.719 -11.140  16.855  0.00  0.00    +0.120 C 
BRANCH  18  20
ATOM     20  C   UNL     1      -7.400 -11.408  17.530  0.00  0.00    -0.033 A 
ATOM     24  C   UNL     1      -6.659 -12.539  17.189  0.00  0.00    +0.005 A 
ATOM     25  C   UNL     1      -6.921 -10.526  18.498  0.00  0.00    +0.005 A 
ATOM     29  C   UNL     1      -5.440 -12.789  17.817  0.00  0.00    +0.003 A 
ATOM     30  C   UNL     1      -5.700 -10.775  19.126  0.00  0.00    +0.003 A 
ATOM     31  C   UNL     1      -4.960 -11.907  18.785  0.00  0.00    -0.050 A 
ATOM     32  C   UNL     1      -3.655 -12.174  19.456  0.00  0.00    +0.044 C 
ENDBRANCH  18  20
ENDBRANCH   3  18
TORSDOF 5
ENDMDL
