MODEL 1
REMARK VINA RESULT:      -7.7      0.000      0.000
REMARK  Name = 40533466
REMARK  3 active torsions:
REMARK  status: ('A' for Active; 'I' for Inactive)
REMARK    1  A    between atoms: N_5  and  C_20
REMARK    2  A    between atoms: C_17  and  C_19
REMARK    3  A    between atoms: C_29  and  C_30
REMARK                            x       y       z     vdW  Elec       q    Type
REMARK                         _______ _______ _______ _____ _____    ______ ____
ROOT
ATOM      1  O   UNL     1      10.792   7.115   2.266  0.00  0.00    -0.267 OA
ATOM      2  O   UNL     1      13.314   6.338   7.437  0.00  0.00    -0.252 OA
ATOM      3  N   UNL     1      11.434   7.668   7.215  0.00  0.00    -0.284 N 
ATOM      4  N   UNL     1      10.083   6.772   4.462  0.00  0.00    -0.311 N 
ATOM      5  N   UNL     1      13.561   8.493   6.614  0.00  0.00    -0.269 N 
ATOM      7  C   UNL     1       9.481   8.702   6.031  0.00  0.00    +0.027 C 
ATOM      8  C   UNL     1       9.334   6.385   6.834  0.00  0.00    +0.054 C 
ATOM      9  C   UNL     1       8.558   7.693   6.701  0.00  0.00    +0.018 C 
ATOM     10  C   UNL     1      10.757   8.928   6.867  0.00  0.00    +0.114 C 
ATOM     11  C   UNL     1       9.806   8.206   4.615  0.00  0.00    +0.130 C 
ATOM     12  C   UNL     1      10.556   6.615   7.741  0.00  0.00    +0.119 C 
ATOM     13  C   UNL     1       9.786   5.867   5.483  0.00  0.00    +0.027 A 
ATOM     14  C   UNL     1       9.933   4.549   5.278  0.00  0.00    +0.022 A 
ATOM     15  C   UNL     1      10.555   6.350   3.203  0.00  0.00    +0.259 A 
ATOM     16  C   UNL     1      12.820   7.418   7.104  0.00  0.00    +0.306 C 
ATOM     17  C   UNL     1      10.748   4.869   3.016  0.00  0.00    +0.048 A 
ATOM     18  C   UNL     1      10.427   4.047   4.027  0.00  0.00    +0.015 A 
ATOM     31  H   UNL     1      13.234   9.432   6.821  0.00  0.00    +0.156 HD
ENDROOT
BRANCH   5  20
ATOM     20  C   UNL     1      14.758   8.434   5.859  0.00  0.00    +0.035 A 
ATOM     23  C   UNL     1      14.801   7.695   4.676  0.00  0.00    +0.023 A 
ATOM     24  C   UNL     1      15.893   9.114   6.297  0.00  0.00    +0.023 A 
ATOM     26  C   UNL     1      15.979   7.637   3.932  0.00  0.00    +0.005 A 
ATOM     27  C   UNL     1      17.072   9.055   5.554  0.00  0.00    +0.005 A 
ATOM     29  C   UNL     1      17.115   8.318   4.371  0.00  0.00    -0.050 A 
ATOM     30  C   UNL     1      18.375   8.256   3.575  0.00  0.00    +0.044 C 
ENDBRANCH   5  20
BRANCH  17  19
ATOM      6  N   UNL     1      10.963   3.832  -0.586  0.00  0.00    -0.263 NA
ATOM     19  C   UNL     1      11.287   4.322   1.759  0.00  0.00    +0.005 A 
ATOM     21  C   UNL     1      12.572   3.794   1.700  0.00  0.00    +0.011 A 
ATOM     22  C   UNL     1      10.530   4.318   0.600  0.00  0.00    +0.119 A 
ATOM     25  C   UNL     1      13.054   3.285   0.499  0.00  0.00    +0.020 A 
ATOM     28  C   UNL     1      12.217   3.326  -0.605  0.00  0.00    +0.111 A 
ENDBRANCH  17  19
TORSDOF 2
ENDMDL
MODEL 2
REMARK VINA RESULT:      -7.6     13.796     16.042
REMARK  Name = 40533466
REMARK  3 active torsions:
REMARK  status: ('A' for Active; 'I' for Inactive)
REMARK    1  A    between atoms: N_5  and  C_20
REMARK    2  A    between atoms: C_17  and  C_19
REMARK    3  A    between atoms: C_29  and  C_30
REMARK                            x       y       z     vdW  Elec       q    Type
REMARK                         _______ _______ _______ _____ _____    ______ ____
ROOT
ATOM      1  O   UNL     1      14.319  12.067  19.700  0.00  0.00    -0.267 OA
ATOM      2  O   UNL     1      15.318   6.373  19.164  0.00  0.00    -0.252 OA
ATOM      3  N   UNL     1      13.534   7.158  20.410  0.00  0.00    -0.284 N 
ATOM      4  N   UNL     1      13.036  10.144  19.388  0.00  0.00    -0.311 N 
ATOM      5  N   UNL     1      15.717   7.173  21.304  0.00  0.00    -0.269 N 
ATOM      7  C   UNL     1      11.960   8.877  21.334  0.00  0.00    +0.027 C 
ATOM      8  C   UNL     1      11.665   8.062  19.035  0.00  0.00    +0.054 C 
ATOM      9  C   UNL     1      10.917   8.454  20.307  0.00  0.00    +0.018 C 
ATOM     10  C   UNL     1      12.943   7.728  21.632  0.00  0.00    +0.114 C 
ATOM     11  C   UNL     1      12.682  10.127  20.813  0.00  0.00    +0.130 C 
ATOM     12  C   UNL     1      12.578   6.859  19.338  0.00  0.00    +0.119 C 
ATOM     13  C   UNL     1      12.493   9.214  18.499  0.00  0.00    +0.027 A 
ATOM     14  C   UNL     1      12.733   9.321  17.183  0.00  0.00    +0.022 A 
ATOM     15  C   UNL     1      13.853  11.205  18.952  0.00  0.00    +0.259 A 
ATOM     16  C   UNL     1      14.903   6.870  20.214  0.00  0.00    +0.306 C 
ATOM     17  C   UNL     1      14.137  11.276  17.475  0.00  0.00    +0.048 A 
ATOM     18  C   UNL     1      13.572  10.365  16.668  0.00  0.00    +0.015 A 
ATOM     31  H   UNL     1      15.317   7.100  22.234  0.00  0.00    +0.156 HD
ENDROOT
BRANCH   5  20
ATOM     20  C   UNL     1      17.079   7.562  21.273  0.00  0.00    +0.035 A 
ATOM     23  C   UNL     1      18.081   6.593  21.213  0.00  0.00    +0.023 A 
ATOM     24  C   UNL     1      17.418   8.914  21.304  0.00  0.00    +0.023 A 
ATOM     26  C   UNL     1      19.422   6.977  21.183  0.00  0.00    +0.005 A 
ATOM     27  C   UNL     1      18.759   9.298  21.275  0.00  0.00    +0.005 A 
ATOM     29  C   UNL     1      19.761   8.329  21.213  0.00  0.00    -0.050 A 
ATOM     30  C   UNL     1      21.194   8.739  21.181  0.00  0.00    +0.044 C 
ENDBRANCH   5  20
BRANCH  17  19
ATOM      6  N   UNL     1      15.267  14.498  15.914  0.00  0.00    -0.263 NA
ATOM     19  C   UNL     1      15.023  12.312  16.917  0.00  0.00    +0.005 A 
ATOM     21  C   UNL     1      16.399  12.121  16.855  0.00  0.00    +0.011 A 
ATOM     22  C   UNL     1      14.511  13.507  16.438  0.00  0.00    +0.119 A 
ATOM     25  C   UNL     1      17.210  13.118  16.323  0.00  0.00    +0.020 A 
ATOM     28  C   UNL     1      16.601  14.277  15.869  0.00  0.00    +0.111 A 
ENDBRANCH  17  19
TORSDOF 2
ENDMDL
MODEL 3
REMARK VINA RESULT:      -7.1      1.724      6.091
REMARK  Name = 40533466
REMARK  3 active torsions:
REMARK  status: ('A' for Active; 'I' for Inactive)
REMARK    1  A    between atoms: N_5  and  C_20
REMARK    2  A    between atoms: C_17  and  C_19
REMARK    3  A    between atoms: C_29  and  C_30
REMARK                            x       y       z     vdW  Elec       q    Type
REMARK                         _______ _______ _______ _____ _____    ______ ____
ROOT
ATOM      1  O   UNL     1      13.906   7.278   6.990  0.00  0.00    -0.267 OA
ATOM      2  O   UNL     1       9.719   6.827   2.995  0.00  0.00    -0.252 OA
ATOM      3  N   UNL     1       9.391   6.068   5.156  0.00  0.00    -0.284 N 
ATOM      4  N   UNL     1      11.593   7.566   6.922  0.00  0.00    -0.311 N 
ATOM      5  N   UNL     1      10.620   4.780   3.609  0.00  0.00    -0.269 N 
ATOM      7  C   UNL     1       9.955   5.712   7.573  0.00  0.00    +0.027 C 
ATOM      8  C   UNL     1       9.098   7.890   6.828  0.00  0.00    +0.054 C 
ATOM      9  C   UNL     1       9.018   6.853   7.945  0.00  0.00    +0.018 C 
ATOM     10  C   UNL     1       9.545   5.074   6.230  0.00  0.00    +0.114 C 
ATOM     11  C   UNL     1      11.392   6.248   7.536  0.00  0.00    +0.130 C 
ATOM     12  C   UNL     1       8.605   7.254   5.515  0.00  0.00    +0.119 C 
ATOM     13  C   UNL     1      10.512   8.408   6.650  0.00  0.00    +0.027 A 
ATOM     14  C   UNL     1      10.725   9.655   6.202  0.00  0.00    +0.022 A 
ATOM     15  C   UNL     1      12.927   7.977   6.727  0.00  0.00    +0.259 A 
ATOM     16  C   UNL     1       9.909   5.955   3.847  0.00  0.00    +0.306 C 
ATOM     17  C   UNL     1      13.133   9.367   6.185  0.00  0.00    +0.048 A 
ATOM     18  C   UNL     1      12.056  10.135   5.962  0.00  0.00    +0.015 A 
ATOM     31  H   UNL     1      10.344   3.944   4.114  0.00  0.00    +0.156 HD
ENDROOT
BRANCH   5  20
ATOM     20  C   UNL     1      11.699   4.599   2.709  0.00  0.00    +0.035 A 
ATOM     23  C   UNL     1      11.883   3.369   2.078  0.00  0.00    +0.023 A 
ATOM     24  C   UNL     1      12.578   5.651   2.454  0.00  0.00    +0.023 A 
ATOM     26  C   UNL     1      12.945   3.190   1.192  0.00  0.00    +0.005 A 
ATOM     27  C   UNL     1      13.642   5.473   1.569  0.00  0.00    +0.005 A 
ATOM     29  C   UNL     1      13.825   4.243   0.937  0.00  0.00    -0.050 A 
ATOM     30  C   UNL     1      14.960   4.052  -0.011  0.00  0.00    +0.044 C 
ENDBRANCH   5  20
BRANCH  17  19
ATOM      6  N   UNL     1      16.363   9.996   4.378  0.00  0.00    -0.263 NA
ATOM     19  C   UNL     1      14.483   9.879   5.893  0.00  0.00    +0.005 A 
ATOM     21  C   UNL     1      15.150  10.698   6.797  0.00  0.00    +0.011 A 
ATOM     22  C   UNL     1      15.126   9.560   4.708  0.00  0.00    +0.119 A 
ATOM     25  C   UNL     1      16.424  11.166   6.493  0.00  0.00    +0.020 A 
ATOM     28  C   UNL     1      16.981  10.790   5.281  0.00  0.00    +0.111 A 
ENDBRANCH  17  19
TORSDOF 2
ENDMDL
MODEL 4
REMARK VINA RESULT:      -7.1     23.994     26.859
REMARK  Name = 40533466
REMARK  3 active torsions:
REMARK  status: ('A' for Active; 'I' for Inactive)
REMARK    1  A    between atoms: N_5  and  C_20
REMARK    2  A    between atoms: C_17  and  C_19
REMARK    3  A    between atoms: C_29  and  C_30
REMARK                            x       y       z     vdW  Elec       q    Type
REMARK                         _______ _______ _______ _____ _____    ______ ____
ROOT
ATOM      1  O   UNL     1      -1.717 -12.116  12.611  0.00  0.00    -0.267 OA
ATOM      2  O   UNL     1      -7.441 -11.167  12.816  0.00  0.00    -0.252 OA
ATOM      3  N   UNL     1      -6.068  -9.885  11.467  0.00  0.00    -0.284 N 
ATOM      4  N   UNL     1      -3.406 -11.611  11.083  0.00  0.00    -0.311 N 
ATOM      5  N   UNL     1      -6.198  -9.466  13.784  0.00  0.00    -0.269 N 
ATOM      7  C   UNL     1      -3.926  -9.215  10.349  0.00  0.00    +0.027 C 
ATOM      8  C   UNL     1      -5.243 -11.081   9.444  0.00  0.00    +0.054 C 
ATOM      9  C   UNL     1      -4.414  -9.859   9.058  0.00  0.00    +0.018 C 
ATOM     10  C   UNL     1      -5.110  -8.790  11.240  0.00  0.00    +0.114 C 
ATOM     11  C   UNL     1      -2.995 -10.201  11.067  0.00  0.00    +0.130 C 
ATOM     12  C   UNL     1      -6.465 -10.623  10.262  0.00  0.00    +0.119 C 
ATOM     13  C   UNL     1      -4.428 -12.074  10.250  0.00  0.00    +0.027 A 
ATOM     14  C   UNL     1      -4.705 -13.385  10.191  0.00  0.00    +0.022 A 
ATOM     15  C   UNL     1      -2.650 -12.482  11.892  0.00  0.00    +0.259 A 
ATOM     16  C   UNL     1      -6.627 -10.247  12.712  0.00  0.00    +0.306 C 
ATOM     17  C   UNL     1      -3.011 -13.942  11.834  0.00  0.00    +0.048 A 
ATOM     18  C   UNL     1      -3.989 -14.329  11.000  0.00  0.00    +0.015 A 
ATOM     31  H   UNL     1      -5.959  -8.496  13.603  0.00  0.00    +0.156 HD
ENDROOT
BRANCH   5  20
ATOM     20  C   UNL     1      -6.068  -9.865  15.137  0.00  0.00    +0.035 A 
ATOM     23  C   UNL     1      -7.169  -9.802  15.992  0.00  0.00    +0.023 A 
ATOM     24  C   UNL     1      -4.841 -10.322  15.615  0.00  0.00    +0.023 A 
ATOM     26  C   UNL     1      -7.042 -10.195  17.324  0.00  0.00    +0.005 A 
ATOM     27  C   UNL     1      -4.713 -10.714  16.948  0.00  0.00    +0.005 A 
ATOM     29  C   UNL     1      -5.814 -10.652  17.802  0.00  0.00    -0.050 A 
ATOM     30  C   UNL     1      -5.678 -11.073  19.226  0.00  0.00    +0.044 C 
ENDBRANCH   5  20
BRANCH  17  19
ATOM      6  N   UNL     1      -1.986 -15.905  14.866  0.00  0.00    -0.263 NA
ATOM     19  C   UNL     1      -2.321 -14.933  12.678  0.00  0.00    +0.005 A 
ATOM     21  C   UNL     1      -1.388 -15.810  12.137  0.00  0.00    +0.011 A 
ATOM     22  C   UNL     1      -2.583 -15.020  14.036  0.00  0.00    +0.119 A 
ATOM     25  C   UNL     1      -0.753 -16.734  12.959  0.00  0.00    +0.020 A 
ATOM     28  C   UNL     1      -1.084 -16.741  14.304  0.00  0.00    +0.111 A 
ENDBRANCH  17  19
TORSDOF 2
ENDMDL
MODEL 5
REMARK VINA RESULT:      -7.1      2.820      5.700
REMARK  Name = 40533466
REMARK  3 active torsions:
REMARK  status: ('A' for Active; 'I' for Inactive)
REMARK    1  A    between atoms: N_5  and  C_20
REMARK    2  A    between atoms: C_17  and  C_19
REMARK    3  A    between atoms: C_29  and  C_30
REMARK                            x       y       z     vdW  Elec       q    Type
REMARK                         _______ _______ _______ _____ _____    ______ ____
ROOT
ATOM      1  O   UNL     1      10.160   4.732   3.284  0.00  0.00    -0.267 OA
ATOM      2  O   UNL     1       9.645  10.204   5.154  0.00  0.00    -0.252 OA
ATOM      3  N   UNL     1       9.325   8.418   6.589  0.00  0.00    -0.284 N 
ATOM      4  N   UNL     1      10.766   5.935   5.188  0.00  0.00    -0.311 N 
ATOM      5  N   UNL     1       7.625   9.067   5.088  0.00  0.00    -0.269 N 
ATOM      7  C   UNL     1       9.309   6.011   7.290  0.00  0.00    +0.027 C 
ATOM      8  C   UNL     1      11.429   7.251   7.229  0.00  0.00    +0.054 C 
ATOM      9  C   UNL     1      10.622   6.232   8.030  0.00  0.00    +0.018 C 
ATOM     10  C   UNL     1       8.517   7.327   7.159  0.00  0.00    +0.114 C 
ATOM     11  C   UNL     1       9.616   5.390   5.921  0.00  0.00    +0.130 C 
ATOM     12  C   UNL     1      10.656   8.582   7.184  0.00  0.00    +0.119 C 
ATOM     13  C   UNL     1      11.697   6.763   5.818  0.00  0.00    +0.027 A 
ATOM     14  C   UNL     1      12.804   7.151   5.167  0.00  0.00    +0.022 A 
ATOM     15  C   UNL     1      10.939   5.492   3.861  0.00  0.00    +0.259 A 
ATOM     16  C   UNL     1       8.914   9.299   5.565  0.00  0.00    +0.306 C 
ATOM     17  C   UNL     1      12.170   5.977   3.142  0.00  0.00    +0.048 A 
ATOM     18  C   UNL     1      13.037   6.755   3.807  0.00  0.00    +0.015 A 
ATOM     31  H   UNL     1       6.937   8.693   5.735  0.00  0.00    +0.156 HD
ENDROOT
BRANCH   5  20
ATOM     20  C   UNL     1       7.137   9.314   3.781  0.00  0.00    +0.035 A 
ATOM     23  C   UNL     1       7.861   8.876   2.672  0.00  0.00    +0.023 A 
ATOM     24  C   UNL     1       5.934   9.995   3.603  0.00  0.00    +0.023 A 
ATOM     26  C   UNL     1       7.382   9.120   1.385  0.00  0.00    +0.005 A 
ATOM     27  C   UNL     1       5.454  10.240   2.316  0.00  0.00    +0.005 A 
ATOM     29  C   UNL     1       6.178   9.801   1.207  0.00  0.00    -0.050 A 
ATOM     30  C   UNL     1       5.665  10.061  -0.169  0.00  0.00    +0.044 C 
ENDBRANCH   5  20
BRANCH  17  19
ATOM      6  N   UNL     1      12.185   6.166  -0.607  0.00  0.00    -0.263 NA
ATOM     19  C   UNL     1      12.422   5.620   1.736  0.00  0.00    +0.005 A 
ATOM     21  C   UNL     1      13.103   4.454   1.403  0.00  0.00    +0.011 A 
ATOM     22  C   UNL     1      11.988   6.435   0.703  0.00  0.00    +0.119 A 
ATOM     25  C   UNL     1      13.327   4.143   0.066  0.00  0.00    +0.020 A 
ATOM     28  C   UNL     1      12.852   5.024  -0.892  0.00  0.00    +0.111 A 
ENDBRANCH  17  19
TORSDOF 2
ENDMDL
MODEL 6
REMARK VINA RESULT:      -6.9      3.175      7.964
REMARK  Name = 40533466
REMARK  3 active torsions:
REMARK  status: ('A' for Active; 'I' for Inactive)
REMARK    1  A    between atoms: N_5  and  C_20
REMARK    2  A    between atoms: C_17  and  C_19
REMARK    3  A    between atoms: C_29  and  C_30
REMARK                            x       y       z     vdW  Elec       q    Type
REMARK                         _______ _______ _______ _____ _____    ______ ____
ROOT
ATOM      1  O   UNL     1      11.922   7.497   3.428  0.00  0.00    -0.267 OA
ATOM      2  O   UNL     1       9.305   4.863  -1.034  0.00  0.00    -0.252 OA
ATOM      3  N   UNL     1      11.595   5.188  -1.019  0.00  0.00    -0.284 N 
ATOM      4  N   UNL     1      12.361   5.671   2.045  0.00  0.00    -0.311 N 
ATOM      5  N   UNL     1      10.139   6.960  -1.572  0.00  0.00    -0.269 N 
ATOM      7  C   UNL     1      13.812   5.852  -0.055  0.00  0.00    +0.027 C 
ATOM      8  C   UNL     1      12.814   3.692   0.555  0.00  0.00    +0.054 C 
ATOM      9  C   UNL     1      14.127   4.383   0.198  0.00  0.00    +0.018 C 
ATOM     10  C   UNL     1      12.800   6.013  -1.206  0.00  0.00    +0.114 C 
ATOM     11  C   UNL     1      13.298   6.475   1.250  0.00  0.00    +0.130 C 
ATOM     12  C   UNL     1      11.850   3.793  -0.641  0.00  0.00    +0.119 C 
ATOM     13  C   UNL     1      12.175   4.311   1.784  0.00  0.00    +0.027 A 
ATOM     14  C   UNL     1      11.410   3.568   2.597  0.00  0.00    +0.022 A 
ATOM     15  C   UNL     1      11.753   6.310   3.144  0.00  0.00    +0.259 A 
ATOM     16  C   UNL     1      10.263   5.624  -1.192  0.00  0.00    +0.306 C 
ATOM     17  C   UNL     1      10.867   5.459   4.014  0.00  0.00    +0.048 A 
ATOM     18  C   UNL     1      10.743   4.155   3.724  0.00  0.00    +0.015 A 
ATOM     31  H   UNL     1      10.878   7.366  -2.137  0.00  0.00    +0.156 HD
ENDROOT
BRANCH   5  20
ATOM     20  C   UNL     1       9.069   7.839  -1.275  0.00  0.00    +0.035 A 
ATOM     23  C   UNL     1       9.031   8.502  -0.048  0.00  0.00    +0.023 A 
ATOM     24  C   UNL     1       8.052   8.040  -2.207  0.00  0.00    +0.023 A 
ATOM     26  C   UNL     1       7.977   9.367   0.245  0.00  0.00    +0.005 A 
ATOM     27  C   UNL     1       6.997   8.905  -1.914  0.00  0.00    +0.005 A 
ATOM     29  C   UNL     1       6.960   9.569  -0.688  0.00  0.00    -0.050 A 
ATOM     30  C   UNL     1       5.834  10.494  -0.374  0.00  0.00    +0.044 C 
ENDBRANCH   5  20
BRANCH  17  19
ATOM      6  N   UNL     1      10.118   6.647   7.496  0.00  0.00    -0.263 NA
ATOM     19  C   UNL     1      10.139   6.037   5.157  0.00  0.00    +0.005 A 
ATOM     21  C   UNL     1       8.838   6.506   5.015  0.00  0.00    +0.011 A 
ATOM     22  C   UNL     1      10.729   6.129   6.407  0.00  0.00    +0.119 A 
ATOM     25  C   UNL     1       8.176   7.046   6.112  0.00  0.00    +0.020 A 
ATOM     28  C   UNL     1       8.853   7.093   7.320  0.00  0.00    +0.111 A 
ENDBRANCH  17  19
TORSDOF 2
ENDMDL
MODEL 7
REMARK VINA RESULT:      -6.8     25.381     28.308
REMARK  Name = 40533466
REMARK  3 active torsions:
REMARK  status: ('A' for Active; 'I' for Inactive)
REMARK    1  A    between atoms: N_5  and  C_20
REMARK    2  A    between atoms: C_17  and  C_19
REMARK    3  A    between atoms: C_29  and  C_30
REMARK                            x       y       z     vdW  Elec       q    Type
REMARK                         _______ _______ _______ _____ _____    ______ ____
ROOT
ATOM      1  O   UNL     1      -7.467  -8.797  17.015  0.00  0.00    -0.267 OA
ATOM      2  O   UNL     1      -5.186 -13.078  13.826  0.00  0.00    -0.252 OA
ATOM      3  N   UNL     1      -4.250 -12.472  15.854  0.00  0.00    -0.284 N 
ATOM      4  N   UNL     1      -6.554 -10.905  17.416  0.00  0.00    -0.311 N 
ATOM      5  N   UNL     1      -3.842 -11.190  13.916  0.00  0.00    -0.269 N 
ATOM      7  C   UNL     1      -4.094 -11.245  18.034  0.00  0.00    +0.027 C 
ATOM      8  C   UNL     1      -5.581 -13.190  17.832  0.00  0.00    +0.054 C 
ATOM      9  C   UNL     1      -4.586 -12.493  18.756  0.00  0.00    +0.018 C 
ATOM     10  C   UNL     1      -3.411 -11.608  16.701  0.00  0.00    +0.114 C 
ATOM     11  C   UNL     1      -5.283 -10.297  17.828  0.00  0.00    +0.130 C 
ATOM     12  C   UNL     1      -4.856 -13.618  16.542  0.00  0.00    +0.119 C 
ATOM     13  C   UNL     1      -6.750 -12.286  17.489  0.00  0.00    +0.027 A 
ATOM     14  C   UNL     1      -7.956 -12.810  17.225  0.00  0.00    +0.022 A 
ATOM     15  C   UNL     1      -7.591 -10.022  17.054  0.00  0.00    +0.259 A 
ATOM     16  C   UNL     1      -4.484 -12.296  14.472  0.00  0.00    +0.306 C 
ATOM     17  C   UNL     1      -8.922 -10.643  16.724  0.00  0.00    +0.048 A 
ATOM     18  C   UNL     1      -9.054 -11.974  16.832  0.00  0.00    +0.015 A 
ATOM     31  H   UNL     1      -2.954 -10.902  14.316  0.00  0.00    +0.156 HD
ENDROOT
BRANCH   5  20
ATOM     20  C   UNL     1      -4.279 -10.409  12.818  0.00  0.00    +0.035 A 
ATOM     23  C   UNL     1      -3.466 -10.271  11.693  0.00  0.00    +0.023 A 
ATOM     24  C   UNL     1      -5.520  -9.776  12.863  0.00  0.00    +0.023 A 
ATOM     26  C   UNL     1      -3.896  -9.501  10.612  0.00  0.00    +0.005 A 
ATOM     27  C   UNL     1      -5.950  -9.006  11.782  0.00  0.00    +0.005 A 
ATOM     29  C   UNL     1      -5.139  -8.869  10.656  0.00  0.00    -0.050 A 
ATOM     30  C   UNL     1      -5.598  -8.047   9.500  0.00  0.00    +0.044 C 
ENDBRANCH   5  20
BRANCH  17  19
ATOM      6  N   UNL     1     -11.277  -8.783  14.468  0.00  0.00    -0.263 NA
ATOM     19  C   UNL     1     -10.060  -9.818  16.282  0.00  0.00    +0.005 A 
ATOM     21  C   UNL     1     -10.970  -9.303  17.198  0.00  0.00    +0.011 A 
ATOM     22  C   UNL     1     -10.255  -9.533  14.941  0.00  0.00    +0.119 A 
ATOM     25  C   UNL     1     -12.034  -8.528  16.750  0.00  0.00    +0.020 A 
ATOM     28  C   UNL     1     -12.142  -8.299  15.387  0.00  0.00    +0.111 A 
ENDBRANCH  17  19
TORSDOF 2
ENDMDL
MODEL 8
REMARK VINA RESULT:      -6.6     25.332     28.303
REMARK  Name = 40533466
REMARK  3 active torsions:
REMARK  status: ('A' for Active; 'I' for Inactive)
REMARK    1  A    between atoms: N_5  and  C_20
REMARK    2  A    between atoms: C_17  and  C_19
REMARK    3  A    between atoms: C_29  and  C_30
REMARK                            x       y       z     vdW  Elec       q    Type
REMARK                         _______ _______ _______ _____ _____    ______ ____
ROOT
ATOM      1  O   UNL     1      -6.666 -12.003  12.785  0.00  0.00    -0.267 OA
ATOM      2  O   UNL     1      -6.840  -9.769  18.141  0.00  0.00    -0.252 OA
ATOM      3  N   UNL     1      -7.010 -12.050  17.794  0.00  0.00    -0.284 N 
ATOM      4  N   UNL     1      -5.803 -12.557  14.880  0.00  0.00    -0.311 N 
ATOM      5  N   UNL     1      -8.874 -10.645  17.450  0.00  0.00    -0.269 N 
ATOM      7  C   UNL     1      -6.981 -14.179  16.470  0.00  0.00    +0.027 C 
ATOM      8  C   UNL     1      -4.864 -13.132  17.144  0.00  0.00    +0.054 C 
ATOM      9  C   UNL     1      -5.582 -14.471  16.996  0.00  0.00    +0.018 C 
ATOM     10  C   UNL     1      -7.759 -13.267  17.440  0.00  0.00    +0.114 C 
ATOM     11  C   UNL     1      -6.861 -13.556  15.073  0.00  0.00    +0.130 C 
ATOM     12  C   UNL     1      -5.611 -12.272  18.179  0.00  0.00    +0.119 C 
ATOM     13  C   UNL     1      -4.785 -12.393  15.822  0.00  0.00    +0.027 A 
ATOM     14  C   UNL     1      -3.762 -11.562  15.571  0.00  0.00    +0.022 A 
ATOM     15  C   UNL     1      -5.807 -11.858  13.656  0.00  0.00    +0.259 A 
ATOM     16  C   UNL     1      -7.530 -10.737  17.811  0.00  0.00    +0.306 C 
ATOM     17  C   UNL     1      -4.668 -10.903  13.420  0.00  0.00    +0.048 A 
ATOM     18  C   UNL     1      -3.709 -10.803  14.354  0.00  0.00    +0.015 A 
ATOM     31  H   UNL     1      -9.481 -11.429  17.667  0.00  0.00    +0.156 HD
ENDROOT
BRANCH   5  20
ATOM     20  C   UNL     1      -9.517  -9.554  16.817  0.00  0.00    +0.035 A 
ATOM     23  C   UNL     1      -9.964  -8.472  17.575  0.00  0.00    +0.023 A 
ATOM     24  C   UNL     1      -9.705  -9.561  15.435  0.00  0.00    +0.023 A 
ATOM     26  C   UNL     1     -10.598  -7.397  16.952  0.00  0.00    +0.005 A 
ATOM     27  C   UNL     1     -10.340  -8.487  14.811  0.00  0.00    +0.005 A 
ATOM     29  C   UNL     1     -10.786  -7.404  15.570  0.00  0.00    -0.050 A 
ATOM     30  C   UNL     1     -11.463  -6.255  14.904  0.00  0.00    +0.044 C 
ENDBRANCH   5  20
BRANCH  17  19
ATOM      6  N   UNL     1      -5.599  -8.384  10.796  0.00  0.00    -0.263 NA
ATOM     19  C   UNL     1      -4.601 -10.081  12.199  0.00  0.00    +0.005 A 
ATOM     21  C   UNL     1      -3.536 -10.199  11.313  0.00  0.00    +0.011 A 
ATOM     22  C   UNL     1      -5.598  -9.168  11.898  0.00  0.00    +0.119 A 
ATOM     25  C   UNL     1      -3.501  -9.410  10.169  0.00  0.00    +0.020 A 
ATOM     28  C   UNL     1      -4.547  -8.526   9.958  0.00  0.00    +0.111 A 
ENDBRANCH  17  19
TORSDOF 2
ENDMDL
MODEL 9
REMARK VINA RESULT:      -6.4     24.512     26.919
REMARK  Name = 40533466
REMARK  3 active torsions:
REMARK  status: ('A' for Active; 'I' for Inactive)
REMARK    1  A    between atoms: N_5  and  C_20
REMARK    2  A    between atoms: C_17  and  C_19
REMARK    3  A    between atoms: C_29  and  C_30
REMARK                            x       y       z     vdW  Elec       q    Type
REMARK                         _______ _______ _______ _____ _____    ______ ____
ROOT
ATOM      1  O   UNL     1      -6.329 -12.368  11.201  0.00  0.00    -0.267 OA
ATOM      2  O   UNL     1      -3.330 -10.245  15.696  0.00  0.00    -0.252 OA
ATOM      3  N   UNL     1      -3.128 -12.462  15.068  0.00  0.00    -0.284 N 
ATOM      4  N   UNL     1      -4.167 -12.587  12.050  0.00  0.00    -0.311 N 
ATOM      5  N   UNL     1      -4.987 -11.740  16.328  0.00  0.00    -0.269 N 
ATOM      7  C   UNL     1      -3.494 -14.483  13.631  0.00  0.00    +0.027 C 
ATOM      8  C   UNL     1      -1.833 -12.800  12.969  0.00  0.00    +0.054 C 
ATOM      9  C   UNL     1      -2.102 -14.300  13.042  0.00  0.00    +0.018 C 
ATOM     10  C   UNL     1      -3.588 -13.860  15.038  0.00  0.00    +0.114 C 
ATOM     11  C   UNL     1      -4.519 -13.872  12.666  0.00  0.00    +0.130 C 
ATOM     12  C   UNL     1      -1.849 -12.215  14.393  0.00  0.00    +0.119 C 
ATOM     13  C   UNL     1      -2.863 -12.091  12.110  0.00  0.00    +0.027 A 
ATOM     14  C   UNL     1      -2.534 -10.977  11.439  0.00  0.00    +0.022 A 
ATOM     15  C   UNL     1      -5.177 -11.942  11.309  0.00  0.00    +0.259 A 
ATOM     16  C   UNL     1      -3.794 -11.388  15.698  0.00  0.00    +0.306 C 
ATOM     17  C   UNL     1      -4.788 -10.672  10.599  0.00  0.00    +0.048 A 
ATOM     18  C   UNL     1      -3.515 -10.257  10.678  0.00  0.00    +0.015 A 
ATOM     31  H   UNL     1      -5.065 -12.676  16.714  0.00  0.00    +0.156 HD
ENDROOT
BRANCH   5  20
ATOM     20  C   UNL     1      -6.129 -10.923  16.516  0.00  0.00    +0.035 A 
ATOM     23  C   UNL     1      -6.930 -10.581  15.426  0.00  0.00    +0.023 A 
ATOM     24  C   UNL     1      -6.453 -10.461  17.791  0.00  0.00    +0.023 A 
ATOM     26  C   UNL     1      -8.054  -9.776  15.612  0.00  0.00    +0.005 A 
ATOM     27  C   UNL     1      -7.576  -9.656  17.977  0.00  0.00    +0.005 A 
ATOM     29  C   UNL     1      -8.378  -9.314  16.888  0.00  0.00    -0.050 A 
ATOM     30  C   UNL     1      -9.580  -8.455  17.086  0.00  0.00    +0.044 C 
ENDBRANCH   5  20
BRANCH  17  19
ATOM      6  N   UNL     1      -7.683  -8.401   9.855  0.00  0.00    -0.263 NA
ATOM     19  C   UNL     1      -5.778  -9.889   9.840  0.00  0.00    +0.005 A 
ATOM     21  C   UNL     1      -5.770  -9.877   8.450  0.00  0.00    +0.011 A 
ATOM     22  C   UNL     1      -6.746  -9.141  10.490  0.00  0.00    +0.119 A 
ATOM     25  C   UNL     1      -6.717  -9.127   7.761  0.00  0.00    +0.020 A 
ATOM     28  C   UNL     1      -7.644  -8.413   8.503  0.00  0.00    +0.111 A 
ENDBRANCH  17  19
TORSDOF 2
ENDMDL
MODEL 10
REMARK VINA RESULT:      -6.3     26.356     29.332
REMARK  Name = 40533466
REMARK  3 active torsions:
REMARK  status: ('A' for Active; 'I' for Inactive)
REMARK    1  A    between atoms: N_5  and  C_20
REMARK    2  A    between atoms: C_17  and  C_19
REMARK    3  A    between atoms: C_29  and  C_30
REMARK                            x       y       z     vdW  Elec       q    Type
REMARK                         _______ _______ _______ _____ _____    ______ ____
ROOT
ATOM      1  O   UNL     1      -5.430 -13.069  15.722  0.00  0.00    -0.267 OA
ATOM      2  O   UNL     1      -9.657  -9.329  17.083  0.00  0.00    -0.252 OA
ATOM      3  N   UNL     1      -9.637 -11.474  17.950  0.00  0.00    -0.284 N 
ATOM      4  N   UNL     1      -6.623 -12.486  17.640  0.00  0.00    -0.311 N 
ATOM      5  N   UNL     1     -10.382 -11.081  15.747  0.00  0.00    -0.269 N 
ATOM      7  C   UNL     1      -8.708 -13.758  18.404  0.00  0.00    +0.027 C 
ATOM      8  C   UNL     1      -7.907 -11.834  19.705  0.00  0.00    +0.054 C 
ATOM      9  C   UNL     1      -8.310 -13.303  19.802  0.00  0.00    +0.018 C 
ATOM     10  C   UNL     1      -9.885 -12.923  17.863  0.00  0.00    +0.114 C 
ATOM     11  C   UNL     1      -7.478 -13.670  17.490  0.00  0.00    +0.130 C 
ATOM     12  C   UNL     1      -9.123 -11.009  19.244  0.00  0.00    +0.119 C 
ATOM     13  C   UNL     1      -6.754 -11.635  18.740  0.00  0.00    +0.027 A 
ATOM     14  C   UNL     1      -5.885 -10.629  18.921  0.00  0.00    +0.022 A 
ATOM     15  C   UNL     1      -5.601 -12.318  16.684  0.00  0.00    +0.259 A 
ATOM     16  C   UNL     1      -9.873 -10.533  16.923  0.00  0.00    +0.306 C 
ATOM     17  C   UNL     1      -4.666 -11.156  16.893  0.00  0.00    +0.048 A 
ATOM     18  C   UNL     1      -4.831 -10.386  17.979  0.00  0.00    +0.015 A 
ATOM     31  H   UNL     1     -10.972 -11.904  15.819  0.00  0.00    +0.156 HD
ENDROOT
BRANCH   5  20
ATOM     20  C   UNL     1     -10.187 -10.606  14.427  0.00  0.00    +0.035 A 
ATOM     23  C   UNL     1     -11.280 -10.182  13.670  0.00  0.00    +0.023 A 
ATOM     24  C   UNL     1      -8.904 -10.563  13.883  0.00  0.00    +0.023 A 
ATOM     26  C   UNL     1     -11.089  -9.714  12.370  0.00  0.00    +0.005 A 
ATOM     27  C   UNL     1      -8.713 -10.096  12.583  0.00  0.00    +0.005 A 
ATOM     29  C   UNL     1      -9.805  -9.670  11.826  0.00  0.00    -0.050 A 
ATOM     30  C   UNL     1      -9.600  -9.170  10.437  0.00  0.00    +0.044 C 
ENDBRANCH   5  20
BRANCH  17  19
ATOM      6  N   UNL     1      -2.945 -10.395  13.644  0.00  0.00    -0.263 NA
ATOM     19  C   UNL     1      -3.596 -10.856  15.926  0.00  0.00    +0.005 A 
ATOM     21  C   UNL     1      -2.271 -10.747  16.334  0.00  0.00    +0.011 A 
ATOM     22  C   UNL     1      -3.878 -10.672  14.583  0.00  0.00    +0.119 A 
ATOM     25  C   UNL     1      -1.282 -10.462  15.399  0.00  0.00    +0.020 A 
ATOM     28  C   UNL     1      -1.667 -10.297  14.078  0.00  0.00    +0.111 A 
ENDBRANCH  17  19
TORSDOF 2
ENDMDL
