MODEL 1
REMARK VINA RESULT:      -7.3      0.000      0.000
REMARK  Name = 40780375
REMARK  11 active torsions:
REMARK  status: ('A' for Active; 'I' for Inactive)
REMARK    1  A    between atoms: N_1  and  C_7
REMARK    2  A    between atoms: N_1  and  C_13
REMARK    3  A    between atoms: N_2  and  C_16
REMARK    4  A    between atoms: C_5  and  C_8
REMARK    5  A    between atoms: C_11  and  C_14
REMARK    6  A    between atoms: C_12  and  C_15
REMARK    7  A    between atoms: C_13  and  C_17
REMARK    8  A    between atoms: C_20  and  C_21
REMARK    9  A    between atoms: C_21  and  C_26
REMARK   10  A    between atoms: C_21  and  C_27
REMARK   11  A    between atoms: C_28  and  C_31
REMARK                            x       y       z     vdW  Elec       q    Type
REMARK                         _______ _______ _______ _____ _____    ______ ____
ROOT
ATOM      5  C   UNL     1      -3.002 -11.202  12.725  0.00  0.00    +0.047 C 
ATOM      6  C   UNL     1      -4.008 -11.014  13.877  0.00  0.00    +0.035 C 
ATOM      7  C   UNL     1      -4.033 -12.346  14.647  0.00  0.00    +0.078 C 
ATOM      9  C   UNL     1      -2.968 -12.695  12.575  0.00  0.00    -0.021 C 
ATOM     10  C   UNL     1      -3.521 -13.312  13.624  0.00  0.00    -0.012 C 
ENDROOT
BRANCH   5   8
ATOM      2  N   UNL     1      -4.437  -9.654   9.731  0.00  0.00    -0.236 N 
ATOM      3  N   UNL     1      -3.243  -9.042   9.678  0.00  0.00    -0.171 NA
ATOM      8  C   UNL     1      -3.384 -10.450  11.472  0.00  0.00    +0.003 A 
ATOM     11  C   UNL     1      -4.574 -10.508  10.787  0.00  0.00    +0.046 A 
ATOM     12  C   UNL     1      -2.603  -9.532  10.744  0.00  0.00    +0.064 A 
ATOM     14  C   UNL     1      -5.800 -11.287  11.046  0.00  0.00    +0.066 C 
ATOM     15  C   UNL     1      -1.228  -9.087  11.031  0.00  0.00    +0.068 C 
BRANCH   2  16
ATOM     16  C   UNL     1      -5.398  -9.385   8.755  0.00  0.00    +0.066 A 
ATOM     18  C   UNL     1      -5.307  -9.990   7.501  0.00  0.00    +0.028 A 
ATOM     19  C   UNL     1      -6.445  -8.507   9.032  0.00  0.00    +0.028 A 
ATOM     20  C   UNL     1      -7.313  -8.839   6.802  0.00  0.00    -0.045 A 
ATOM     22  C   UNL     1      -6.265  -9.717   6.525  0.00  0.00    +0.006 A 
ATOM     23  C   UNL     1      -7.403  -8.233   8.055  0.00  0.00    +0.006 A 
BRANCH  20  21
ATOM     21  C   UNL     1      -8.336  -8.547   5.756  0.00  0.00    +0.013 C 
ATOM     26  C   UNL     1      -7.724  -8.444   4.346  0.00  0.00    +0.012 C 
ATOM     27  C   UNL     1      -9.148  -7.275   6.068  0.00  0.00    +0.012 C 
ENDBRANCH  20  21
ENDBRANCH   2  16
ENDBRANCH   5   8
BRANCH   7   1
ATOM      1  N   UNL     1      -3.175 -12.313  15.825  0.00  0.00    -0.306 NA
ATOM     32  H   UNL     1      -2.208 -12.481  15.543  0.00  0.00    +0.123 HD
BRANCH   1  13
ATOM     13  C   UNL     1      -3.254 -11.020  16.492  0.00  0.00    +0.117 C 
BRANCH  13  17
ATOM     17  C   UNL     1      -4.436 -10.938  17.421  0.00  0.00    -0.032 A 
ATOM     24  C   UNL     1      -5.560 -10.196  17.057  0.00  0.00    +0.023 A 
ATOM     25  C   UNL     1      -4.409 -11.608  18.644  0.00  0.00    +0.005 A 
ATOM     28  C   UNL     1      -6.656 -10.124  17.916  0.00  0.00    +0.052 A 
ATOM     29  C   UNL     1      -5.505 -11.536  19.504  0.00  0.00    +0.002 A 
ATOM     30  C   UNL     1      -6.629 -10.793  19.140  0.00  0.00    +0.019 A 
BRANCH  28  31
ATOM      4  N   UNL     1      -8.740  -8.741  17.245  0.00  0.00    -0.191 NA
ATOM     31  C   UNL     1      -7.807  -9.361  17.546  0.00  0.00    +0.099 C 
ENDBRANCH  28  31
ENDBRANCH  13  17
ENDBRANCH   1  13
ENDBRANCH   7   1
TORSDOF 7
ENDMDL
MODEL 2
REMARK VINA RESULT:      -7.0     27.077     30.739
REMARK  Name = 40780375
REMARK  11 active torsions:
REMARK  status: ('A' for Active; 'I' for Inactive)
REMARK    1  A    between atoms: N_1  and  C_7
REMARK    2  A    between atoms: N_1  and  C_13
REMARK    3  A    between atoms: N_2  and  C_16
REMARK    4  A    between atoms: C_5  and  C_8
REMARK    5  A    between atoms: C_11  and  C_14
REMARK    6  A    between atoms: C_12  and  C_15
REMARK    7  A    between atoms: C_13  and  C_17
REMARK    8  A    between atoms: C_20  and  C_21
REMARK    9  A    between atoms: C_21  and  C_26
REMARK   10  A    between atoms: C_21  and  C_27
REMARK   11  A    between atoms: C_28  and  C_31
REMARK                            x       y       z     vdW  Elec       q    Type
REMARK                         _______ _______ _______ _____ _____    ______ ____
ROOT
ATOM      5  C   UNL     1      17.084   7.421  21.400  0.00  0.00    +0.047 C 
ATOM      6  C   UNL     1      16.570   8.448  20.373  0.00  0.00    +0.035 C 
ATOM      7  C   UNL     1      15.075   8.650  20.679  0.00  0.00    +0.078 C 
ATOM      9  C   UNL     1      15.820   6.721  21.809  0.00  0.00    -0.021 C 
ATOM     10  C   UNL     1      14.733   7.396  21.422  0.00  0.00    -0.012 C 
ENDROOT
BRANCH   5   8
ATOM      2  N   UNL     1      19.990   5.363  20.538  0.00  0.00    -0.236 N 
ATOM      3  N   UNL     1      19.248   5.063  19.458  0.00  0.00    -0.171 NA
ATOM      8  C   UNL     1      18.158   6.513  20.848  0.00  0.00    +0.003 A 
ATOM     11  C   UNL     1      19.382   6.227  21.402  0.00  0.00    +0.046 A 
ATOM     12  C   UNL     1      18.130   5.769  19.653  0.00  0.00    +0.064 A 
ATOM     14  C   UNL     1      20.008   6.695  22.655  0.00  0.00    +0.066 C 
ATOM     15  C   UNL     1      17.047   5.699  18.657  0.00  0.00    +0.068 C 
BRANCH   2  16
ATOM     16  C   UNL     1      21.257   4.798  20.686  0.00  0.00    +0.066 A 
ATOM     18  C   UNL     1      21.390   3.515  21.219  0.00  0.00    +0.028 A 
ATOM     19  C   UNL     1      22.389   5.517  20.306  0.00  0.00    +0.028 A 
ATOM     20  C   UNL     1      23.790   3.671  20.990  0.00  0.00    -0.045 A 
ATOM     22  C   UNL     1      22.657   2.952  21.370  0.00  0.00    +0.006 A 
ATOM     23  C   UNL     1      23.657   4.953  20.458  0.00  0.00    +0.006 A 
BRANCH  20  21
ATOM     21  C   UNL     1      25.145   3.068  21.154  0.00  0.00    +0.013 C 
ATOM     26  C   UNL     1      26.069   3.361  19.957  0.00  0.00    +0.012 C 
ATOM     27  C   UNL     1      25.085   1.550  21.409  0.00  0.00    +0.012 C 
ENDBRANCH  20  21
ENDBRANCH   2  16
ENDBRANCH   5   8
BRANCH   7   1
ATOM      1  N   UNL     1      14.839   9.835  21.495  0.00  0.00    -0.306 NA
ATOM     32  H   UNL     1      15.720  10.331  21.632  0.00  0.00    +0.123 HD
BRANCH   1  13
ATOM     13  C   UNL     1      13.888  10.731  20.852  0.00  0.00    +0.117 C 
BRANCH  13  17
ATOM     17  C   UNL     1      12.928   9.986  19.962  0.00  0.00    -0.032 A 
ATOM     24  C   UNL     1      13.144   9.941  18.585  0.00  0.00    +0.023 A 
ATOM     25  C   UNL     1      11.823   9.340  20.516  0.00  0.00    +0.005 A 
ATOM     28  C   UNL     1      12.257   9.248  17.762  0.00  0.00    +0.052 A 
ATOM     29  C   UNL     1      10.935   8.647  19.693  0.00  0.00    +0.002 A 
ATOM     30  C   UNL     1      11.152   8.601  18.315  0.00  0.00    +0.019 A 
BRANCH  28  31
ATOM      4  N   UNL     1      12.654   9.164  15.204  0.00  0.00    -0.191 NA
ATOM     31  C   UNL     1      12.476   9.203  16.350  0.00  0.00    +0.099 C 
ENDBRANCH  28  31
ENDBRANCH  13  17
ENDBRANCH   1  13
ENDBRANCH   7   1
TORSDOF 7
ENDMDL
MODEL 3
REMARK VINA RESULT:      -6.9     24.182     28.207
REMARK  Name = 40780375
REMARK  11 active torsions:
REMARK  status: ('A' for Active; 'I' for Inactive)
REMARK    1  A    between atoms: N_1  and  C_7
REMARK    2  A    between atoms: N_1  and  C_13
REMARK    3  A    between atoms: N_2  and  C_16
REMARK    4  A    between atoms: C_5  and  C_8
REMARK    5  A    between atoms: C_11  and  C_14
REMARK    6  A    between atoms: C_12  and  C_15
REMARK    7  A    between atoms: C_13  and  C_17
REMARK    8  A    between atoms: C_20  and  C_21
REMARK    9  A    between atoms: C_21  and  C_26
REMARK   10  A    between atoms: C_21  and  C_27
REMARK   11  A    between atoms: C_28  and  C_31
REMARK                            x       y       z     vdW  Elec       q    Type
REMARK                         _______ _______ _______ _____ _____    ______ ____
ROOT
ATOM      5  C   UNL     1      12.438   9.297   6.020  0.00  0.00    +0.047 C 
ATOM      6  C   UNL     1      11.837  10.298   7.025  0.00  0.00    +0.035 C 
ATOM      7  C   UNL     1      10.370  10.501   6.604  0.00  0.00    +0.078 C 
ATOM      9  C   UNL     1      11.518   9.439   4.842  0.00  0.00    -0.021 C 
ATOM     10  C   UNL     1      10.394  10.087   5.166  0.00  0.00    -0.012 C 
ENDROOT
BRANCH   5   8
ATOM      2  N   UNL     1      16.059   9.384   5.475  0.00  0.00    -0.236 N 
ATOM      3  N   UNL     1      15.797  10.631   5.050  0.00  0.00    -0.171 NA
ATOM      8  C   UNL     1      13.895   9.557   5.718  0.00  0.00    +0.003 A 
ATOM     11  C   UNL     1      14.954   8.697   5.886  0.00  0.00    +0.046 A 
ATOM     12  C   UNL     1      14.474  10.731   5.200  0.00  0.00    +0.064 A 
ATOM     14  C   UNL     1      15.001   7.311   6.391  0.00  0.00    +0.066 C 
ATOM     15  C   UNL     1      13.796  11.986   4.831  0.00  0.00    +0.068 C 
BRANCH   2  16
ATOM     16  C   UNL     1      17.371   8.909   5.464  0.00  0.00    +0.066 A 
ATOM     18  C   UNL     1      18.184   9.079   6.586  0.00  0.00    +0.028 A 
ATOM     19  C   UNL     1      17.872   8.270   4.331  0.00  0.00    +0.028 A 
ATOM     20  C   UNL     1      19.997   7.968   5.439  0.00  0.00    -0.045 A 
ATOM     22  C   UNL     1      19.496   8.608   6.573  0.00  0.00    +0.006 A 
ATOM     23  C   UNL     1      19.186   7.799   4.318  0.00  0.00    +0.006 A 
BRANCH  20  21
ATOM     21  C   UNL     1      21.402   7.466   5.426  0.00  0.00    +0.013 C 
ATOM     26  C   UNL     1      22.435   8.609   5.411  0.00  0.00    +0.012 C 
ATOM     27  C   UNL     1      21.671   6.502   4.255  0.00  0.00    +0.012 C 
ENDBRANCH  20  21
ENDBRANCH   2  16
ENDBRANCH   5   8
BRANCH   7   1
ATOM      1  N   UNL     1       9.459   9.672   7.383  0.00  0.00    -0.306 NA
ATOM     32  H   UNL     1       8.816  10.272   7.902  0.00  0.00    +0.123 HD
BRANCH   1  13
ATOM     13  C   UNL     1       8.686   8.790   6.518  0.00  0.00    +0.117 C 
BRANCH  13  17
ATOM     17  C   UNL     1       9.062   7.345   6.712  0.00  0.00    -0.032 A 
ATOM     24  C   UNL     1       9.246   6.837   7.998  0.00  0.00    +0.023 A 
ATOM     25  C   UNL     1       9.222   6.512   5.604  0.00  0.00    +0.005 A 
ATOM     28  C   UNL     1       9.590   5.498   8.177  0.00  0.00    +0.052 A 
ATOM     29  C   UNL     1       9.566   5.172   5.783  0.00  0.00    +0.002 A 
ATOM     30  C   UNL     1       9.751   4.665   7.069  0.00  0.00    +0.019 A 
BRANCH  28  31
ATOM      4  N   UNL     1       9.938   4.553  10.563  0.00  0.00    -0.191 NA
ATOM     31  C   UNL     1       9.782   4.977   9.494  0.00  0.00    +0.099 C 
ENDBRANCH  28  31
ENDBRANCH  13  17
ENDBRANCH   1  13
ENDBRANCH   7   1
TORSDOF 7
ENDMDL
MODEL 4
REMARK VINA RESULT:      -6.9     20.203     22.018
REMARK  Name = 40780375
REMARK  11 active torsions:
REMARK  status: ('A' for Active; 'I' for Inactive)
REMARK    1  A    between atoms: N_1  and  C_7
REMARK    2  A    between atoms: N_1  and  C_13
REMARK    3  A    between atoms: N_2  and  C_16
REMARK    4  A    between atoms: C_5  and  C_8
REMARK    5  A    between atoms: C_11  and  C_14
REMARK    6  A    between atoms: C_12  and  C_15
REMARK    7  A    between atoms: C_13  and  C_17
REMARK    8  A    between atoms: C_20  and  C_21
REMARK    9  A    between atoms: C_21  and  C_26
REMARK   10  A    between atoms: C_21  and  C_27
REMARK   11  A    between atoms: C_28  and  C_31
REMARK                            x       y       z     vdW  Elec       q    Type
REMARK                         _______ _______ _______ _____ _____    ______ ____
ROOT
ATOM      5  C   UNL     1     -15.823   3.935  24.425  0.00  0.00    +0.047 C 
ATOM      6  C   UNL     1     -16.568   4.335  25.713  0.00  0.00    +0.035 C 
ATOM      7  C   UNL     1     -17.557   3.195  26.009  0.00  0.00    +0.078 C 
ATOM      9  C   UNL     1     -16.775   2.957  23.800  0.00  0.00    -0.021 C 
ATOM     10  C   UNL     1     -17.709   2.552  24.666  0.00  0.00    -0.012 C 
ENDROOT
BRANCH   5   8
ATOM      2  N   UNL     1     -14.423   6.568  22.297  0.00  0.00    -0.236 N 
ATOM      3  N   UNL     1     -15.678   7.047  22.351  0.00  0.00    -0.171 NA
ATOM      8  C   UNL     1     -15.466   5.115  23.552  0.00  0.00    +0.003 A 
ATOM     11  C   UNL     1     -14.244   5.412  22.999  0.00  0.00    +0.046 A 
ATOM     12  C   UNL     1     -16.310   6.156  23.119  0.00  0.00    +0.064 A 
ATOM     14  C   UNL     1     -12.951   4.704  23.079  0.00  0.00    +0.066 C 
ATOM     15  C   UNL     1     -17.741   6.342  23.416  0.00  0.00    +0.068 C 
BRANCH   2  16
ATOM     16  C   UNL     1     -13.452   7.251  21.565  0.00  0.00    +0.066 A 
ATOM     18  C   UNL     1     -13.371   8.642  21.642  0.00  0.00    +0.028 A 
ATOM     19  C   UNL     1     -12.564   6.544  20.755  0.00  0.00    +0.028 A 
ATOM     20  C   UNL     1     -11.514   8.618  20.097  0.00  0.00    -0.045 A 
ATOM     22  C   UNL     1     -12.402   9.325  20.907  0.00  0.00    +0.006 A 
ATOM     23  C   UNL     1     -11.595   7.228  20.020  0.00  0.00    +0.006 A 
BRANCH  20  21
ATOM     21  C   UNL     1     -10.479   9.350  19.310  0.00  0.00    +0.013 C 
ATOM     26  C   UNL     1     -10.838  10.833  19.101  0.00  0.00    +0.012 C 
ATOM     27  C   UNL     1     -10.194   8.684  17.950  0.00  0.00    +0.012 C 
ENDBRANCH  20  21
ENDBRANCH   2  16
ENDBRANCH   5   8
BRANCH   7   1
ATOM      1  N   UNL     1     -17.032   2.256  26.993  0.00  0.00    -0.306 NA
ATOM     32  H   UNL     1     -16.045   2.082  26.800  0.00  0.00    +0.123 HD
BRANCH   1  13
ATOM     13  C   UNL     1     -17.161   2.788  28.343  0.00  0.00    +0.117 C 
BRANCH  13  17
ATOM     17  C   UNL     1     -15.996   2.398  29.214  0.00  0.00    -0.032 A 
ATOM     24  C   UNL     1     -15.356   1.174  29.018  0.00  0.00    +0.023 A 
ATOM     25  C   UNL     1     -15.555   3.263  30.216  0.00  0.00    +0.005 A 
ATOM     28  C   UNL     1     -14.275   0.815  29.822  0.00  0.00    +0.052 A 
ATOM     29  C   UNL     1     -14.473   2.903  31.021  0.00  0.00    +0.002 A 
ATOM     30  C   UNL     1     -13.834   1.679  30.824  0.00  0.00    +0.019 A 
BRANCH  28  31
ATOM      4  N   UNL     1     -13.091  -1.460  29.464  0.00  0.00    -0.191 NA
ATOM     31  C   UNL     1     -13.621  -0.440  29.624  0.00  0.00    +0.099 C 
ENDBRANCH  28  31
ENDBRANCH  13  17
ENDBRANCH   1  13
ENDBRANCH   7   1
TORSDOF 7
ENDMDL
MODEL 5
REMARK VINA RESULT:      -6.8      1.354      2.189
REMARK  Name = 40780375
REMARK  11 active torsions:
REMARK  status: ('A' for Active; 'I' for Inactive)
REMARK    1  A    between atoms: N_1  and  C_7
REMARK    2  A    between atoms: N_1  and  C_13
REMARK    3  A    between atoms: N_2  and  C_16
REMARK    4  A    between atoms: C_5  and  C_8
REMARK    5  A    between atoms: C_11  and  C_14
REMARK    6  A    between atoms: C_12  and  C_15
REMARK    7  A    between atoms: C_13  and  C_17
REMARK    8  A    between atoms: C_20  and  C_21
REMARK    9  A    between atoms: C_21  and  C_26
REMARK   10  A    between atoms: C_21  and  C_27
REMARK   11  A    between atoms: C_28  and  C_31
REMARK                            x       y       z     vdW  Elec       q    Type
REMARK                         _______ _______ _______ _____ _____    ______ ____
ROOT
ATOM      5  C   UNL     1      -3.851 -10.071  11.630  0.00  0.00    +0.047 C 
ATOM      6  C   UNL     1      -4.290 -10.934  12.829  0.00  0.00    +0.035 C 
ATOM      7  C   UNL     1      -3.022 -11.185  13.664  0.00  0.00    +0.078 C 
ATOM      9  C   UNL     1      -2.380 -10.360  11.553  0.00  0.00    -0.021 C 
ATOM     10  C   UNL     1      -1.933 -10.957  12.663  0.00  0.00    -0.012 C 
ENDROOT
BRANCH   5   8
ATOM      2  N   UNL     1      -5.851 -10.234   8.566  0.00  0.00    -0.236 N 
ATOM      3  N   UNL     1      -5.506 -11.532   8.608  0.00  0.00    -0.171 NA
ATOM      8  C   UNL     1      -4.620 -10.371  10.365  0.00  0.00    +0.003 A 
ATOM     11  C   UNL     1      -5.346  -9.495   9.595  0.00  0.00    +0.046 A 
ATOM     12  C   UNL     1      -4.754 -11.610   9.709  0.00  0.00    +0.064 A 
ATOM     14  C   UNL     1      -5.592  -8.048   9.752  0.00  0.00    +0.066 C 
ATOM     15  C   UNL     1      -4.177 -12.908  10.101  0.00  0.00    +0.068 C 
BRANCH   2  16
ATOM     16  C   UNL     1      -6.657  -9.765   7.527  0.00  0.00    +0.066 A 
ATOM     18  C   UNL     1      -7.987  -9.423   7.775  0.00  0.00    +0.028 A 
ATOM     19  C   UNL     1      -6.133  -9.641   6.241  0.00  0.00    +0.028 A 
ATOM     20  C   UNL     1      -8.267  -8.835   5.449  0.00  0.00    -0.045 A 
ATOM     22  C   UNL     1      -8.791  -8.958   6.735  0.00  0.00    +0.006 A 
ATOM     23  C   UNL     1      -6.939  -9.177   5.201  0.00  0.00    +0.006 A 
BRANCH  20  21
ATOM     21  C   UNL     1      -9.130  -8.338   4.338  0.00  0.00    +0.013 C 
ATOM     26  C   UNL     1      -8.310  -7.828   3.138  0.00  0.00    +0.012 C 
ATOM     27  C   UNL     1     -10.115  -7.247   4.800  0.00  0.00    +0.012 C 
ENDBRANCH  20  21
ENDBRANCH   2  16
ENDBRANCH   5   8
BRANCH   7   1
ATOM      1  N   UNL     1      -2.915 -10.261  14.787  0.00  0.00    -0.306 NA
ATOM     32  H   UNL     1      -3.782  -9.728  14.868  0.00  0.00    +0.123 HD
BRANCH   1  13
ATOM     13  C   UNL     1      -2.684 -10.978  16.034  0.00  0.00    +0.117 C 
BRANCH  13  17
ATOM     17  C   UNL     1      -3.881 -10.921  16.945  0.00  0.00    -0.032 A 
ATOM     24  C   UNL     1      -5.031 -10.238  16.545  0.00  0.00    +0.023 A 
ATOM     25  C   UNL     1      -3.842 -11.553  18.187  0.00  0.00    +0.005 A 
ATOM     28  C   UNL     1      -6.141 -10.189  17.388  0.00  0.00    +0.052 A 
ATOM     29  C   UNL     1      -4.953 -11.503  19.030  0.00  0.00    +0.002 A 
ATOM     30  C   UNL     1      -6.102 -10.821  18.631  0.00  0.00    +0.019 A 
BRANCH  28  31
ATOM      4  N   UNL     1      -8.273  -8.919  16.649  0.00  0.00    -0.191 NA
ATOM     31  C   UNL     1      -7.318  -9.488  16.981  0.00  0.00    +0.099 C 
ENDBRANCH  28  31
ENDBRANCH  13  17
ENDBRANCH   1  13
ENDBRANCH   7   1
TORSDOF 7
ENDMDL
MODEL 6
REMARK VINA RESULT:      -6.8      2.766     10.255
REMARK  Name = 40780375
REMARK  11 active torsions:
REMARK  status: ('A' for Active; 'I' for Inactive)
REMARK    1  A    between atoms: N_1  and  C_7
REMARK    2  A    between atoms: N_1  and  C_13
REMARK    3  A    between atoms: N_2  and  C_16
REMARK    4  A    between atoms: C_5  and  C_8
REMARK    5  A    between atoms: C_11  and  C_14
REMARK    6  A    between atoms: C_12  and  C_15
REMARK    7  A    between atoms: C_13  and  C_17
REMARK    8  A    between atoms: C_20  and  C_21
REMARK    9  A    between atoms: C_21  and  C_26
REMARK   10  A    between atoms: C_21  and  C_27
REMARK   11  A    between atoms: C_28  and  C_31
REMARK                            x       y       z     vdW  Elec       q    Type
REMARK                         _______ _______ _______ _____ _____    ______ ____
ROOT
ATOM      5  C   UNL     1      -4.323  -9.720  10.470  0.00  0.00    +0.047 C 
ATOM      6  C   UNL     1      -5.313 -10.663   9.758  0.00  0.00    +0.035 C 
ATOM      7  C   UNL     1      -6.140  -9.779   8.809  0.00  0.00    +0.078 C 
ATOM      9  C   UNL     1      -4.997  -8.386  10.326  0.00  0.00    -0.021 C 
ATOM     10  C   UNL     1      -5.978  -8.421   9.418  0.00  0.00    -0.012 C 
ENDROOT
BRANCH   5   8
ATOM      2  N   UNL     1      -4.187 -10.708  13.994  0.00  0.00    -0.236 N 
ATOM      3  N   UNL     1      -2.862 -10.704  13.772  0.00  0.00    -0.171 NA
ATOM      8  C   UNL     1      -4.029 -10.129  11.894  0.00  0.00    +0.003 A 
ATOM     11  C   UNL     1      -4.931 -10.372  12.901  0.00  0.00    +0.046 A 
ATOM     12  C   UNL     1      -2.771 -10.349  12.487  0.00  0.00    +0.064 A 
ATOM     14  C   UNL     1      -6.406 -10.313  12.912  0.00  0.00    +0.066 C 
ATOM     15  C   UNL     1      -1.443 -10.232  11.860  0.00  0.00    +0.068 C 
BRANCH   2  16
ATOM     16  C   UNL     1      -4.676 -11.040  15.258  0.00  0.00    +0.066 A 
ATOM     18  C   UNL     1      -5.088 -12.347  15.526  0.00  0.00    +0.028 A 
ATOM     19  C   UNL     1      -4.756 -10.066  16.253  0.00  0.00    +0.028 A 
ATOM     20  C   UNL     1      -5.659 -11.702  17.783  0.00  0.00    -0.045 A 
ATOM     22  C   UNL     1      -5.579 -12.676  16.789  0.00  0.00    +0.006 A 
ATOM     23  C   UNL     1      -5.249 -10.396  17.516  0.00  0.00    +0.006 A 
BRANCH  20  21
ATOM     21  C   UNL     1      -6.187 -12.056  19.133  0.00  0.00    +0.013 C 
ATOM     26  C   UNL     1      -7.541 -12.787  19.062  0.00  0.00    +0.012 C 
ATOM     27  C   UNL     1      -6.301 -10.831  20.060  0.00  0.00    +0.012 C 
ENDBRANCH  20  21
ENDBRANCH   2  16
ENDBRANCH   5   8
BRANCH   7   1
ATOM      1  N   UNL     1      -5.630  -9.815   7.444  0.00  0.00    -0.306 NA
ATOM     32  H   UNL     1      -5.029  -9.006   7.286  0.00  0.00    +0.123 HD
BRANCH   1  13
ATOM     13  C   UNL     1      -4.859 -11.029   7.207  0.00  0.00    +0.117 C 
BRANCH  13  17
ATOM     17  C   UNL     1      -4.995 -11.512   5.787  0.00  0.00    -0.032 A 
ATOM     24  C   UNL     1      -3.864 -11.910   5.073  0.00  0.00    +0.023 A 
ATOM     25  C   UNL     1      -6.253 -11.565   5.187  0.00  0.00    +0.005 A 
ATOM     28  C   UNL     1      -3.991 -12.362   3.760  0.00  0.00    +0.052 A 
ATOM     29  C   UNL     1      -6.380 -12.017   3.873  0.00  0.00    +0.002 A 
ATOM     30  C   UNL     1      -5.249 -12.415   3.159  0.00  0.00    +0.019 A 
BRANCH  28  31
ATOM      4  N   UNL     1      -1.893 -13.097   2.433  0.00  0.00    -0.191 NA
ATOM     31  C   UNL     1      -2.833 -12.767   3.027  0.00  0.00    +0.099 C 
ENDBRANCH  28  31
ENDBRANCH  13  17
ENDBRANCH   1  13
ENDBRANCH   7   1
TORSDOF 7
ENDMDL
MODEL 7
REMARK VINA RESULT:      -6.7      3.472      9.911
REMARK  Name = 40780375
REMARK  11 active torsions:
REMARK  status: ('A' for Active; 'I' for Inactive)
REMARK    1  A    between atoms: N_1  and  C_7
REMARK    2  A    between atoms: N_1  and  C_13
REMARK    3  A    between atoms: N_2  and  C_16
REMARK    4  A    between atoms: C_5  and  C_8
REMARK    5  A    between atoms: C_11  and  C_14
REMARK    6  A    between atoms: C_12  and  C_15
REMARK    7  A    between atoms: C_13  and  C_17
REMARK    8  A    between atoms: C_20  and  C_21
REMARK    9  A    between atoms: C_21  and  C_26
REMARK   10  A    between atoms: C_21  and  C_27
REMARK   11  A    between atoms: C_28  and  C_31
REMARK                            x       y       z     vdW  Elec       q    Type
REMARK                         _______ _______ _______ _____ _____    ______ ____
ROOT
ATOM      5  C   UNL     1      -5.832 -11.056  16.585  0.00  0.00    +0.047 C 
ATOM      6  C   UNL     1      -4.472 -10.419  16.928  0.00  0.00    +0.035 C 
ATOM      7  C   UNL     1      -3.436 -11.099  16.015  0.00  0.00    +0.078 C 
ATOM      9  C   UNL     1      -5.424 -12.364  15.972  0.00  0.00    -0.021 C 
ATOM     10  C   UNL     1      -4.124 -12.380  15.657  0.00  0.00    -0.012 C 
ENDROOT
BRANCH   5   8
ATOM      2  N   UNL     1      -8.491 -11.266  19.097  0.00  0.00    -0.236 N 
ATOM      3  N   UNL     1      -7.457 -11.463  19.932  0.00  0.00    -0.171 NA
ATOM      8  C   UNL     1      -6.751 -11.178  17.778  0.00  0.00    +0.003 A 
ATOM     11  C   UNL     1      -8.122 -11.091  17.795  0.00  0.00    +0.046 A 
ATOM     12  C   UNL     1      -6.396 -11.408  19.121  0.00  0.00    +0.064 A 
ATOM     14  C   UNL     1      -9.088 -10.861  16.702  0.00  0.00    +0.066 C 
ATOM     15  C   UNL     1      -5.046 -11.584  19.683  0.00  0.00    +0.068 C 
BRANCH   2  16
ATOM     16  C   UNL     1      -9.793 -11.257  19.597  0.00  0.00    +0.066 A 
ATOM     18  C   UNL     1     -10.487 -10.052  19.714  0.00  0.00    +0.028 A 
ATOM     19  C   UNL     1     -10.399 -12.453  19.982  0.00  0.00    +0.028 A 
ATOM     20  C   UNL     1     -12.394 -11.240  20.604  0.00  0.00    -0.045 A 
ATOM     22  C   UNL     1     -11.788 -10.045  20.218  0.00  0.00    +0.006 A 
ATOM     23  C   UNL     1     -11.700 -12.444  20.487  0.00  0.00    +0.006 A 
BRANCH  20  21
ATOM     21  C   UNL     1     -13.785 -11.230  21.143  0.00  0.00    +0.013 C 
ATOM     26  C   UNL     1     -14.580 -12.488  20.747  0.00  0.00    +0.012 C 
ATOM     27  C   UNL     1     -14.566  -9.967  20.732  0.00  0.00    +0.012 C 
ENDBRANCH  20  21
ENDBRANCH   2  16
ENDBRANCH   5   8
BRANCH   7   1
ATOM      1  N   UNL     1      -3.144 -10.302  14.831  0.00  0.00    -0.306 NA
ATOM     32  H   UNL     1      -2.262  -9.807  14.966  0.00  0.00    +0.123 HD
BRANCH   1  13
ATOM     13  C   UNL     1      -3.035 -11.145  13.647  0.00  0.00    +0.117 C 
BRANCH  13  17
ATOM     17  C   UNL     1      -3.440 -10.411  12.396  0.00  0.00    -0.032 A 
ATOM     24  C   UNL     1      -4.785 -10.123  12.161  0.00  0.00    +0.023 A 
ATOM     25  C   UNL     1      -2.471 -10.018  11.473  0.00  0.00    +0.005 A 
ATOM     28  C   UNL     1      -5.160  -9.441  11.004  0.00  0.00    +0.052 A 
ATOM     29  C   UNL     1      -2.846  -9.336  10.316  0.00  0.00    +0.002 A 
ATOM     30  C   UNL     1      -4.191  -9.047  10.081  0.00  0.00    +0.019 A 
BRANCH  28  31
ATOM      4  N   UNL     1      -7.656  -8.909  10.564  0.00  0.00    -0.191 NA
ATOM     31  C   UNL     1      -6.537  -9.147  10.761  0.00  0.00    +0.099 C 
ENDBRANCH  28  31
ENDBRANCH  13  17
ENDBRANCH   1  13
ENDBRANCH   7   1
TORSDOF 7
ENDMDL
MODEL 8
REMARK VINA RESULT:      -6.6      1.937      3.630
REMARK  Name = 40780375
REMARK  11 active torsions:
REMARK  status: ('A' for Active; 'I' for Inactive)
REMARK    1  A    between atoms: N_1  and  C_7
REMARK    2  A    between atoms: N_1  and  C_13
REMARK    3  A    between atoms: N_2  and  C_16
REMARK    4  A    between atoms: C_5  and  C_8
REMARK    5  A    between atoms: C_11  and  C_14
REMARK    6  A    between atoms: C_12  and  C_15
REMARK    7  A    between atoms: C_13  and  C_17
REMARK    8  A    between atoms: C_20  and  C_21
REMARK    9  A    between atoms: C_21  and  C_26
REMARK   10  A    between atoms: C_21  and  C_27
REMARK   11  A    between atoms: C_28  and  C_31
REMARK                            x       y       z     vdW  Elec       q    Type
REMARK                         _______ _______ _______ _____ _____    ______ ____
ROOT
ATOM      5  C   UNL     1      -5.203 -11.116  15.993  0.00  0.00    +0.047 C 
ATOM      6  C   UNL     1      -5.035 -12.570  16.477  0.00  0.00    +0.035 C 
ATOM      7  C   UNL     1      -4.824 -12.494  18.000  0.00  0.00    +0.078 C 
ATOM      9  C   UNL     1      -4.541 -10.338  17.093  0.00  0.00    -0.021 C 
ATOM     10  C   UNL     1      -4.345 -11.088  18.183  0.00  0.00    -0.012 C 
ENDROOT
BRANCH   5   8
ATOM      2  N   UNL     1      -4.362 -10.572  12.469  0.00  0.00    -0.236 N 
ATOM      3  N   UNL     1      -3.111 -10.490  12.953  0.00  0.00    -0.171 NA
ATOM      8  C   UNL     1      -4.629 -10.876  14.616  0.00  0.00    +0.003 A 
ATOM     11  C   UNL     1      -5.309 -10.802  13.425  0.00  0.00    +0.046 A 
ATOM     12  C   UNL     1      -3.280 -10.677  14.265  0.00  0.00    +0.064 A 
ATOM     14  C   UNL     1      -6.749 -10.927  13.125  0.00  0.00    +0.066 C 
ATOM     15  C   UNL     1      -2.107 -10.655  15.156  0.00  0.00    +0.068 C 
BRANCH   2  16
ATOM     16  C   UNL     1      -4.586 -10.423  11.100  0.00  0.00    +0.066 A 
ATOM     18  C   UNL     1      -4.496 -11.529  10.254  0.00  0.00    +0.028 A 
ATOM     19  C   UNL     1      -4.896  -9.168  10.578  0.00  0.00    +0.028 A 
ATOM     20  C   UNL     1      -5.027 -10.122   8.363  0.00  0.00    -0.045 A 
ATOM     22  C   UNL     1      -4.717 -11.378   8.885  0.00  0.00    +0.006 A 
ATOM     23  C   UNL     1      -5.116  -9.017   9.208  0.00  0.00    +0.006 A 
BRANCH  20  21
ATOM     21  C   UNL     1      -5.261  -9.963   6.898  0.00  0.00    +0.013 C 
ATOM     26  C   UNL     1      -6.674  -9.437   6.581  0.00  0.00    +0.012 C 
ATOM     27  C   UNL     1      -5.000 -11.264   6.115  0.00  0.00    +0.012 C 
ENDBRANCH  20  21
ENDBRANCH   2  16
ENDBRANCH   5   8
BRANCH   7   1
ATOM      1  N   UNL     1      -6.059 -12.736  18.735  0.00  0.00    -0.306 NA
ATOM     32  H   UNL     1      -5.919 -13.511  19.384  0.00  0.00    +0.123 HD
BRANCH   1  13
ATOM     13  C   UNL     1      -6.458 -11.555  19.489  0.00  0.00    +0.117 C 
BRANCH  13  17
ATOM     17  C   UNL     1      -7.853 -11.108  19.138  0.00  0.00    -0.032 A 
ATOM     24  C   UNL     1      -8.044 -10.061  18.236  0.00  0.00    +0.023 A 
ATOM     25  C   UNL     1      -8.953 -11.744  19.711  0.00  0.00    +0.005 A 
ATOM     28  C   UNL     1      -9.335  -9.650  17.908  0.00  0.00    +0.052 A 
ATOM     29  C   UNL     1     -10.246 -11.333  19.383  0.00  0.00    +0.002 A 
ATOM     30  C   UNL     1     -10.437 -10.285  18.482  0.00  0.00    +0.019 A 
BRANCH  28  31
ATOM      4  N   UNL     1      -9.693  -7.702  16.240  0.00  0.00    -0.191 NA
ATOM     31  C   UNL     1      -9.532  -8.575  16.987  0.00  0.00    +0.099 C 
ENDBRANCH  28  31
ENDBRANCH  13  17
ENDBRANCH   1  13
ENDBRANCH   7   1
TORSDOF 7
ENDMDL
MODEL 9
REMARK VINA RESULT:      -6.5      2.561     10.206
REMARK  Name = 40780375
REMARK  11 active torsions:
REMARK  status: ('A' for Active; 'I' for Inactive)
REMARK    1  A    between atoms: N_1  and  C_7
REMARK    2  A    between atoms: N_1  and  C_13
REMARK    3  A    between atoms: N_2  and  C_16
REMARK    4  A    between atoms: C_5  and  C_8
REMARK    5  A    between atoms: C_11  and  C_14
REMARK    6  A    between atoms: C_12  and  C_15
REMARK    7  A    between atoms: C_13  and  C_17
REMARK    8  A    between atoms: C_20  and  C_21
REMARK    9  A    between atoms: C_21  and  C_26
REMARK   10  A    between atoms: C_21  and  C_27
REMARK   11  A    between atoms: C_28  and  C_31
REMARK                            x       y       z     vdW  Elec       q    Type
REMARK                         _______ _______ _______ _____ _____    ______ ____
ROOT
ATOM      5  C   UNL     1      -4.141  -9.463  10.027  0.00  0.00    +0.047 C 
ATOM      6  C   UNL     1      -5.032 -10.506   9.326  0.00  0.00    +0.035 C 
ATOM      7  C   UNL     1      -6.064  -9.709   8.509  0.00  0.00    +0.078 C 
ATOM      9  C   UNL     1      -5.021  -8.247  10.033  0.00  0.00    -0.021 C 
ATOM     10  C   UNL     1      -6.059  -8.382   9.201  0.00  0.00    -0.012 C 
ENDROOT
BRANCH   5   8
ATOM      2  N   UNL     1      -3.550 -10.644  13.444  0.00  0.00    -0.236 N 
ATOM      3  N   UNL     1      -2.270 -10.377  13.137  0.00  0.00    -0.171 NA
ATOM      8  C   UNL     1      -3.666  -9.905  11.392  0.00  0.00    +0.003 A 
ATOM     11  C   UNL     1      -4.427 -10.379  12.433  0.00  0.00    +0.046 A 
ATOM     12  C   UNL     1      -2.346  -9.926  11.882  0.00  0.00    +0.064 A 
ATOM     14  C   UNL     1      -5.883 -10.598  12.544  0.00  0.00    +0.066 C 
ATOM     15  C   UNL     1      -1.115  -9.521  11.182  0.00  0.00    +0.068 C 
BRANCH   2  16
ATOM     16  C   UNL     1      -3.869 -11.146  14.707  0.00  0.00    +0.066 A 
ATOM     18  C   UNL     1      -3.881 -10.296  15.813  0.00  0.00    +0.028 A 
ATOM     19  C   UNL     1      -4.173 -12.499  14.862  0.00  0.00    +0.028 A 
ATOM     20  C   UNL     1      -4.500 -12.152  17.230  0.00  0.00    -0.045 A 
ATOM     22  C   UNL     1      -4.196 -10.800  17.075  0.00  0.00    +0.006 A 
ATOM     23  C   UNL     1      -4.488 -13.002  16.125  0.00  0.00    +0.006 A 
BRANCH  20  21
ATOM     21  C   UNL     1      -4.836 -12.690  18.581  0.00  0.00    +0.013 C 
ATOM     26  C   UNL     1      -6.234 -12.254  19.057  0.00  0.00    +0.012 C 
ATOM     27  C   UNL     1      -3.782 -12.316  19.641  0.00  0.00    +0.012 C 
ENDBRANCH  20  21
ENDBRANCH   2  16
ENDBRANCH   5   8
BRANCH   7   1
ATOM      1  N   UNL     1      -5.674  -9.582   7.110  0.00  0.00    -0.306 NA
ATOM     32  H   UNL     1      -5.039  -8.789   7.007  0.00  0.00    +0.123 HD
BRANCH   1  13
ATOM     13  C   UNL     1      -5.001 -10.788   6.645  0.00  0.00    +0.117 C 
BRANCH  13  17
ATOM     17  C   UNL     1      -5.514 -11.234   5.301  0.00  0.00    -0.032 A 
ATOM     24  C   UNL     1      -6.724 -10.736   4.815  0.00  0.00    +0.023 A 
ATOM     25  C   UNL     1      -4.780 -12.144   4.541  0.00  0.00    +0.005 A 
ATOM     28  C   UNL     1      -7.197 -11.146   3.570  0.00  0.00    +0.052 A 
ATOM     29  C   UNL     1      -5.254 -12.555   3.295  0.00  0.00    +0.002 A 
ATOM     30  C   UNL     1      -6.463 -12.057   2.809  0.00  0.00    +0.019 A 
BRANCH  28  31
ATOM      4  N   UNL     1      -9.443 -10.225   2.667  0.00  0.00    -0.191 NA
ATOM     31  C   UNL     1      -8.437 -10.638   3.072  0.00  0.00    +0.099 C 
ENDBRANCH  28  31
ENDBRANCH  13  17
ENDBRANCH   1  13
ENDBRANCH   7   1
TORSDOF 7
ENDMDL
MODEL 10
REMARK VINA RESULT:      -6.5     27.867     31.202
REMARK  Name = 40780375
REMARK  11 active torsions:
REMARK  status: ('A' for Active; 'I' for Inactive)
REMARK    1  A    between atoms: N_1  and  C_7
REMARK    2  A    between atoms: N_1  and  C_13
REMARK    3  A    between atoms: N_2  and  C_16
REMARK    4  A    between atoms: C_5  and  C_8
REMARK    5  A    between atoms: C_11  and  C_14
REMARK    6  A    between atoms: C_12  and  C_15
REMARK    7  A    between atoms: C_13  and  C_17
REMARK    8  A    between atoms: C_20  and  C_21
REMARK    9  A    between atoms: C_21  and  C_26
REMARK   10  A    between atoms: C_21  and  C_27
REMARK   11  A    between atoms: C_28  and  C_31
REMARK                            x       y       z     vdW  Elec       q    Type
REMARK                         _______ _______ _______ _____ _____    ______ ____
ROOT
ATOM      5  C   UNL     1      17.436   7.563  21.569  0.00  0.00    +0.047 C 
ATOM      6  C   UNL     1      17.424   8.914  20.827  0.00  0.00    +0.035 C 
ATOM      7  C   UNL     1      15.960   9.388  20.823  0.00  0.00    +0.078 C 
ATOM      9  C   UNL     1      16.012   7.112  21.430  0.00  0.00    -0.021 C 
ATOM     10  C   UNL     1      15.213   8.108  21.032  0.00  0.00    -0.012 C 
ENDROOT
BRANCH   5   8
ATOM      2  N   UNL     1      20.237   5.360  20.720  0.00  0.00    -0.236 N 
ATOM      3  N   UNL     1      19.462   5.057  19.665  0.00  0.00    -0.171 NA
ATOM      8  C   UNL     1      18.461   6.595  21.027  0.00  0.00    +0.003 A 
ATOM     11  C   UNL     1      19.684   6.276  21.566  0.00  0.00    +0.046 A 
ATOM     12  C   UNL     1      18.378   5.815  19.857  0.00  0.00    +0.064 A 
ATOM     14  C   UNL     1      20.353   6.756  22.791  0.00  0.00    +0.066 C 
ATOM     15  C   UNL     1      17.274   5.758  18.884  0.00  0.00    +0.068 C 
BRANCH   2  16
ATOM     16  C   UNL     1      21.483   4.747  20.862  0.00  0.00    +0.066 A 
ATOM     18  C   UNL     1      22.629   5.375  20.374  0.00  0.00    +0.028 A 
ATOM     19  C   UNL     1      21.581   3.506  21.490  0.00  0.00    +0.028 A 
ATOM     20  C   UNL     1      23.971   3.518  21.141  0.00  0.00    -0.045 A 
ATOM     22  C   UNL     1      23.873   4.760  20.514  0.00  0.00    +0.006 A 
ATOM     23  C   UNL     1      22.825   2.890  21.629  0.00  0.00    +0.006 A 
BRANCH  20  21
ATOM     21  C   UNL     1      25.302   2.861  21.288  0.00  0.00    +0.013 C 
ATOM     26  C   UNL     1      26.247   3.175  20.113  0.00  0.00    +0.012 C 
ATOM     27  C   UNL     1      25.187   1.335  21.474  0.00  0.00    +0.012 C 
ENDBRANCH  20  21
ENDBRANCH   2  16
ENDBRANCH   5   8
BRANCH   7   1
ATOM      1  N   UNL     1      15.692  10.343  21.891  0.00  0.00    -0.306 NA
ATOM     32  H   UNL     1      16.554  10.837  22.127  0.00  0.00    +0.123 HD
BRANCH   1  13
ATOM     13  C   UNL     1      14.688  11.316  21.483  0.00  0.00    +0.117 C 
BRANCH  13  17
ATOM     17  C   UNL     1      13.374  11.095  22.185  0.00  0.00    -0.032 A 
ATOM     24  C   UNL     1      12.658   9.917  21.972  0.00  0.00    +0.023 A 
ATOM     25  C   UNL     1      12.874  12.068  23.050  0.00  0.00    +0.005 A 
ATOM     28  C   UNL     1      11.443   9.711  22.625  0.00  0.00    +0.052 A 
ATOM     29  C   UNL     1      11.659  11.862  23.704  0.00  0.00    +0.002 A 
ATOM     30  C   UNL     1      10.942  10.684  23.491  0.00  0.00    +0.019 A 
BRANCH  28  31
ATOM      4  N   UNL     1      10.109   7.527  22.229  0.00  0.00    -0.191 NA
ATOM     31  C   UNL     1      10.707   8.506  22.406  0.00  0.00    +0.099 C 
ENDBRANCH  28  31
ENDBRANCH  13  17
ENDBRANCH   1  13
ENDBRANCH   7   1
TORSDOF 7
ENDMDL
