MODEL 1
REMARK VINA RESULT:      -7.3      0.000      0.000
REMARK  Name = 45361600
REMARK  11 active torsions:
REMARK  status: ('A' for Active; 'I' for Inactive)
REMARK    1  A    between atoms: O_1  and  C_12
REMARK    2  A    between atoms: N_5  and  C_16
REMARK    3  A    between atoms: N_6  and  C_26
REMARK    4  A    between atoms: N_8  and  C_27
REMARK    5  A    between atoms: C_9  and  C_19
REMARK    6  A    between atoms: C_11  and  C_21
REMARK    7  A    between atoms: C_15  and  C_20
REMARK    8  A    between atoms: C_20  and  C_22
REMARK    9  A    between atoms: C_20  and  C_23
REMARK   10  A    between atoms: C_24  and  C_25
REMARK   11  A    between atoms: C_26  and  C_27
REMARK                            x       y       z     vdW  Elec       q    Type
REMARK                         _______ _______ _______ _____ _____    ______ ____
ROOT
ATOM      9  C   UNL     1     -16.333   6.754  22.598  0.00  0.00    -0.027 C 
ATOM     10  C   UNL     1     -14.905   6.157  22.835  0.00  0.00    +0.028 C 
ATOM     11  C   UNL     1     -13.991   6.380  21.578  0.00  0.00    +0.012 C 
ATOM     12  C   UNL     1     -14.986   4.692  23.352  0.00  0.00    +0.122 C 
ATOM     13  C   UNL     1     -17.170   6.620  23.892  0.00  0.00    +0.007 C 
ATOM     14  C   UNL     1     -16.201   8.260  22.276  0.00  0.00    +0.009 C 
ATOM     15  C   UNL     1     -15.909   4.547  24.585  0.00  0.00    +0.029 C 
ATOM     16  C   UNL     1     -13.926   7.890  21.218  0.00  0.00    +0.076 C 
ATOM     17  C   UNL     1     -17.283   5.182  24.379  0.00  0.00    +0.007 C 
ATOM     18  C   UNL     1     -15.302   8.541  21.080  0.00  0.00    +0.023 C 
ATOM     19  C   UNL     1     -17.087   6.050  21.442  0.00  0.00    +0.011 C 
ATOM     21  C   UNL     1     -12.561   5.840  21.753  0.00  0.00    +0.010 C 
ENDROOT
BRANCH  16   5
ATOM      3  O   UNL     1     -11.952   9.926  20.766  0.00  0.00    -0.269 OA
ATOM      5  N   UNL     1     -13.186   8.120  19.995  0.00  0.00    -0.307 N 
ATOM     24  C   UNL     1     -12.250   9.133  19.876  0.00  0.00    +0.263 C 
ATOM     36  H   UNL     1     -13.407   7.551  19.183  0.00  0.00    +0.149 HD
BRANCH  24  25
ATOM      7  N   UNL     1     -12.164   8.543  17.548  0.00  0.00    -0.250 NA
ATOM     25  C   UNL     1     -11.596   9.254  18.547  0.00  0.00    +0.125 A 
ATOM     28  C   UNL     1     -10.477  10.055  18.391  0.00  0.00    +0.033 A 
ATOM     29  C   UNL     1      -9.904  10.134  17.127  0.00  0.00    +0.004 A 
ATOM     32  C   UNL     1     -11.579   8.645  16.332  0.00  0.00    +0.111 A 
ATOM     33  C   UNL     1     -10.460   9.418  16.072  0.00  0.00    +0.020 A 
ENDBRANCH  24  25
ENDBRANCH  16   5
BRANCH  12   1
ATOM      1  O   UNL     1     -13.688   4.258  23.760  0.00  0.00    -0.391 OA
ATOM     37  H   UNL     1     -13.798   3.516  24.378  0.00  0.00    +0.210 HD
ENDBRANCH  12   1
BRANCH  15  20
ATOM     20  C   UNL     1     -16.078   3.080  24.999  0.00  0.00    +0.077 C 
ATOM     22  C   UNL     1     -17.052   2.378  24.059  0.00  0.00    +0.017 C 
BRANCH  20  23
ATOM      2  O   UNL     1     -17.436   2.234  26.816  0.00  0.00    -0.276 OA
ATOM      6  N   UNL     1     -15.867   3.878  27.278  0.00  0.00    -0.314 N 
ATOM     23  C   UNL     1     -16.548   2.999  26.448  0.00  0.00    +0.216 C 
ATOM     38  H   UNL     1     -15.160   4.491  26.883  0.00  0.00    +0.149 HD
BRANCH   6  26
ATOM     26  C   UNL     1     -16.136   3.986  28.692  0.00  0.00    +0.119 C 
BRANCH  26  27
ATOM     27  C   UNL     1     -14.937   3.541  29.517  0.00  0.00    +0.103 C 
BRANCH  27   8
ATOM      4  O   UNL     1     -14.700  -0.431  30.854  0.00  0.00    -0.377 OA
ATOM      8  N   UNL     1     -14.840   2.082  29.525  0.00  0.00    -0.297 NA
ATOM     30  C   UNL     1     -16.020   1.483  30.162  0.00  0.00    +0.112 C 
ATOM     31  C   UNL     1     -13.619   1.644  30.214  0.00  0.00    +0.112 C 
ATOM     34  C   UNL     1     -15.890  -0.037  30.169  0.00  0.00    +0.175 C 
ATOM     35  C   UNL     1     -13.544   0.120  30.219  0.00  0.00    +0.175 C 
ENDBRANCH  27   8
ENDBRANCH  26  27
ENDBRANCH   6  26
ENDBRANCH  20  23
ENDBRANCH  15  20
TORSDOF 8
ENDMDL
MODEL 2
REMARK VINA RESULT:      -6.9      2.673     11.377
REMARK  Name = 45361600
REMARK  11 active torsions:
REMARK  status: ('A' for Active; 'I' for Inactive)
REMARK    1  A    between atoms: O_1  and  C_12
REMARK    2  A    between atoms: N_5  and  C_16
REMARK    3  A    between atoms: N_6  and  C_26
REMARK    4  A    between atoms: N_8  and  C_27
REMARK    5  A    between atoms: C_9  and  C_19
REMARK    6  A    between atoms: C_11  and  C_21
REMARK    7  A    between atoms: C_15  and  C_20
REMARK    8  A    between atoms: C_20  and  C_22
REMARK    9  A    between atoms: C_20  and  C_23
REMARK   10  A    between atoms: C_24  and  C_25
REMARK   11  A    between atoms: C_26  and  C_27
REMARK                            x       y       z     vdW  Elec       q    Type
REMARK                         _______ _______ _______ _____ _____    ______ ____
ROOT
ATOM      9  C   UNL     1     -15.155   7.414  20.976  0.00  0.00    -0.027 C 
ATOM     10  C   UNL     1     -13.977   6.414  21.228  0.00  0.00    +0.028 C 
ATOM     11  C   UNL     1     -14.159   5.674  22.602  0.00  0.00    +0.012 C 
ATOM     12  C   UNL     1     -12.598   7.103  21.018  0.00  0.00    +0.122 C 
ATOM     13  C   UNL     1     -15.006   8.041  19.569  0.00  0.00    +0.007 C 
ATOM     14  C   UNL     1     -16.491   6.637  21.007  0.00  0.00    +0.009 C 
ATOM     15  C   UNL     1     -12.494   7.817  19.649  0.00  0.00    +0.029 C 
ATOM     16  C   UNL     1     -15.538   4.958  22.651  0.00  0.00    +0.076 C 
ATOM     17  C   UNL     1     -13.673   8.749  19.372  0.00  0.00    +0.007 C 
ATOM     18  C   UNL     1     -16.710   5.876  22.305  0.00  0.00    +0.023 C 
ATOM     19  C   UNL     1     -15.203   8.553  22.025  0.00  0.00    +0.011 C 
ATOM     21  C   UNL     1     -13.048   4.653  22.903  0.00  0.00    +0.010 C 
ENDROOT
BRANCH  16   5
ATOM      3  O   UNL     1     -16.471   2.291  23.160  0.00  0.00    -0.269 OA
ATOM      5  N   UNL     1     -15.787   4.363  23.947  0.00  0.00    -0.307 N 
ATOM     24  C   UNL     1     -16.239   3.061  24.088  0.00  0.00    +0.263 C 
ATOM     36  H   UNL     1     -15.680   4.943  24.774  0.00  0.00    +0.149 HD
BRANCH  24  25
ATOM      7  N   UNL     1     -16.891   1.331  25.623  0.00  0.00    -0.250 NA
ATOM     25  C   UNL     1     -16.472   2.608  25.484  0.00  0.00    +0.125 A 
ATOM     28  C   UNL     1     -16.261   3.475  26.543  0.00  0.00    +0.033 A 
ATOM     29  C   UNL     1     -16.493   3.000  27.829  0.00  0.00    +0.004 A 
ATOM     32  C   UNL     1     -17.106   0.904  26.888  0.00  0.00    +0.111 A 
ATOM     33  C   UNL     1     -16.924   1.692  28.014  0.00  0.00    +0.020 A 
ENDBRANCH  24  25
ENDBRANCH  16   5
BRANCH  12   1
ATOM      1  O   UNL     1     -11.565   6.117  21.043  0.00  0.00    -0.391 OA
ATOM     37  H   UNL     1     -11.962   5.257  20.822  0.00  0.00    +0.210 HD
ENDBRANCH  12   1
BRANCH  15  20
ATOM     20  C   UNL     1     -11.181   8.597  19.514  0.00  0.00    +0.077 C 
ATOM     22  C   UNL     1     -11.335   9.993  20.107  0.00  0.00    +0.017 C 
BRANCH  20  23
ATOM      2  O   UNL     1     -10.541   7.652  17.378  0.00  0.00    -0.276 OA
ATOM      6  N   UNL     1     -10.661   9.959  17.578  0.00  0.00    -0.314 N 
ATOM     23  C   UNL     1     -10.761   8.659  18.048  0.00  0.00    +0.216 C 
ATOM     38  H   UNL     1     -10.842  10.734  18.209  0.00  0.00    +0.149 HD
BRANCH   6  26
ATOM     26  C   UNL     1     -10.277  10.273  16.221  0.00  0.00    +0.119 C 
BRANCH  26  27
ATOM     27  C   UNL     1     -11.409  10.965  15.476  0.00  0.00    +0.103 C 
BRANCH  27   8
ATOM      4  O   UNL     1     -13.112   7.448  13.942  0.00  0.00    -0.377 OA
ATOM      8  N   UNL     1     -12.078  10.022  14.581  0.00  0.00    -0.297 NA
ATOM     30  C   UNL     1     -13.321   9.520  15.185  0.00  0.00    +0.112 C 
ATOM     31  C   UNL     1     -11.192   8.899  14.248  0.00  0.00    +0.112 C 
ATOM     34  C   UNL     1     -13.994   8.531  14.240  0.00  0.00    +0.175 C 
ATOM     35  C   UNL     1     -11.915   7.924  13.323  0.00  0.00    +0.175 C 
ENDBRANCH  27   8
ENDBRANCH  26  27
ENDBRANCH   6  26
ENDBRANCH  20  23
ENDBRANCH  15  20
TORSDOF 8
ENDMDL
MODEL 3
REMARK VINA RESULT:      -6.8      1.811      2.226
REMARK  Name = 45361600
REMARK  11 active torsions:
REMARK  status: ('A' for Active; 'I' for Inactive)
REMARK    1  A    between atoms: O_1  and  C_12
REMARK    2  A    between atoms: N_5  and  C_16
REMARK    3  A    between atoms: N_6  and  C_26
REMARK    4  A    between atoms: N_8  and  C_27
REMARK    5  A    between atoms: C_9  and  C_19
REMARK    6  A    between atoms: C_11  and  C_21
REMARK    7  A    between atoms: C_15  and  C_20
REMARK    8  A    between atoms: C_20  and  C_22
REMARK    9  A    between atoms: C_20  and  C_23
REMARK   10  A    between atoms: C_24  and  C_25
REMARK   11  A    between atoms: C_26  and  C_27
REMARK                            x       y       z     vdW  Elec       q    Type
REMARK                         _______ _______ _______ _____ _____    ______ ____
ROOT
ATOM      9  C   UNL     1     -15.797   7.443  22.517  0.00  0.00    -0.027 C 
ATOM     10  C   UNL     1     -14.477   6.603  22.455  0.00  0.00    +0.028 C 
ATOM     11  C   UNL     1     -13.556   7.095  21.283  0.00  0.00    +0.012 C 
ATOM     12  C   UNL     1     -14.780   5.077  22.471  0.00  0.00    +0.122 C 
ATOM     13  C   UNL     1     -16.627   7.009  23.748  0.00  0.00    +0.007 C 
ATOM     14  C   UNL     1     -15.435   8.936  22.694  0.00  0.00    +0.009 C 
ATOM     15  C   UNL     1     -15.698   4.666  23.647  0.00  0.00    +0.029 C 
ATOM     16  C   UNL     1     -13.260   8.614  21.430  0.00  0.00    +0.076 C 
ATOM     17  C   UNL     1     -16.958   5.523  23.747  0.00  0.00    +0.007 C 
ATOM     18  C   UNL     1     -14.519   9.464  21.600  0.00  0.00    +0.023 C 
ATOM     19  C   UNL     1     -16.667   7.277  21.245  0.00  0.00    +0.011 C 
ATOM     21  C   UNL     1     -12.226   6.329  21.181  0.00  0.00    +0.010 C 
ENDROOT
BRANCH  16   5
ATOM      3  O   UNL     1     -11.657  10.996  21.380  0.00  0.00    -0.269 OA
ATOM      5  N   UNL     1     -12.509   9.127  20.304  0.00  0.00    -0.307 N 
ATOM     24  C   UNL     1     -11.763  10.291  20.380  0.00  0.00    +0.263 C 
ATOM     36  H   UNL     1     -12.583   8.642  19.414  0.00  0.00    +0.149 HD
BRANCH  24  25
ATOM      7  N   UNL     1     -11.135  12.012  18.825  0.00  0.00    -0.250 NA
ATOM     25  C   UNL     1     -11.072  10.697  19.129  0.00  0.00    +0.125 A 
ATOM     28  C   UNL     1     -10.418   9.752  18.355  0.00  0.00    +0.033 A 
ATOM     29  C   UNL     1      -9.787  10.185  17.195  0.00  0.00    +0.004 A 
ATOM     32  C   UNL     1     -10.509  12.396  17.689  0.00  0.00    +0.111 A 
ATOM     33  C   UNL     1      -9.828  11.530  16.848  0.00  0.00    +0.020 A 
ENDBRANCH  24  25
ENDBRANCH  16   5
BRANCH  12   1
ATOM      1  O   UNL     1     -13.560   4.351  22.633  0.00  0.00    -0.391 OA
ATOM     37  H   UNL     1     -12.823   4.946  22.412  0.00  0.00    +0.210 HD
ENDBRANCH  12   1
BRANCH  15  20
ATOM     20  C   UNL     1     -16.089   3.185  23.571  0.00  0.00    +0.077 C 
ATOM     22  C   UNL     1     -17.443   3.034  22.888  0.00  0.00    +0.017 C 
BRANCH  20  23
ATOM      2  O   UNL     1     -16.249   1.375  25.172  0.00  0.00    -0.276 OA
ATOM      6  N   UNL     1     -15.934   3.531  25.965  0.00  0.00    -0.314 N 
ATOM     23  C   UNL     1     -16.102   2.578  24.972  0.00  0.00    +0.216 C 
ATOM     38  H   UNL     1     -15.840   4.509  25.709  0.00  0.00    +0.149 HD
BRANCH   6  26
ATOM     26  C   UNL     1     -15.914   3.200  27.371  0.00  0.00    +0.119 C 
BRANCH  26  27
ATOM     27  C   UNL     1     -16.483   4.332  28.212  0.00  0.00    +0.103 C 
BRANCH  27   8
ATOM      4  O   UNL     1     -14.517   4.594  31.911  0.00  0.00    -0.377 OA
ATOM      8  N   UNL     1     -16.145   4.139  29.621  0.00  0.00    -0.297 NA
ATOM     30  C   UNL     1     -16.177   5.417  30.346  0.00  0.00    +0.112 C 
ATOM     31  C   UNL     1     -14.822   3.515  29.759  0.00  0.00    +0.112 C 
ATOM     34  C   UNL     1     -15.810   5.192  31.809  0.00  0.00    +0.175 C 
ATOM     35  C   UNL     1     -14.486   3.334  31.236  0.00  0.00    +0.175 C 
ENDBRANCH  27   8
ENDBRANCH  26  27
ENDBRANCH   6  26
ENDBRANCH  20  23
ENDBRANCH  15  20
TORSDOF 8
ENDMDL
MODEL 4
REMARK VINA RESULT:      -6.8     18.889     22.032
REMARK  Name = 45361600
REMARK  11 active torsions:
REMARK  status: ('A' for Active; 'I' for Inactive)
REMARK    1  A    between atoms: O_1  and  C_12
REMARK    2  A    between atoms: N_5  and  C_16
REMARK    3  A    between atoms: N_6  and  C_26
REMARK    4  A    between atoms: N_8  and  C_27
REMARK    5  A    between atoms: C_9  and  C_19
REMARK    6  A    between atoms: C_11  and  C_21
REMARK    7  A    between atoms: C_15  and  C_20
REMARK    8  A    between atoms: C_20  and  C_22
REMARK    9  A    between atoms: C_20  and  C_23
REMARK   10  A    between atoms: C_24  and  C_25
REMARK   11  A    between atoms: C_26  and  C_27
REMARK                            x       y       z     vdW  Elec       q    Type
REMARK                         _______ _______ _______ _____ _____    ______ ____
ROOT
ATOM      9  C   UNL     1      -4.710 -11.015  16.895  0.00  0.00    -0.027 C 
ATOM     10  C   UNL     1      -5.517 -10.384  15.712  0.00  0.00    +0.028 C 
ATOM     11  C   UNL     1      -7.063 -10.492  15.970  0.00  0.00    +0.012 C 
ATOM     12  C   UNL     1      -5.029 -10.933  14.340  0.00  0.00    +0.122 C 
ATOM     13  C   UNL     1      -3.197 -10.791  16.665  0.00  0.00    +0.007 C 
ATOM     14  C   UNL     1      -5.098 -10.297  18.208  0.00  0.00    +0.009 C 
ATOM     15  C   UNL     1      -3.498 -10.801  14.159  0.00  0.00    +0.029 C 
ATOM     16  C   UNL     1      -7.430  -9.833  17.328  0.00  0.00    +0.076 C 
ATOM     17  C   UNL     1      -2.707 -11.361  15.341  0.00  0.00    +0.007 C 
ATOM     18  C   UNL     1      -6.591 -10.344  18.498  0.00  0.00    +0.023 C 
ATOM     19  C   UNL     1      -4.971 -12.534  17.049  0.00  0.00    +0.011 C 
ATOM     21  C   UNL     1      -7.919  -9.865  14.856  0.00  0.00    +0.010 C 
ENDROOT
BRANCH  16   5
ATOM      3  O   UNL     1      -9.457  -7.799  17.389  0.00  0.00    -0.269 OA
ATOM      5  N   UNL     1      -8.830 -10.016  17.653  0.00  0.00    -0.307 N 
ATOM     24  C   UNL     1      -9.733  -8.967  17.654  0.00  0.00    +0.263 C 
ATOM     36  H   UNL     1      -9.141 -10.938  17.943  0.00  0.00    +0.149 HD
BRANCH  24  25
ATOM      7  N   UNL     1     -12.078  -9.002  17.128  0.00  0.00    -0.250 NA
ATOM     25  C   UNL     1     -11.126  -9.315  18.035  0.00  0.00    +0.125 A 
ATOM     28  C   UNL     1     -11.385  -9.922  19.254  0.00  0.00    +0.033 A 
ATOM     29  C   UNL     1     -12.706 -10.227  19.560  0.00  0.00    +0.004 A 
ATOM     32  C   UNL     1     -13.350  -9.315  17.461  0.00  0.00    +0.111 A 
ATOM     33  C   UNL     1     -13.713  -9.921  18.653  0.00  0.00    +0.020 A 
ENDBRANCH  24  25
ENDBRANCH  16   5
BRANCH  12   1
ATOM      1  O   UNL     1      -5.631 -10.183  13.285  0.00  0.00    -0.391 OA
ATOM     37  H   UNL     1      -5.037  -9.446  13.061  0.00  0.00    +0.210 HD
ENDBRANCH  12   1
BRANCH  15  20
ATOM     20  C   UNL     1      -3.020 -11.464  12.862  0.00  0.00    +0.077 C 
ATOM     22  C   UNL     1      -1.885 -12.438  13.156  0.00  0.00    +0.017 C 
BRANCH  20  23
ATOM      2  O   UNL     1      -1.457  -9.922  11.840  0.00  0.00    -0.276 OA
ATOM      6  N   UNL     1      -3.615 -10.033  10.998  0.00  0.00    -0.314 N 
ATOM     23  C   UNL     1      -2.591 -10.395  11.860  0.00  0.00    +0.216 C 
ATOM     38  H   UNL     1      -4.529 -10.462  11.099  0.00  0.00    +0.149 HD
BRANCH   6  26
ATOM     26  C   UNL     1      -3.451  -9.038   9.963  0.00  0.00    +0.119 C 
BRANCH  26  27
ATOM     27  C   UNL     1      -4.456  -9.242   8.840  0.00  0.00    +0.103 C 
BRANCH  27   8
ATOM      4  O   UNL     1      -8.592  -9.867   9.190  0.00  0.00    -0.377 OA
ATOM      8  N   UNL     1      -5.766  -9.590   9.387  0.00  0.00    -0.297 NA
ATOM     30  C   UNL     1      -6.380 -10.683   8.620  0.00  0.00    +0.112 C 
ATOM     31  C   UNL     1      -6.655  -8.421   9.398  0.00  0.00    +0.112 C 
ATOM     34  C   UNL     1      -7.749 -11.020   9.202  0.00  0.00    +0.175 C 
ATOM     35  C   UNL     1      -8.018  -8.811   9.962  0.00  0.00    +0.175 C 
ENDBRANCH  27   8
ENDBRANCH  26  27
ENDBRANCH   6  26
ENDBRANCH  20  23
ENDBRANCH  15  20
TORSDOF 8
ENDMDL
MODEL 5
REMARK VINA RESULT:      -6.8     20.130     21.819
REMARK  Name = 45361600
REMARK  11 active torsions:
REMARK  status: ('A' for Active; 'I' for Inactive)
REMARK    1  A    between atoms: O_1  and  C_12
REMARK    2  A    between atoms: N_5  and  C_16
REMARK    3  A    between atoms: N_6  and  C_26
REMARK    4  A    between atoms: N_8  and  C_27
REMARK    5  A    between atoms: C_9  and  C_19
REMARK    6  A    between atoms: C_11  and  C_21
REMARK    7  A    between atoms: C_15  and  C_20
REMARK    8  A    between atoms: C_20  and  C_22
REMARK    9  A    between atoms: C_20  and  C_23
REMARK   10  A    between atoms: C_24  and  C_25
REMARK   11  A    between atoms: C_26  and  C_27
REMARK                            x       y       z     vdW  Elec       q    Type
REMARK                         _______ _______ _______ _____ _____    ______ ____
ROOT
ATOM      9  C   UNL     1      -3.245 -11.306  11.763  0.00  0.00    -0.027 C 
ATOM     10  C   UNL     1      -4.578 -10.868  12.458  0.00  0.00    +0.028 C 
ATOM     11  C   UNL     1      -5.407  -9.915  11.525  0.00  0.00    +0.012 C 
ATOM     12  C   UNL     1      -4.315 -10.334  13.895  0.00  0.00    +0.122 C 
ATOM     13  C   UNL     1      -2.509 -12.330  12.658  0.00  0.00    +0.007 C 
ATOM     14  C   UNL     1      -3.580 -12.004  10.425  0.00  0.00    +0.009 C 
ATOM     15  C   UNL     1      -3.487 -11.320  14.753  0.00  0.00    +0.029 C 
ATOM     16  C   UNL     1      -5.674 -10.599  10.155  0.00  0.00    +0.076 C 
ATOM     17  C   UNL     1      -2.215 -11.797  14.054  0.00  0.00    +0.007 C 
ATOM     18  C   UNL     1      -4.409 -11.137   9.489  0.00  0.00    +0.023 C 
ATOM     19  C   UNL     1      -2.297 -10.111  11.490  0.00  0.00    +0.011 C 
ATOM     21  C   UNL     1      -6.746  -9.467  12.136  0.00  0.00    +0.010 C 
ENDROOT
BRANCH  16   5
ATOM      3  O   UNL     1      -7.640 -11.316   8.189  0.00  0.00    -0.269 OA
ATOM      5  N   UNL     1      -6.336  -9.705   9.229  0.00  0.00    -0.307 N 
ATOM     24  C   UNL     1      -7.275 -10.150   8.314  0.00  0.00    +0.263 C 
ATOM     36  H   UNL     1      -6.056  -8.729   9.216  0.00  0.00    +0.149 HD
BRANCH  24  25
ATOM      7  N   UNL     1      -8.215  -9.538   6.188  0.00  0.00    -0.250 NA
ATOM     25  C   UNL     1      -7.843  -9.112   7.415  0.00  0.00    +0.125 A 
ATOM     28  C   UNL     1      -7.963  -7.802   7.852  0.00  0.00    +0.033 A 
ATOM     29  C   UNL     1      -8.501  -6.870   6.971  0.00  0.00    +0.004 A 
ATOM     32  C   UNL     1      -8.735  -8.603   5.360  0.00  0.00    +0.111 A 
ATOM     33  C   UNL     1      -8.897  -7.270   5.700  0.00  0.00    +0.020 A 
ENDBRANCH  24  25
ENDBRANCH  16   5
BRANCH  12   1
ATOM      1  O   UNL     1      -5.560 -10.151  14.571  0.00  0.00    -0.391 OA
ATOM     37  H   UNL     1      -5.484 -10.546  15.456  0.00  0.00    +0.210 HD
ENDBRANCH  12   1
BRANCH  15  20
ATOM     20  C   UNL     1      -3.128 -10.722  16.119  0.00  0.00    +0.077 C 
ATOM     22  C   UNL     1      -1.615 -10.710  16.306  0.00  0.00    +0.017 C 
BRANCH  20  23
ATOM      2  O   UNL     1      -3.425 -11.500  18.393  0.00  0.00    -0.276 OA
ATOM      6  N   UNL     1      -4.921 -12.217  16.772  0.00  0.00    -0.314 N 
ATOM     23  C   UNL     1      -3.820 -11.508  17.229  0.00  0.00    +0.216 C 
ATOM     38  H   UNL     1      -5.163 -12.182  15.786  0.00  0.00    +0.149 HD
BRANCH   6  26
ATOM     26  C   UNL     1      -5.736 -13.038  17.636  0.00  0.00    +0.119 C 
BRANCH  26  27
ATOM     27  C   UNL     1      -6.957 -12.275  18.129  0.00  0.00    +0.103 C 
BRANCH  27   8
ATOM      4  O   UNL     1      -9.341  -9.606  15.936  0.00  0.00    -0.377 OA
ATOM      8  N   UNL     1      -7.394 -11.312  17.120  0.00  0.00    -0.297 NA
ATOM     30  C   UNL     1      -7.787 -10.042  17.747  0.00  0.00    +0.112 C 
ATOM     31  C   UNL     1      -8.511 -11.851  16.332  0.00  0.00    +0.112 C 
ATOM     34  C   UNL     1      -8.251  -9.058  16.678  0.00  0.00    +0.175 C 
ATOM     35  C   UNL     1      -8.957 -10.824  15.295  0.00  0.00    +0.175 C 
ENDBRANCH  27   8
ENDBRANCH  26  27
ENDBRANCH   6  26
ENDBRANCH  20  23
ENDBRANCH  15  20
TORSDOF 8
ENDMDL
MODEL 6
REMARK VINA RESULT:      -6.7     27.799     32.022
REMARK  Name = 45361600
REMARK  11 active torsions:
REMARK  status: ('A' for Active; 'I' for Inactive)
REMARK    1  A    between atoms: O_1  and  C_12
REMARK    2  A    between atoms: N_5  and  C_16
REMARK    3  A    between atoms: N_6  and  C_26
REMARK    4  A    between atoms: N_8  and  C_27
REMARK    5  A    between atoms: C_9  and  C_19
REMARK    6  A    between atoms: C_11  and  C_21
REMARK    7  A    between atoms: C_15  and  C_20
REMARK    8  A    between atoms: C_20  and  C_22
REMARK    9  A    between atoms: C_20  and  C_23
REMARK   10  A    between atoms: C_24  and  C_25
REMARK   11  A    between atoms: C_26  and  C_27
REMARK                            x       y       z     vdW  Elec       q    Type
REMARK                         _______ _______ _______ _____ _____    ______ ____
ROOT
ATOM      9  C   UNL     1      14.001   7.666  20.913  0.00  0.00    -0.027 C 
ATOM     10  C   UNL     1      14.907   8.633  21.748  0.00  0.00    +0.028 C 
ATOM     11  C   UNL     1      14.259  10.061  21.842  0.00  0.00    +0.012 C 
ATOM     12  C   UNL     1      16.379   8.599  21.246  0.00  0.00    +0.122 C 
ATOM     13  C   UNL     1      14.609   6.244  20.935  0.00  0.00    +0.007 C 
ATOM     14  C   UNL     1      12.604   7.592  21.571  0.00  0.00    +0.009 C 
ATOM     15  C   UNL     1      16.948   7.162  21.171  0.00  0.00    +0.029 C 
ATOM     16  C   UNL     1      12.826   9.965  22.436  0.00  0.00    +0.076 C 
ATOM     17  C   UNL     1      16.037   6.200  20.409  0.00  0.00    +0.007 C 
ATOM     18  C   UNL     1      11.938   8.952  21.716  0.00  0.00    +0.023 C 
ATOM     19  C   UNL     1      13.847   8.120  19.440  0.00  0.00    +0.011 C 
ATOM     21  C   UNL     1      15.085  11.058  22.674  0.00  0.00    +0.010 C 
ENDROOT
BRANCH  16   5
ATOM      3  O   UNL     1      11.195  11.057  24.532  0.00  0.00    -0.269 OA
ATOM      5  N   UNL     1      12.156  11.249  22.430  0.00  0.00    -0.307 N 
ATOM     24  C   UNL     1      11.388  11.688  23.495  0.00  0.00    +0.263 C 
ATOM     36  H   UNL     1      12.208  11.817  21.589  0.00  0.00    +0.149 HD
BRANCH  24  25
ATOM      7  N   UNL     1      10.543  13.408  22.045  0.00  0.00    -0.250 NA
ATOM     25  C   UNL     1      10.745  13.016  23.323  0.00  0.00    +0.125 A 
ATOM     28  C   UNL     1      10.393  13.769  24.431  0.00  0.00    +0.033 A 
ATOM     29  C   UNL     1       9.793  15.005  24.214  0.00  0.00    +0.004 A 
ATOM     32  C   UNL     1       9.956  14.614  21.874  0.00  0.00    +0.111 A 
ATOM     33  C   UNL     1       9.567  15.442  22.914  0.00  0.00    +0.020 A 
ENDBRANCH  24  25
ENDBRANCH  16   5
BRANCH  12   1
ATOM      1  O   UNL     1      17.210   9.319  22.158  0.00  0.00    -0.391 OA
ATOM     37  H   UNL     1      17.557  10.101  21.697  0.00  0.00    +0.210 HD
ENDBRANCH  12   1
BRANCH  15  20
ATOM     20  C   UNL     1      18.351   7.138  20.554  0.00  0.00    +0.077 C 
ATOM     22  C   UNL     1      18.406   6.127  19.414  0.00  0.00    +0.017 C 
BRANCH  20  23
ATOM      2  O   UNL     1      19.414   7.398  22.714  0.00  0.00    -0.276 OA
ATOM      6  N   UNL     1      20.272   5.828  21.238  0.00  0.00    -0.314 N 
ATOM     23  C   UNL     1      19.387   6.821  21.629  0.00  0.00    +0.216 C 
ATOM     38  H   UNL     1      20.188   5.420  20.312  0.00  0.00    +0.149 HD
BRANCH   6  26
ATOM     26  C   UNL     1      21.343   5.358  22.086  0.00  0.00    +0.119 C 
BRANCH  26  27
ATOM     27  C   UNL     1      22.701   5.766  21.534  0.00  0.00    +0.103 C 
BRANCH  27   8
ATOM      4  O   UNL     1      24.361   2.193  20.089  0.00  0.00    -0.377 OA
ATOM      8  N   UNL     1      23.563   4.595  21.390  0.00  0.00    -0.297 NA
ATOM     30  C   UNL     1      24.261   4.616  20.097  0.00  0.00    +0.112 C 
ATOM     31  C   UNL     1      22.787   3.355  21.523  0.00  0.00    +0.112 C 
ATOM     34  C   UNL     1      25.145   3.380  19.964  0.00  0.00    +0.175 C 
ATOM     35  C   UNL     1      23.706   2.148  21.358  0.00  0.00    +0.175 C 
ENDBRANCH  27   8
ENDBRANCH  26  27
ENDBRANCH   6  26
ENDBRANCH  20  23
ENDBRANCH  15  20
TORSDOF 8
ENDMDL
MODEL 7
REMARK VINA RESULT:      -6.6     27.736     32.393
REMARK  Name = 45361600
REMARK  11 active torsions:
REMARK  status: ('A' for Active; 'I' for Inactive)
REMARK    1  A    between atoms: O_1  and  C_12
REMARK    2  A    between atoms: N_5  and  C_16
REMARK    3  A    between atoms: N_6  and  C_26
REMARK    4  A    between atoms: N_8  and  C_27
REMARK    5  A    between atoms: C_9  and  C_19
REMARK    6  A    between atoms: C_11  and  C_21
REMARK    7  A    between atoms: C_15  and  C_20
REMARK    8  A    between atoms: C_20  and  C_22
REMARK    9  A    between atoms: C_20  and  C_23
REMARK   10  A    between atoms: C_24  and  C_25
REMARK   11  A    between atoms: C_26  and  C_27
REMARK                            x       y       z     vdW  Elec       q    Type
REMARK                         _______ _______ _______ _____ _____    ______ ____
ROOT
ATOM      9  C   UNL     1       9.497   6.100   6.065  0.00  0.00    -0.027 C 
ATOM     10  C   UNL     1      10.437   7.274   5.629  0.00  0.00    +0.028 C 
ATOM     11  C   UNL     1       9.888   8.651   6.149  0.00  0.00    +0.012 C 
ATOM     12  C   UNL     1      10.749   7.211   4.106  0.00  0.00    +0.122 C 
ATOM     13  C   UNL     1      10.124   4.752   5.636  0.00  0.00    +0.007 C 
ATOM     14  C   UNL     1       9.378   6.096   7.606  0.00  0.00    +0.009 C 
ATOM     15  C   UNL     1      11.278   5.826   3.665  0.00  0.00    +0.029 C 
ATOM     16  C   UNL     1       9.701   8.609   7.692  0.00  0.00    +0.076 C 
ATOM     17  C   UNL     1      10.395   4.673   4.140  0.00  0.00    +0.007 C 
ATOM     18  C   UNL     1       8.876   7.416   8.171  0.00  0.00    +0.023 C 
ATOM     19  C   UNL     1       8.082   6.211   5.444  0.00  0.00    +0.011 C 
ATOM     21  C   UNL     1      10.779   9.849   5.780  0.00  0.00    +0.010 C 
ENDROOT
BRANCH  16   5
ATOM      3  O   UNL     1      10.967  10.649   9.267  0.00  0.00    -0.269 OA
ATOM      5  N   UNL     1       9.087   9.822   8.191  0.00  0.00    -0.307 N 
ATOM     24  C   UNL     1       9.786  10.748   8.946  0.00  0.00    +0.263 C 
ATOM     36  H   UNL     1       8.095   9.964   8.026  0.00  0.00    +0.149 HD
BRANCH  24  25
ATOM      7  N   UNL     1       8.637  11.915  10.705  0.00  0.00    -0.250 NA
ATOM     25  C   UNL     1       9.005  11.927   9.405  0.00  0.00    +0.125 A 
ATOM     28  C   UNL     1       8.699  12.948   8.520  0.00  0.00    +0.033 A 
ATOM     29  C   UNL     1       7.967  14.028   9.001  0.00  0.00    +0.004 A 
ATOM     32  C   UNL     1       7.927  12.983  11.136  0.00  0.00    +0.111 A 
ATOM     33  C   UNL     1       7.570  14.053  10.333  0.00  0.00    +0.020 A 
ENDBRANCH  24  25
ENDBRANCH  16   5
BRANCH  12   1
ATOM      1  O   UNL     1      11.771   8.158   3.790  0.00  0.00    -0.391 OA
ATOM     37  H   UNL     1      11.462   9.038   4.064  0.00  0.00    +0.210 HD
ENDBRANCH  12   1
BRANCH  15  20
ATOM     20  C   UNL     1      11.455   5.744   2.144  0.00  0.00    +0.077 C 
ATOM     22  C   UNL     1      10.680   4.554   1.588  0.00  0.00    +0.017 C 
BRANCH  20  23
ATOM      2  O   UNL     1      13.430   4.675   1.239  0.00  0.00    -0.276 OA
ATOM      6  N   UNL     1      13.646   6.780   2.187  0.00  0.00    -0.314 N 
ATOM     23  C   UNL     1      12.939   5.652   1.799  0.00  0.00    +0.216 C 
ATOM     38  H   UNL     1      13.161   7.534   2.663  0.00  0.00    +0.149 HD
BRANCH   6  26
ATOM     26  C   UNL     1      15.066   6.926   1.968  0.00  0.00    +0.119 C 
BRANCH  26  27
ATOM     27  C   UNL     1      15.795   7.225   3.270  0.00  0.00    +0.103 C 
BRANCH  27   8
ATOM      4  O   UNL     1      14.460   9.540   6.507  0.00  0.00    -0.377 OA
ATOM      8  N   UNL     1      14.925   7.966   4.181  0.00  0.00    -0.297 NA
ATOM     30  C   UNL     1      15.316   9.381   4.243  0.00  0.00    +0.112 C 
ATOM     31  C   UNL     1      14.954   7.376   5.527  0.00  0.00    +0.112 C 
ATOM     34  C   UNL     1      14.403  10.130   5.207  0.00  0.00    +0.175 C 
ATOM     35  C   UNL     1      14.048   8.172   6.461  0.00  0.00    +0.175 C 
ENDBRANCH  27   8
ENDBRANCH  26  27
ENDBRANCH   6  26
ENDBRANCH  20  23
ENDBRANCH  15  20
TORSDOF 8
ENDMDL
MODEL 8
REMARK VINA RESULT:      -6.6     23.382     27.363
REMARK  Name = 45361600
REMARK  11 active torsions:
REMARK  status: ('A' for Active; 'I' for Inactive)
REMARK    1  A    between atoms: O_1  and  C_12
REMARK    2  A    between atoms: N_5  and  C_16
REMARK    3  A    between atoms: N_6  and  C_26
REMARK    4  A    between atoms: N_8  and  C_27
REMARK    5  A    between atoms: C_9  and  C_19
REMARK    6  A    between atoms: C_11  and  C_21
REMARK    7  A    between atoms: C_15  and  C_20
REMARK    8  A    between atoms: C_20  and  C_22
REMARK    9  A    between atoms: C_20  and  C_23
REMARK   10  A    between atoms: C_24  and  C_25
REMARK   11  A    between atoms: C_26  and  C_27
REMARK                            x       y       z     vdW  Elec       q    Type
REMARK                         _______ _______ _______ _____ _____    ______ ____
ROOT
ATOM      9  C   UNL     1      -5.786 -11.587   6.058  0.00  0.00    -0.027 C 
ATOM     10  C   UNL     1      -5.950 -10.126   6.595  0.00  0.00    +0.028 C 
ATOM     11  C   UNL     1      -5.848 -10.093   8.163  0.00  0.00    +0.012 C 
ATOM     12  C   UNL     1      -7.212  -9.443   5.994  0.00  0.00    +0.122 C 
ATOM     13  C   UNL     1      -5.778 -11.569   4.511  0.00  0.00    +0.007 C 
ATOM     14  C   UNL     1      -4.424 -12.147   6.530  0.00  0.00    +0.009 C 
ATOM     15  C   UNL     1      -7.249  -9.521   4.449  0.00  0.00    +0.029 C 
ATOM     16  C   UNL     1      -4.508 -10.727   8.629  0.00  0.00    +0.076 C 
ATOM     17  C   UNL     1      -7.029 -10.936   3.917  0.00  0.00    +0.007 C 
ATOM     18  C   UNL     1      -4.256 -12.115   8.042  0.00  0.00    +0.023 C 
ATOM     19  C   UNL     1      -6.919 -12.529   6.539  0.00  0.00    +0.011 C 
ATOM     21  C   UNL     1      -5.974  -8.681   8.759  0.00  0.00    +0.010 C 
ENDROOT
BRANCH  16   5
ATOM      3  O   UNL     1      -2.620  -9.394  10.334  0.00  0.00    -0.269 OA
ATOM      5  N   UNL     1      -4.431 -10.819  10.072  0.00  0.00    -0.307 N 
ATOM     24  C   UNL     1      -3.479 -10.133  10.808  0.00  0.00    +0.263 C 
ATOM     36  H   UNL     1      -5.064 -11.454  10.550  0.00  0.00    +0.149 HD
BRANCH  24  25
ATOM      7  N   UNL     1      -2.315 -10.396  12.894  0.00  0.00    -0.250 NA
ATOM     25  C   UNL     1      -3.517 -10.354  12.276  0.00  0.00    +0.125 A 
ATOM     28  C   UNL     1      -4.730 -10.504  12.928  0.00  0.00    +0.033 A 
ATOM     29  C   UNL     1      -4.709 -10.707  14.303  0.00  0.00    +0.004 A 
ATOM     32  C   UNL     1      -2.335 -10.595  14.231  0.00  0.00    +0.111 A 
ATOM     33  C   UNL     1      -3.493 -10.755  14.975  0.00  0.00    +0.020 A 
ENDBRANCH  24  25
ENDBRANCH  16   5
BRANCH  12   1
ATOM      1  O   UNL     1      -7.210  -8.055   6.333  0.00  0.00    -0.391 OA
ATOM     37  H   UNL     1      -8.007  -7.650   5.950  0.00  0.00    +0.210 HD
ENDBRANCH  12   1
BRANCH  15  20
ATOM     20  C   UNL     1      -8.559  -8.959   3.883  0.00  0.00    +0.077 C 
ATOM     22  C   UNL     1      -9.708  -9.922   4.163  0.00  0.00    +0.017 C 
BRANCH  20  23
ATOM      2  O   UNL     1      -7.473  -8.046   1.921  0.00  0.00    -0.276 OA
ATOM      6  N   UNL     1      -9.433  -9.254   1.642  0.00  0.00    -0.314 N 
ATOM     23  C   UNL     1      -8.408  -8.692   2.388  0.00  0.00    +0.216 C 
ATOM     38  H   UNL     1     -10.178  -9.756   2.115  0.00  0.00    +0.149 HD
BRANCH   6  26
ATOM     26  C   UNL     1      -9.509  -9.135   0.205  0.00  0.00    +0.119 C 
BRANCH  26  27
ATOM     27  C   UNL     1      -9.103 -10.434  -0.477  0.00  0.00    +0.103 C 
BRANCH  27   8
ATOM      4  O   UNL     1      -6.365  -9.553  -3.535  0.00  0.00    -0.377 OA
ATOM      8  N   UNL     1      -7.851 -10.252  -1.210  0.00  0.00    -0.297 NA
ATOM     30  C   UNL     1      -7.687  -8.852  -1.625  0.00  0.00    +0.112 C 
ATOM     31  C   UNL     1      -7.800 -11.135  -2.383  0.00  0.00    +0.112 C 
ATOM     34  C   UNL     1      -6.381  -8.690  -2.397  0.00  0.00    +0.175 C 
ATOM     35  C   UNL     1      -6.491 -10.920  -3.137  0.00  0.00    +0.175 C 
ENDBRANCH  27   8
ENDBRANCH  26  27
ENDBRANCH   6  26
ENDBRANCH  20  23
ENDBRANCH  15  20
TORSDOF 8
ENDMDL
MODEL 9
REMARK VINA RESULT:      -6.5     27.757     31.768
REMARK  Name = 45361600
REMARK  11 active torsions:
REMARK  status: ('A' for Active; 'I' for Inactive)
REMARK    1  A    between atoms: O_1  and  C_12
REMARK    2  A    between atoms: N_5  and  C_16
REMARK    3  A    between atoms: N_6  and  C_26
REMARK    4  A    between atoms: N_8  and  C_27
REMARK    5  A    between atoms: C_9  and  C_19
REMARK    6  A    between atoms: C_11  and  C_21
REMARK    7  A    between atoms: C_15  and  C_20
REMARK    8  A    between atoms: C_20  and  C_22
REMARK    9  A    between atoms: C_20  and  C_23
REMARK   10  A    between atoms: C_24  and  C_25
REMARK   11  A    between atoms: C_26  and  C_27
REMARK                            x       y       z     vdW  Elec       q    Type
REMARK                         _______ _______ _______ _____ _____    ______ ____
ROOT
ATOM      9  C   UNL     1      14.559   7.745  20.524  0.00  0.00    -0.027 C 
ATOM     10  C   UNL     1      15.248   8.686  21.569  0.00  0.00    +0.028 C 
ATOM     11  C   UNL     1      14.511  10.070  21.646  0.00  0.00    +0.012 C 
ATOM     12  C   UNL     1      16.785   8.759  21.332  0.00  0.00    +0.122 C 
ATOM     13  C   UNL     1      15.237   6.355  20.555  0.00  0.00    +0.007 C 
ATOM     14  C   UNL     1      13.076   7.555  20.920  0.00  0.00    +0.009 C 
ATOM     15  C   UNL     1      17.442   7.360  21.260  0.00  0.00    +0.029 C 
ATOM     16  C   UNL     1      13.005   9.862  21.970  0.00  0.00    +0.076 C 
ATOM     17  C   UNL     1      16.735   6.419  20.286  0.00  0.00    +0.007 C 
ATOM     18  C   UNL     1      12.315   8.867  21.038  0.00  0.00    +0.023 C 
ATOM     19  C   UNL     1      14.633   8.304  19.081  0.00  0.00    +0.011 C 
ATOM     21  C   UNL     1      15.121  11.037  22.675  0.00  0.00    +0.010 C 
ENDROOT
BRANCH  16   5
ATOM      3  O   UNL     1      11.514  11.035  24.125  0.00  0.00    -0.269 OA
ATOM      5  N   UNL     1      12.271  11.109  21.934  0.00  0.00    -0.307 N 
ATOM     24  C   UNL     1      11.579  11.593  23.032  0.00  0.00    +0.263 C 
ATOM     36  H   UNL     1      12.218  11.613  21.054  0.00  0.00    +0.149 HD
BRANCH  24  25
ATOM      7  N   UNL     1      10.242  13.383  23.918  0.00  0.00    -0.250 NA
ATOM     25  C   UNL     1      10.855  12.873  22.826  0.00  0.00    +0.125 A 
ATOM     28  C   UNL     1      10.835  13.469  21.575  0.00  0.00    +0.033 A 
ATOM     29  C   UNL     1      10.143  14.667  21.436  0.00  0.00    +0.004 A 
ATOM     32  C   UNL     1       9.580  14.549  23.744  0.00  0.00    +0.111 A 
ATOM     33  C   UNL     1       9.501  15.224  22.536  0.00  0.00    +0.020 A 
ENDBRANCH  24  25
ENDBRANCH  16   5
BRANCH  12   1
ATOM      1  O   UNL     1      17.402   9.444  22.423  0.00  0.00    -0.391 OA
ATOM     37  H   UNL     1      16.759  10.077  22.785  0.00  0.00    +0.210 HD
ENDBRANCH  12   1
BRANCH  15  20
ATOM     20  C   UNL     1      18.929   7.450  20.898  0.00  0.00    +0.077 C 
ATOM     22  C   UNL     1      19.425   6.105  20.379  0.00  0.00    +0.017 C 
BRANCH  20  23
ATOM      2  O   UNL     1      20.322   8.986  22.149  0.00  0.00    -0.276 OA
ATOM      6  N   UNL     1      19.716   6.980  23.142  0.00  0.00    -0.314 N 
ATOM     23  C   UNL     1      19.733   7.908  22.112  0.00  0.00    +0.216 C 
ATOM     38  H   UNL     1      19.218   6.104  23.017  0.00  0.00    +0.149 HD
BRANCH   6  26
ATOM     26  C   UNL     1      20.407   7.188  24.393  0.00  0.00    +0.119 C 
BRANCH  26  27
ATOM     27  C   UNL     1      21.861   6.750  24.299  0.00  0.00    +0.103 C 
BRANCH  27   8
ATOM      4  O   UNL     1      23.426   2.856  24.321  0.00  0.00    -0.377 OA
ATOM      8  N   UNL     1      21.959   5.293  24.378  0.00  0.00    -0.297 NA
ATOM     30  C   UNL     1      22.819   4.888  25.498  0.00  0.00    +0.112 C 
ATOM     31  C   UNL     1      22.473   4.735  23.120  0.00  0.00    +0.112 C 
ATOM     34  C   UNL     1      22.916   3.367  25.553  0.00  0.00    +0.175 C 
ATOM     35  C   UNL     1      22.576   3.217  23.231  0.00  0.00    +0.175 C 
ENDBRANCH  27   8
ENDBRANCH  26  27
ENDBRANCH   6  26
ENDBRANCH  20  23
ENDBRANCH  15  20
TORSDOF 8
ENDMDL
MODEL 10
REMARK VINA RESULT:      -6.4     27.926     33.380
REMARK  Name = 45361600
REMARK  11 active torsions:
REMARK  status: ('A' for Active; 'I' for Inactive)
REMARK    1  A    between atoms: O_1  and  C_12
REMARK    2  A    between atoms: N_5  and  C_16
REMARK    3  A    between atoms: N_6  and  C_26
REMARK    4  A    between atoms: N_8  and  C_27
REMARK    5  A    between atoms: C_9  and  C_19
REMARK    6  A    between atoms: C_11  and  C_21
REMARK    7  A    between atoms: C_15  and  C_20
REMARK    8  A    between atoms: C_20  and  C_22
REMARK    9  A    between atoms: C_20  and  C_23
REMARK   10  A    between atoms: C_24  and  C_25
REMARK   11  A    between atoms: C_26  and  C_27
REMARK                            x       y       z     vdW  Elec       q    Type
REMARK                         _______ _______ _______ _____ _____    ______ ____
ROOT
ATOM      9  C   UNL     1       9.525   6.262   5.975  0.00  0.00    -0.027 C 
ATOM     10  C   UNL     1      10.467   7.435   5.544  0.00  0.00    +0.028 C 
ATOM     11  C   UNL     1       9.978   8.797   6.156  0.00  0.00    +0.012 C 
ATOM     12  C   UNL     1      10.695   7.439   4.004  0.00  0.00    +0.122 C 
ATOM     13  C   UNL     1      10.096   4.923   5.450  0.00  0.00    +0.007 C 
ATOM     14  C   UNL     1       9.488   6.186   7.518  0.00  0.00    +0.009 C 
ATOM     15  C   UNL     1      11.167   6.065   3.471  0.00  0.00    +0.029 C 
ATOM     16  C   UNL     1       9.874   8.686   7.703  0.00  0.00    +0.076 C 
ATOM     17  C   UNL     1      10.285   4.909   3.939  0.00  0.00    +0.007 C 
ATOM     18  C   UNL     1       9.048   7.488   8.171  0.00  0.00    +0.023 C 
ATOM     19  C   UNL     1       8.081   6.431   5.438  0.00  0.00    +0.011 C 
ATOM     21  C   UNL     1      10.876   9.992   5.795  0.00  0.00    +0.010 C 
ENDROOT
BRANCH  16   5
ATOM      3  O   UNL     1      11.296  10.687   9.191  0.00  0.00    -0.269 OA
ATOM      5  N   UNL     1       9.315   9.886   8.290  0.00  0.00    -0.307 N 
ATOM     24  C   UNL     1      10.089  10.794   8.994  0.00  0.00    +0.263 C 
ATOM     36  H   UNL     1       8.312  10.031   8.230  0.00  0.00    +0.149 HD
BRANCH  24  25
ATOM      7  N   UNL     1       9.481  13.116   8.866  0.00  0.00    -0.250 NA
ATOM     25  C   UNL     1       9.361  11.960   9.557  0.00  0.00    +0.125 A 
ATOM     28  C   UNL     1       8.620  11.825  10.720  0.00  0.00    +0.033 A 
ATOM     29  C   UNL     1       7.958  12.947  11.204  0.00  0.00    +0.004 A 
ATOM     32  C   UNL     1       8.822  14.185   9.367  0.00  0.00    +0.111 A 
ATOM     33  C   UNL     1       8.056  14.154  10.520  0.00  0.00    +0.020 A 
ENDBRANCH  24  25
ENDBRANCH  16   5
BRANCH  12   1
ATOM      1  O   UNL     1      11.720   8.378   3.677  0.00  0.00    -0.391 OA
ATOM     37  H   UNL     1      11.945   8.264   2.738  0.00  0.00    +0.210 HD
ENDBRANCH  12   1
BRANCH  15  20
ATOM     20  C   UNL     1      11.261   6.052   1.941  0.00  0.00    +0.077 C 
ATOM     22  C   UNL     1       9.883   6.278   1.328  0.00  0.00    +0.017 C 
BRANCH  20  23
ATOM      2  O   UNL     1      11.268   3.947   0.744  0.00  0.00    -0.276 OA
ATOM      6  N   UNL     1      13.157   4.543   1.949  0.00  0.00    -0.314 N 
ATOM     23  C   UNL     1      11.871   4.735   1.469  0.00  0.00    +0.216 C 
ATOM     38  H   UNL     1      13.572   5.239   2.561  0.00  0.00    +0.149 HD
BRANCH   6  26
ATOM     26  C   UNL     1      13.940   3.369   1.641  0.00  0.00    +0.119 C 
BRANCH  26  27
ATOM     27  C   UNL     1      15.300   3.747   1.073  0.00  0.00    +0.103 C 
BRANCH  27   8
ATOM      4  O   UNL     1      15.443   4.840  -2.977  0.00  0.00    -0.377 OA
ATOM      8  N   UNL     1      15.139   4.505  -0.167  0.00  0.00    -0.297 NA
ATOM     30  C   UNL     1      14.302   3.769  -1.124  0.00  0.00    +0.112 C 
ATOM     31  C   UNL     1      16.445   4.805  -0.769  0.00  0.00    +0.112 C 
ATOM     34  C   UNL     1      14.158   4.572  -2.413  0.00  0.00    +0.175 C 
ATOM     35  C   UNL     1      16.252   5.585  -2.065  0.00  0.00    +0.175 C 
ENDBRANCH  27   8
ENDBRANCH  26  27
ENDBRANCH   6  26
ENDBRANCH  20  23
ENDBRANCH  15  20
TORSDOF 8
ENDMDL
