MODEL 1
REMARK VINA RESULT:      -6.4      0.000      0.000
REMARK  Name = 75536975
REMARK  4 active torsions:
REMARK  status: ('A' for Active; 'I' for Inactive)
REMARK    1  A    between atoms: S_1  and  N_6
REMARK    2  A    between atoms: S_1  and  C_16
REMARK    3  A    between atoms: N_7  and  C_15
REMARK    4  A    between atoms: C_15  and  C_17
REMARK                            x       y       z     vdW  Elec       q    Type
REMARK                         _______ _______ _______ _____ _____    ______ ____
ROOT
ATOM      2  O   UNL     1      12.342   6.814  18.935  0.00  0.00    -0.252 OA
ATOM      5  N   UNL     1      12.938   8.847  17.918  0.00  0.00    -0.278 N 
ATOM      6  N   UNL     1      13.486  10.651  15.853  0.00  0.00    -0.178 NA
ATOM      7  N   UNL     1      14.158   8.130  19.661  0.00  0.00    -0.279 N 
ATOM      9  C   UNL     1      13.877   9.922  18.170  0.00  0.00    +0.111 C 
ATOM     10  C   UNL     1      14.548  10.360  16.873  0.00  0.00    +0.133 C 
ATOM     11  C   UNL     1      14.828   9.338  19.212  0.00  0.00    +0.133 C 
ATOM     12  C   UNL     1      11.955   8.986  16.860  0.00  0.00    +0.127 C 
ATOM     13  C   UNL     1      12.635   9.446  15.574  0.00  0.00    +0.128 C 
ATOM     14  C   UNL     1      13.053   7.807  18.850  0.00  0.00    +0.305 C 
ENDROOT
BRANCH   6   1
ATOM      1  S   UNL     1      14.022  11.502  14.465  0.00  0.00    +0.029 S 
ATOM      3  O   UNL     1      12.888  11.740  13.601  0.00  0.00    -0.158 OA
ATOM      4  O   UNL     1      15.232  10.878  13.979  0.00  0.00    -0.158 OA
ATOM     16  C   UNL     1      14.464  13.040  15.229  0.00  0.00    +0.215 C 
ENDBRANCH   6   1
BRANCH   7  15
ATOM     15  C   UNL     1      14.683   7.319  20.738  0.00  0.00    +0.146 C 
BRANCH  15  17
ATOM      8  N   UNL     1      17.567   5.676  18.925  0.00  0.00    -0.263 NA
ATOM     17  C   UNL     1      16.065   6.815  20.440  0.00  0.00    -0.012 A 
ATOM     18  C   UNL     1      17.104   6.994  21.347  0.00  0.00    +0.008 A 
ATOM     19  C   UNL     1      16.346   6.155  19.254  0.00  0.00    +0.115 A 
ATOM     20  C   UNL     1      18.375   6.516  21.044  0.00  0.00    +0.020 A 
ATOM     21  C   UNL     1      18.552   5.869  19.831  0.00  0.00    +0.111 A 
ENDBRANCH  15  17
ENDBRANCH   7  15
TORSDOF 3
ENDMDL
MODEL 2
REMARK VINA RESULT:      -6.2      4.469      7.518
REMARK  Name = 75536975
REMARK  4 active torsions:
REMARK  status: ('A' for Active; 'I' for Inactive)
REMARK    1  A    between atoms: S_1  and  N_6
REMARK    2  A    between atoms: S_1  and  C_16
REMARK    3  A    between atoms: N_7  and  C_15
REMARK    4  A    between atoms: C_15  and  C_17
REMARK                            x       y       z     vdW  Elec       q    Type
REMARK                         _______ _______ _______ _____ _____    ______ ____
ROOT
ATOM      2  O   UNL     1      16.240  10.050  20.655  0.00  0.00    -0.252 OA
ATOM      5  N   UNL     1      17.439   8.049  20.934  0.00  0.00    -0.278 N 
ATOM      6  N   UNL     1      19.661   6.361  21.113  0.00  0.00    -0.178 NA
ATOM      7  N   UNL     1      15.631   8.030  19.602  0.00  0.00    -0.279 N 
ATOM      9  C   UNL     1      17.284   6.659  20.552  0.00  0.00    +0.111 C 
ATOM     10  C   UNL     1      18.613   6.085  20.075  0.00  0.00    +0.133 C 
ATOM     11  C   UNL     1      16.188   6.693  19.490  0.00  0.00    +0.133 C 
ATOM     12  C   UNL     1      18.510   8.430  21.835  0.00  0.00    +0.127 C 
ATOM     13  C   UNL     1      19.830   7.832  21.359  0.00  0.00    +0.128 C 
ATOM     14  C   UNL     1      16.414   8.860  20.429  0.00  0.00    +0.305 C 
ENDROOT
BRANCH   6   1
ATOM      1  S   UNL     1      21.120   5.480  20.929  0.00  0.00    +0.029 S 
ATOM      3  O   UNL     1      22.075   6.308  20.228  0.00  0.00    -0.158 OA
ATOM      4  O   UNL     1      20.799   4.142  20.484  0.00  0.00    -0.158 OA
ATOM     16  C   UNL     1      21.613   5.391  22.630  0.00  0.00    +0.215 C 
ENDBRANCH   6   1
BRANCH   7  15
ATOM     15  C   UNL     1      14.481   8.448  18.831  0.00  0.00    +0.146 C 
BRANCH  15  17
ATOM      8  N   UNL     1      11.499   6.774  20.447  0.00  0.00    -0.263 NA
ATOM     17  C   UNL     1      13.198   8.266  19.590  0.00  0.00    -0.012 A 
ATOM     18  C   UNL     1      12.522   9.356  20.127  0.00  0.00    +0.008 A 
ATOM     19  C   UNL     1      12.650   7.007  19.776  0.00  0.00    +0.115 A 
ATOM     20  C   UNL     1      11.336   9.157  20.824  0.00  0.00    +0.020 A 
ATOM     21  C   UNL     1      10.870   7.858  20.955  0.00  0.00    +0.111 A 
ENDBRANCH  15  17
ENDBRANCH   7  15
TORSDOF 3
ENDMDL
MODEL 3
REMARK VINA RESULT:      -5.8     31.031     33.138
REMARK  Name = 75536975
REMARK  4 active torsions:
REMARK  status: ('A' for Active; 'I' for Inactive)
REMARK    1  A    between atoms: S_1  and  N_6
REMARK    2  A    between atoms: S_1  and  C_16
REMARK    3  A    between atoms: N_7  and  C_15
REMARK    4  A    between atoms: C_15  and  C_17
REMARK                            x       y       z     vdW  Elec       q    Type
REMARK                         _______ _______ _______ _____ _____    ______ ____
ROOT
ATOM      2  O   UNL     1     -14.217   5.065  35.163  0.00  0.00    -0.252 OA
ATOM      5  N   UNL     1     -15.082   3.810  33.375  0.00  0.00    -0.278 N 
ATOM      6  N   UNL     1     -15.176   1.833  31.400  0.00  0.00    -0.178 NA
ATOM      7  N   UNL     1     -15.239   6.049  33.280  0.00  0.00    -0.279 N 
ATOM      9  C   UNL     1     -15.849   4.071  32.172  0.00  0.00    +0.111 C 
ATOM     10  C   UNL     1     -15.287   3.275  30.999  0.00  0.00    +0.133 C 
ATOM     11  C   UNL     1     -15.768   5.587  32.009  0.00  0.00    +0.133 C 
ATOM     12  C   UNL     1     -14.813   2.442  33.772  0.00  0.00    +0.127 C 
ATOM     13  C   UNL     1     -14.272   1.651  32.584  0.00  0.00    +0.128 C 
ATOM     14  C   UNL     1     -14.778   4.983  34.079  0.00  0.00    +0.305 C 
ENDROOT
BRANCH   6   1
ATOM      1  S   UNL     1     -14.917   0.735  30.109  0.00  0.00    +0.029 S 
ATOM      3  O   UNL     1     -15.707  -0.453  30.346  0.00  0.00    -0.158 OA
ATOM      4  O   UNL     1     -13.499   0.666  29.839  0.00  0.00    -0.158 OA
ATOM     16  C   UNL     1     -15.684   1.653  28.799  0.00  0.00    +0.215 C 
ENDBRANCH   6   1
BRANCH   7  15
ATOM     15  C   UNL     1     -15.100   7.456  33.586  0.00  0.00    +0.146 C 
BRANCH  15  17
ATOM      8  N   UNL     1     -13.522   9.663  30.951  0.00  0.00    -0.263 NA
ATOM     17  C   UNL     1     -14.057   8.117  32.732  0.00  0.00    -0.012 A 
ATOM     18  C   UNL     1     -12.707   7.826  32.895  0.00  0.00    +0.008 A 
ATOM     19  C   UNL     1     -14.410   9.034  31.754  0.00  0.00    +0.115 A 
ATOM     20  C   UNL     1     -11.764   8.453  32.088  0.00  0.00    +0.020 A 
ATOM     21  C   UNL     1     -12.219   9.355  31.139  0.00  0.00    +0.111 A 
ENDBRANCH  15  17
ENDBRANCH   7  15
TORSDOF 3
ENDMDL
MODEL 4
REMARK VINA RESULT:      -5.7      3.348      5.198
REMARK  Name = 75536975
REMARK  4 active torsions:
REMARK  status: ('A' for Active; 'I' for Inactive)
REMARK    1  A    between atoms: S_1  and  N_6
REMARK    2  A    between atoms: S_1  and  C_16
REMARK    3  A    between atoms: N_7  and  C_15
REMARK    4  A    between atoms: C_15  and  C_17
REMARK                            x       y       z     vdW  Elec       q    Type
REMARK                         _______ _______ _______ _____ _____    ______ ____
ROOT
ATOM      2  O   UNL     1      18.010   9.677  21.687  0.00  0.00    -0.252 OA
ATOM      5  N   UNL     1      16.460   8.499  20.371  0.00  0.00    -0.278 N 
ATOM      6  N   UNL     1      13.974   7.775  19.316  0.00  0.00    -0.178 NA
ATOM      7  N   UNL     1      18.036   7.330  21.464  0.00  0.00    -0.279 N 
ATOM      9  C   UNL     1      16.268   7.130  19.932  0.00  0.00    +0.111 C 
ATOM     10  C   UNL     1      14.797   6.742  20.029  0.00  0.00    +0.133 C 
ATOM     11  C   UNL     1      17.199   6.324  20.834  0.00  0.00    +0.133 C 
ATOM     12  C   UNL     1      15.621   9.550  19.831  0.00  0.00    +0.127 C 
ATOM     13  C   UNL     1      14.153   9.140  19.913  0.00  0.00    +0.128 C 
ATOM     14  C   UNL     1      17.560   8.635  21.229  0.00  0.00    +0.305 C 
ENDROOT
BRANCH   6   1
ATOM      1  S   UNL     1      12.351   7.324  19.001  0.00  0.00    +0.029 S 
ATOM      3  O   UNL     1      11.983   6.256  19.904  0.00  0.00    -0.158 OA
ATOM      4  O   UNL     1      12.172   7.207  17.571  0.00  0.00    -0.158 OA
ATOM     16  C   UNL     1      11.537   8.804  19.539  0.00  0.00    +0.215 C 
ENDBRANCH   6   1
BRANCH   7  15
ATOM     15  C   UNL     1      19.139   6.976  22.330  0.00  0.00    +0.146 C 
BRANCH  15  17
ATOM      8  N   UNL     1      21.960   5.202  20.541  0.00  0.00    -0.263 NA
ATOM     17  C   UNL     1      20.409   6.752  21.561  0.00  0.00    -0.012 A 
ATOM     18  C   UNL     1      21.203   7.821  21.162  0.00  0.00    +0.008 A 
ATOM     19  C   UNL     1      20.827   5.473  21.229  0.00  0.00    +0.115 A 
ATOM     20  C   UNL     1      22.374   7.583  20.451  0.00  0.00    +0.020 A 
ATOM     21  C   UNL     1      22.705   6.266  20.169  0.00  0.00    +0.111 A 
ENDBRANCH  15  17
ENDBRANCH   7  15
TORSDOF 3
ENDMDL
MODEL 5
REMARK VINA RESULT:      -5.6      5.665      6.751
REMARK  Name = 75536975
REMARK  4 active torsions:
REMARK  status: ('A' for Active; 'I' for Inactive)
REMARK    1  A    between atoms: S_1  and  N_6
REMARK    2  A    between atoms: S_1  and  C_16
REMARK    3  A    between atoms: N_7  and  C_15
REMARK    4  A    between atoms: C_15  and  C_17
REMARK                            x       y       z     vdW  Elec       q    Type
REMARK                         _______ _______ _______ _____ _____    ______ ____
ROOT
ATOM      2  O   UNL     1      10.548   8.410  22.866  0.00  0.00    -0.252 OA
ATOM      5  N   UNL     1      11.349  10.617  22.959  0.00  0.00    -0.278 N 
ATOM      6  N   UNL     1      11.371  13.344  23.575  0.00  0.00    -0.178 NA
ATOM      7  N   UNL     1      11.510   9.506  21.014  0.00  0.00    -0.279 N 
ATOM      9  C   UNL     1      12.076  11.517  22.085  0.00  0.00    +0.111 C 
ATOM     10  C   UNL     1      11.473  12.916  22.140  0.00  0.00    +0.133 C 
ATOM     11  C   UNL     1      11.996  10.842  20.718  0.00  0.00    +0.133 C 
ATOM     12  C   UNL     1      11.088  11.004  24.332  0.00  0.00    +0.127 C 
ATOM     13  C   UNL     1      10.505  12.413  24.374  0.00  0.00    +0.128 C 
ATOM     14  C   UNL     1      11.072   9.386  22.348  0.00  0.00    +0.305 C 
ENDROOT
BRANCH   6   1
ATOM      1  S   UNL     1      11.065  15.013  23.818  0.00  0.00    +0.029 S 
ATOM      3  O   UNL     1      12.153  15.576  24.585  0.00  0.00    -0.158 OA
ATOM      4  O   UNL     1       9.686  15.177  24.218  0.00  0.00    -0.158 OA
ATOM     16  C   UNL     1      11.223  15.576  22.144  0.00  0.00    +0.215 C 
ENDBRANCH   6   1
BRANCH   7  15
ATOM     15  C   UNL     1      11.387   8.492  19.990  0.00  0.00    +0.146 C 
BRANCH  15  17
ATOM      8  N   UNL     1      14.667   6.614  20.147  0.00  0.00    -0.263 NA
ATOM     17  C   UNL     1      12.722   7.937  19.584  0.00  0.00    -0.012 A 
ATOM     18  C   UNL     1      13.260   8.207  18.331  0.00  0.00    +0.008 A 
ATOM     19  C   UNL     1      13.459   7.143  20.449  0.00  0.00    +0.115 A 
ATOM     20  C   UNL     1      14.499   7.681  17.983  0.00  0.00    +0.020 A 
ATOM     21  C   UNL     1      15.157   6.897  18.919  0.00  0.00    +0.111 A 
ENDBRANCH  15  17
ENDBRANCH   7  15
TORSDOF 3
ENDMDL
MODEL 6
REMARK VINA RESULT:      -5.5     27.146     28.587
REMARK  Name = 75536975
REMARK  4 active torsions:
REMARK  status: ('A' for Active; 'I' for Inactive)
REMARK    1  A    between atoms: S_1  and  N_6
REMARK    2  A    between atoms: S_1  and  C_16
REMARK    3  A    between atoms: N_7  and  C_15
REMARK    4  A    between atoms: C_15  and  C_17
REMARK                            x       y       z     vdW  Elec       q    Type
REMARK                         _______ _______ _______ _____ _____    ______ ____
ROOT
ATOM      2  O   UNL     1      -3.546 -14.051  14.111  0.00  0.00    -0.252 OA
ATOM      5  N   UNL     1      -4.102 -12.630  15.897  0.00  0.00    -0.278 N 
ATOM      6  N   UNL     1      -5.710 -11.381  17.814  0.00  0.00    -0.178 NA
ATOM      7  N   UNL     1      -2.801 -11.819  14.256  0.00  0.00    -0.279 N 
ATOM      9  C   UNL     1      -3.736 -11.301  16.347  0.00  0.00    +0.111 C 
ATOM     10  C   UNL     1      -4.970 -10.538  16.817  0.00  0.00    +0.133 C 
ATOM     11  C   UNL     1      -3.032 -10.688  15.138  0.00  0.00    +0.133 C 
ATOM     12  C   UNL     1      -4.928 -13.471  16.742  0.00  0.00    +0.127 C 
ATOM     13  C   UNL     1      -6.147 -12.690  17.223  0.00  0.00    +0.128 C 
ATOM     14  C   UNL     1      -3.488 -12.972  14.685  0.00  0.00    +0.305 C 
ENDROOT
BRANCH   6   1
ATOM      1  S   UNL     1      -6.907 -10.555  18.721  0.00  0.00    +0.029 S 
ATOM      3  O   UNL     1      -7.475  -9.512  17.897  0.00  0.00    -0.158 OA
ATOM      4  O   UNL     1      -6.381 -10.282  20.040  0.00  0.00    -0.158 OA
ATOM     16  C   UNL     1      -8.102 -11.857  18.864  0.00  0.00    +0.215 C 
ENDBRANCH   6   1
BRANCH   7  15
ATOM     15  C   UNL     1      -2.055 -11.688  13.024  0.00  0.00    +0.146 C 
BRANCH  15  17
ATOM      8  N   UNL     1      -4.905 -10.757  10.718  0.00  0.00    -0.263 NA
ATOM     17  C   UNL     1      -2.843 -10.976  11.962  0.00  0.00    -0.012 A 
ATOM     18  C   UNL     1      -2.291  -9.919  11.247  0.00  0.00    +0.008 A 
ATOM     19  C   UNL     1      -4.142 -11.354  11.662  0.00  0.00    +0.115 A 
ATOM     20  C   UNL     1      -3.044  -9.279  10.269  0.00  0.00    +0.020 A 
ATOM     21  C   UNL     1      -4.335  -9.733  10.044  0.00  0.00    +0.111 A 
ENDBRANCH  15  17
ENDBRANCH   7  15
TORSDOF 3
ENDMDL
MODEL 7
REMARK VINA RESULT:      -5.5      3.941      6.773
REMARK  Name = 75536975
REMARK  4 active torsions:
REMARK  status: ('A' for Active; 'I' for Inactive)
REMARK    1  A    between atoms: S_1  and  N_6
REMARK    2  A    between atoms: S_1  and  C_16
REMARK    3  A    between atoms: N_7  and  C_15
REMARK    4  A    between atoms: C_15  and  C_17
REMARK                            x       y       z     vdW  Elec       q    Type
REMARK                         _______ _______ _______ _____ _____    ______ ____
ROOT
ATOM      2  O   UNL     1      13.534   9.667  20.459  0.00  0.00    -0.252 OA
ATOM      5  N   UNL     1      15.482   8.612  21.242  0.00  0.00    -0.278 N 
ATOM      6  N   UNL     1      18.202   8.263  21.788  0.00  0.00    -0.178 NA
ATOM      7  N   UNL     1      14.008   7.391  20.066  0.00  0.00    -0.279 N 
ATOM      9  C   UNL     1      16.011   7.262  21.286  0.00  0.00    +0.111 C 
ATOM     10  C   UNL     1      17.493   7.258  20.928  0.00  0.00    +0.133 C 
ATOM     11  C   UNL     1      15.120   6.490  20.316  0.00  0.00    +0.133 C 
ATOM     12  C   UNL     1      16.176   9.677  21.940  0.00  0.00    +0.127 C 
ATOM     13  C   UNL     1      17.661   9.649  21.590  0.00  0.00    +0.128 C 
ATOM     14  C   UNL     1      14.250   8.682  20.578  0.00  0.00    +0.305 C 
ENDROOT
BRANCH   6   1
ATOM      1  S   UNL     1      19.912   8.141  21.792  0.00  0.00    +0.029 S 
ATOM      3  O   UNL     1      20.351   7.826  23.134  0.00  0.00    -0.158 OA
ATOM      4  O   UNL     1      20.457   9.259  21.055  0.00  0.00    -0.158 OA
ATOM     16  C   UNL     1      20.094   6.685  20.798  0.00  0.00    +0.215 C 
ENDBRANCH   6   1
BRANCH   7  15
ATOM     15  C   UNL     1      12.869   6.998  19.266  0.00  0.00    +0.146 C 
BRANCH  15  17
ATOM      8  N   UNL     1      13.876   8.463  15.928  0.00  0.00    -0.263 NA
ATOM     17  C   UNL     1      12.798   7.763  17.976  0.00  0.00    -0.012 A 
ATOM     18  C   UNL     1      11.651   8.465  17.621  0.00  0.00    +0.008 A 
ATOM     19  C   UNL     1      13.873   7.794  17.103  0.00  0.00    +0.115 A 
ATOM     20  C   UNL     1      11.614   9.164  16.420  0.00  0.00    +0.020 A 
ATOM     21  C   UNL     1      12.743   9.133  15.616  0.00  0.00    +0.111 A 
ENDBRANCH  15  17
ENDBRANCH   7  15
TORSDOF 3
ENDMDL
MODEL 8
REMARK VINA RESULT:      -5.4      3.389      6.433
REMARK  Name = 75536975
REMARK  4 active torsions:
REMARK  status: ('A' for Active; 'I' for Inactive)
REMARK    1  A    between atoms: S_1  and  N_6
REMARK    2  A    between atoms: S_1  and  C_16
REMARK    3  A    between atoms: N_7  and  C_15
REMARK    4  A    between atoms: C_15  and  C_17
REMARK                            x       y       z     vdW  Elec       q    Type
REMARK                         _______ _______ _______ _____ _____    ______ ____
ROOT
ATOM      2  O   UNL     1      14.715   9.348  14.731  0.00  0.00    -0.252 OA
ATOM      5  N   UNL     1      14.153   9.138  17.003  0.00  0.00    -0.278 N 
ATOM      6  N   UNL     1      12.789   8.214  19.262  0.00  0.00    -0.178 NA
ATOM      7  N   UNL     1      14.476  11.199  16.171  0.00  0.00    -0.279 N 
ATOM      9  C   UNL     1      14.046  10.015  18.153  0.00  0.00    +0.111 C 
ATOM     10  C   UNL     1      12.797   9.684  18.962  0.00  0.00    +0.133 C 
ATOM     11  C   UNL     1      14.058  11.416  17.546  0.00  0.00    +0.133 C 
ATOM     12  C   UNL     1      14.027   7.704  17.179  0.00  0.00    +0.127 C 
ATOM     13  C   UNL     1      12.786   7.388  18.008  0.00  0.00    +0.128 C 
ATOM     14  C   UNL     1      14.481   9.832  15.830  0.00  0.00    +0.305 C 
ENDROOT
BRANCH   6   1
ATOM      1  S   UNL     1      11.670   7.721  20.463  0.00  0.00    +0.029 S 
ATOM      3  O   UNL     1      11.561   6.279  20.430  0.00  0.00    -0.158 OA
ATOM      4  O   UNL     1      10.506   8.575  20.388  0.00  0.00    -0.158 OA
ATOM     16  C   UNL     1      12.591   8.170  21.910  0.00  0.00    +0.215 C 
ENDBRANCH   6   1
BRANCH   7  15
ATOM     15  C   UNL     1      14.717  12.298  15.263  0.00  0.00    +0.146 C 
BRANCH  15  17
ATOM      8  N   UNL     1      17.799  12.381  13.071  0.00  0.00    -0.263 NA
ATOM     17  C   UNL     1      16.158  12.379  14.848  0.00  0.00    -0.012 A 
ATOM     18  C   UNL     1      17.169  12.515  15.792  0.00  0.00    +0.008 A 
ATOM     19  C   UNL     1      16.522  12.317  13.512  0.00  0.00    +0.115 A 
ATOM     20  C   UNL     1      18.495  12.586  15.378  0.00  0.00    +0.020 A 
ATOM     21  C   UNL     1      18.754  12.514  14.018  0.00  0.00    +0.111 A 
ENDBRANCH  15  17
ENDBRANCH   7  15
TORSDOF 3
ENDMDL
MODEL 9
REMARK VINA RESULT:      -5.3     27.251     29.853
REMARK  Name = 75536975
REMARK  4 active torsions:
REMARK  status: ('A' for Active; 'I' for Inactive)
REMARK    1  A    between atoms: S_1  and  N_6
REMARK    2  A    between atoms: S_1  and  C_16
REMARK    3  A    between atoms: N_7  and  C_15
REMARK    4  A    between atoms: C_15  and  C_17
REMARK                            x       y       z     vdW  Elec       q    Type
REMARK                         _______ _______ _______ _____ _____    ______ ____
ROOT
ATOM      2  O   UNL     1     -15.495   8.571  20.255  0.00  0.00    -0.252 OA
ATOM      5  N   UNL     1     -15.412   6.347  21.007  0.00  0.00    -0.278 N 
ATOM      6  N   UNL     1     -16.243   4.017  22.311  0.00  0.00    -0.178 NA
ATOM      7  N   UNL     1     -13.562   7.606  21.197  0.00  0.00    -0.279 N 
ATOM      9  C   UNL     1     -14.400   5.434  21.504  0.00  0.00    +0.111 C 
ATOM     10  C   UNL     1     -14.934   4.643  22.693  0.00  0.00    +0.133 C 
ATOM     11  C   UNL     1     -13.216   6.342  21.825  0.00  0.00    +0.133 C 
ATOM     12  C   UNL     1     -16.748   5.856  20.732  0.00  0.00    +0.127 C 
ATOM     13  C   UNL     1     -17.262   5.048  21.920  0.00  0.00    +0.128 C 
ATOM     14  C   UNL     1     -14.899   7.626  20.753  0.00  0.00    +0.305 C 
ENDROOT
BRANCH   6   1
ATOM      1  S   UNL     1     -16.809   2.801  23.378  0.00  0.00    +0.029 S 
ATOM      3  O   UNL     1     -15.875   2.675  24.474  0.00  0.00    -0.158 OA
ATOM      4  O   UNL     1     -17.225   1.657  22.597  0.00  0.00    -0.158 OA
ATOM     16  C   UNL     1     -18.265   3.612  23.985  0.00  0.00    +0.215 C 
ENDBRANCH   6   1
BRANCH   7  15
ATOM     15  C   UNL     1     -12.646   8.726  21.175  0.00  0.00    +0.146 C 
BRANCH  15  17
ATOM      8  N   UNL     1     -11.261   7.747  17.795  0.00  0.00    -0.263 NA
ATOM     17  C   UNL     1     -11.812   8.746  19.927  0.00  0.00    -0.012 A 
ATOM     18  C   UNL     1     -10.847   9.726  19.725  0.00  0.00    +0.008 A 
ATOM     19  C   UNL     1     -11.979   7.787  18.940  0.00  0.00    +0.115 A 
ATOM     20  C   UNL     1     -10.089   9.719  18.560  0.00  0.00    +0.020 A 
ATOM     21  C   UNL     1     -10.332   8.716  17.634  0.00  0.00    +0.111 A 
ENDBRANCH  15  17
ENDBRANCH   7  15
TORSDOF 3
ENDMDL
MODEL 10
REMARK VINA RESULT:      -5.3     26.782     28.371
REMARK  Name = 75536975
REMARK  4 active torsions:
REMARK  status: ('A' for Active; 'I' for Inactive)
REMARK    1  A    between atoms: S_1  and  N_6
REMARK    2  A    between atoms: S_1  and  C_16
REMARK    3  A    between atoms: N_7  and  C_15
REMARK    4  A    between atoms: C_15  and  C_17
REMARK                            x       y       z     vdW  Elec       q    Type
REMARK                         _______ _______ _______ _____ _____    ______ ____
ROOT
ATOM      2  O   UNL     1      -1.419 -12.132  14.696  0.00  0.00    -0.252 OA
ATOM      5  N   UNL     1      -3.348 -11.163  15.622  0.00  0.00    -0.278 N 
ATOM      6  N   UNL     1      -5.430 -10.763  17.446  0.00  0.00    -0.178 NA
ATOM      7  N   UNL     1      -3.333 -11.611  13.422  0.00  0.00    -0.279 N 
ATOM      9  C   UNL     1      -4.602 -10.624  15.133  0.00  0.00    +0.111 C 
ATOM     10  C   UNL     1      -5.759 -11.078  16.016  0.00  0.00    +0.133 C 
ATOM     11  C   UNL     1      -4.672 -11.116  13.689  0.00  0.00    +0.133 C 
ATOM     12  C   UNL     1      -3.004 -11.020  17.024  0.00  0.00    +0.127 C 
ATOM     13  C   UNL     1      -4.177 -11.457  17.896  0.00  0.00    +0.128 C 
ATOM     14  C   UNL     1      -2.555 -11.688  14.594  0.00  0.00    +0.305 C 
ENDROOT
BRANCH   6   1
ATOM      1  S   UNL     1      -6.749 -10.860  18.536  0.00  0.00    +0.029 S 
ATOM      3  O   UNL     1      -6.355 -10.268  19.794  0.00  0.00    -0.158 OA
ATOM      4  O   UNL     1      -7.312 -12.190  18.463  0.00  0.00    -0.158 OA
ATOM     16  C   UNL     1      -7.866  -9.744  17.729  0.00  0.00    +0.215 C 
ENDBRANCH   6   1
BRANCH   7  15
ATOM     15  C   UNL     1      -2.938 -12.080  12.112  0.00  0.00    +0.146 C 
BRANCH  15  17
ATOM      8  N   UNL     1      -3.134  -8.972   9.965  0.00  0.00    -0.263 NA
ATOM     17  C   UNL     1      -3.360 -11.134  11.025  0.00  0.00    -0.012 A 
ATOM     18  C   UNL     1      -4.328 -11.497  10.095  0.00  0.00    +0.008 A 
ATOM     19  C   UNL     1      -2.798  -9.872  10.918  0.00  0.00    +0.115 A 
ATOM     20  C   UNL     1      -4.699 -10.600   9.099  0.00  0.00    +0.020 A 
ATOM     21  C   UNL     1      -4.078  -9.361   9.079  0.00  0.00    +0.111 A 
ENDBRANCH  15  17
ENDBRANCH   7  15
TORSDOF 3
ENDMDL
