MODEL 1
REMARK VINA RESULT:      -6.4      0.000      0.000
REMARK  Name = 28962512
REMARK  5 active torsions:
REMARK  status: ('A' for Active; 'I' for Inactive)
REMARK    1  A    between atoms: N_4  and  C_13
REMARK    2  A    between atoms: C_6  and  C_16
REMARK    3  A    between atoms: C_9  and  C_17
REMARK    4  A    between atoms: C_15  and  C_19
REMARK    5  A    between atoms: C_20  and  C_21
REMARK                            x       y       z     vdW  Elec       q    Type
REMARK                         _______ _______ _______ _____ _____    ______ ____
ROOT
ATOM      1  O   UNL     1      -8.285  -8.972  16.364  0.00  0.00    -0.461 OA
ATOM      2  O   UNL     1     -10.089  -7.750  15.627  0.00  0.00    -0.251 OA
ATOM      5  C   UNL     1      -6.914 -10.737  17.542  0.00  0.00    +0.041 C 
ATOM      6  C   UNL     1      -6.811 -11.419  18.957  0.00  0.00    -0.025 C 
ATOM      7  C   UNL     1      -7.962  -9.610  17.601  0.00  0.00    +0.184 C 
ATOM      8  C   UNL     1      -9.312 -10.180  18.003  0.00  0.00    +0.044 C 
ATOM      9  C   UNL     1      -5.511 -10.334  16.991  0.00  0.00    +0.013 C 
ATOM     10  C   UNL     1      -8.220 -11.876  19.447  0.00  0.00    +0.007 C 
ATOM     11  C   UNL     1      -5.909 -12.666  18.828  0.00  0.00    +0.009 C 
ATOM     12  C   UNL     1      -9.283 -10.769  19.399  0.00  0.00    +0.008 C 
ATOM     13  C   UNL     1      -4.582 -11.579  16.949  0.00  0.00    +0.076 C 
ATOM     14  C   UNL     1      -4.526 -12.342  18.276  0.00  0.00    +0.023 C 
ATOM     15  C   UNL     1     -10.211  -8.989  17.734  0.00  0.00    +0.101 C 
ATOM     16  C   UNL     1      -6.220 -10.476  20.036  0.00  0.00    +0.011 C 
ATOM     17  C   UNL     1      -5.584  -9.694  15.595  0.00  0.00    +0.010 C 
ATOM     18  C   UNL     1      -9.571  -8.483  16.455  0.00  0.00    +0.311 C 
ATOM     19  C   UNL     1     -11.669  -9.366  17.547  0.00  0.00    +0.019 C 
ENDROOT
BRANCH  13   4
ATOM      3  O   UNL     1      -3.146 -12.438  14.577  0.00  0.00    -0.276 OA
ATOM      4  N   UNL     1      -3.233 -11.224  16.561  0.00  0.00    -0.312 N 
ATOM     20  C   UNL     1      -2.634 -11.688  15.404  0.00  0.00    +0.210 C 
ATOM     21  C   UNL     1      -1.242 -11.145  15.229  0.00  0.00    +0.109 C 
ATOM     22  H   UNL     1      -2.689 -10.652  17.200  0.00  0.00    +0.149 HD
ENDBRANCH  13   4
TORSDOF 1
ENDMDL
MODEL 2
REMARK VINA RESULT:      -6.2     26.196     29.017
REMARK  Name = 28962512
REMARK  5 active torsions:
REMARK  status: ('A' for Active; 'I' for Inactive)
REMARK    1  A    between atoms: N_4  and  C_13
REMARK    2  A    between atoms: C_6  and  C_16
REMARK    3  A    between atoms: C_9  and  C_17
REMARK    4  A    between atoms: C_15  and  C_19
REMARK    5  A    between atoms: C_20  and  C_21
REMARK                            x       y       z     vdW  Elec       q    Type
REMARK                         _______ _______ _______ _____ _____    ______ ____
ROOT
ATOM      1  O   UNL     1      13.666   9.776  16.792  0.00  0.00    -0.461 OA
ATOM      2  O   UNL     1      13.646  10.734  14.702  0.00  0.00    -0.251 OA
ATOM      5  C   UNL     1      13.994   9.469  19.278  0.00  0.00    +0.041 C 
ATOM      6  C   UNL     1      15.087   9.741  20.379  0.00  0.00    -0.025 C 
ATOM      7  C   UNL     1      14.571   9.831  17.897  0.00  0.00    +0.184 C 
ATOM      8  C   UNL     1      14.980  11.294  17.874  0.00  0.00    +0.044 C 
ATOM      9  C   UNL     1      13.385   8.038  19.409  0.00  0.00    +0.013 C 
ATOM     10  C   UNL     1      15.623  11.202  20.268  0.00  0.00    +0.007 C 
ATOM     11  C   UNL     1      14.430   9.564  21.766  0.00  0.00    +0.009 C 
ATOM     12  C   UNL     1      16.095  11.584  18.857  0.00  0.00    +0.008 C 
ATOM     13  C   UNL     1      12.807   7.839  20.837  0.00  0.00    +0.076 C 
ATOM     14  C   UNL     1      13.798   8.190  21.951  0.00  0.00    +0.023 C 
ATOM     15  C   UNL     1      15.245  11.488  16.394  0.00  0.00    +0.101 C 
ATOM     16  C   UNL     1      16.301   8.784  20.268  0.00  0.00    +0.011 C 
ATOM     17  C   UNL     1      12.293   7.762  18.363  0.00  0.00    +0.010 C 
ATOM     18  C   UNL     1      14.108  10.658  15.829  0.00  0.00    +0.311 C 
ATOM     19  C   UNL     1      15.181  12.940  15.956  0.00  0.00    +0.019 C 
ENDROOT
BRANCH  13   4
ATOM      3  O   UNL     1      10.254   6.992  21.930  0.00  0.00    -0.276 OA
ATOM      4  N   UNL     1      12.343   6.482  21.039  0.00  0.00    -0.312 N 
ATOM     20  C   UNL     1      11.102   6.180  21.570  0.00  0.00    +0.210 C 
ATOM     21  C   UNL     1      10.865   4.696  21.647  0.00  0.00    +0.109 C 
ATOM     22  H   UNL     1      12.986   5.723  20.830  0.00  0.00    +0.149 HD
ENDBRANCH  13   4
TORSDOF 1
ENDMDL
MODEL 3
REMARK VINA RESULT:      -6.2      3.278      6.488
REMARK  Name = 28962512
REMARK  5 active torsions:
REMARK  status: ('A' for Active; 'I' for Inactive)
REMARK    1  A    between atoms: N_4  and  C_13
REMARK    2  A    between atoms: C_6  and  C_16
REMARK    3  A    between atoms: C_9  and  C_17
REMARK    4  A    between atoms: C_15  and  C_19
REMARK    5  A    between atoms: C_20  and  C_21
REMARK                            x       y       z     vdW  Elec       q    Type
REMARK                         _______ _______ _______ _____ _____    ______ ____
ROOT
ATOM      1  O   UNL     1      -5.807 -10.495  12.194  0.00  0.00    -0.461 OA
ATOM      2  O   UNL     1      -6.493  -9.947  10.069  0.00  0.00    -0.251 OA
ATOM      5  C   UNL     1      -4.376 -10.701  14.266  0.00  0.00    +0.041 C 
ATOM      6  C   UNL     1      -2.899 -11.081  14.662  0.00  0.00    -0.025 C 
ATOM      7  C   UNL     1      -4.563 -10.921  12.753  0.00  0.00    +0.184 C 
ATOM      8  C   UNL     1      -3.578 -10.061  11.979  0.00  0.00    +0.044 C 
ATOM      9  C   UNL     1      -5.421 -11.399  15.191  0.00  0.00    +0.013 C 
ATOM     10  C   UNL     1      -1.879 -10.311  13.768  0.00  0.00    +0.007 C 
ATOM     11  C   UNL     1      -2.672 -10.667  16.133  0.00  0.00    +0.009 C 
ATOM     12  C   UNL     1      -2.143 -10.452  12.262  0.00  0.00    +0.008 C 
ATOM     13  C   UNL     1      -5.129 -11.049  16.676  0.00  0.00    +0.076 C 
ATOM     14  C   UNL     1      -3.676 -11.302  17.088  0.00  0.00    +0.023 C 
ATOM     15  C   UNL     1      -4.113 -10.222  10.569  0.00  0.00    +0.101 C 
ATOM     16  C   UNL     1      -2.609 -12.596  14.511  0.00  0.00    +0.011 C 
ATOM     17  C   UNL     1      -6.868 -11.018  14.841  0.00  0.00    +0.010 C 
ATOM     18  C   UNL     1      -5.601 -10.191  10.866  0.00  0.00    +0.311 C 
ATOM     19  C   UNL     1      -3.682  -9.110   9.632  0.00  0.00    +0.019 C 
ENDROOT
BRANCH  13   4
ATOM      3  O   UNL     1      -6.063 -10.205  19.292  0.00  0.00    -0.276 OA
ATOM      4  N   UNL     1      -6.000 -11.776  17.575  0.00  0.00    -0.312 N 
ATOM     20  C   UNL     1      -6.391 -11.285  18.808  0.00  0.00    +0.210 C 
ATOM     21  C   UNL     1      -7.316 -12.230  19.527  0.00  0.00    +0.109 C 
ATOM     22  H   UNL     1      -6.289 -12.712  17.305  0.00  0.00    +0.149 HD
ENDBRANCH  13   4
TORSDOF 1
ENDMDL
MODEL 4
REMARK VINA RESULT:      -6.1      2.086      6.135
REMARK  Name = 28962512
REMARK  5 active torsions:
REMARK  status: ('A' for Active; 'I' for Inactive)
REMARK    1  A    between atoms: N_4  and  C_13
REMARK    2  A    between atoms: C_6  and  C_16
REMARK    3  A    between atoms: C_9  and  C_17
REMARK    4  A    between atoms: C_15  and  C_19
REMARK    5  A    between atoms: C_20  and  C_21
REMARK                            x       y       z     vdW  Elec       q    Type
REMARK                         _______ _______ _______ _____ _____    ______ ____
ROOT
ATOM      1  O   UNL     1      -4.956 -10.509  14.868  0.00  0.00    -0.461 OA
ATOM      2  O   UNL     1      -3.120 -10.347  13.492  0.00  0.00    -0.251 OA
ATOM      5  C   UNL     1      -6.378 -10.620  16.953  0.00  0.00    +0.041 C 
ATOM      6  C   UNL     1      -6.389 -11.345  18.351  0.00  0.00    -0.025 C 
ATOM      7  C   UNL     1      -5.201 -11.157  16.118  0.00  0.00    +0.184 C 
ATOM      8  C   UNL     1      -3.892 -10.903  16.847  0.00  0.00    +0.044 C 
ATOM      9  C   UNL     1      -7.778 -10.667  16.266  0.00  0.00    +0.013 C 
ATOM     10  C   UNL     1      -4.998 -11.217  19.044  0.00  0.00    +0.007 C 
ATOM     11  C   UNL     1      -7.446 -10.656  19.243  0.00  0.00    +0.009 C 
ATOM     12  C   UNL     1      -3.821 -11.655  18.160  0.00  0.00    +0.008 C 
ATOM     13  C   UNL     1      -8.850 -10.054  17.208  0.00  0.00    +0.076 C 
ATOM     14  C   UNL     1      -8.837 -10.652  18.618  0.00  0.00    +0.023 C 
ATOM     15  C   UNL     1      -2.894 -11.245  15.757  0.00  0.00    +0.101 C 
ATOM     16  C   UNL     1      -6.724 -12.854  18.242  0.00  0.00    +0.011 C 
ATOM     17  C   UNL     1      -7.798  -9.939  14.912  0.00  0.00    +0.010 C 
ATOM     18  C   UNL     1      -3.619 -10.651  14.564  0.00  0.00    +0.311 C 
ATOM     19  C   UNL     1      -1.527 -10.625  15.978  0.00  0.00    +0.019 C 
ENDROOT
BRANCH  13   4
ATOM      3  O   UNL     1     -10.972  -8.073  17.215  0.00  0.00    -0.276 OA
ATOM      4  N   UNL     1     -10.183 -10.191  16.659  0.00  0.00    -0.312 N 
ATOM     20  C   UNL     1     -11.128  -9.182  16.712  0.00  0.00    +0.210 C 
ATOM     21  C   UNL     1     -12.418  -9.578  16.046  0.00  0.00    +0.109 C 
ATOM     22  H   UNL     1     -10.446 -11.090  16.268  0.00  0.00    +0.149 HD
ENDBRANCH  13   4
TORSDOF 1
ENDMDL
MODEL 5
REMARK VINA RESULT:      -6.1      2.410      6.294
REMARK  Name = 28962512
REMARK  5 active torsions:
REMARK  status: ('A' for Active; 'I' for Inactive)
REMARK    1  A    between atoms: N_4  and  C_13
REMARK    2  A    between atoms: C_6  and  C_16
REMARK    3  A    between atoms: C_9  and  C_17
REMARK    4  A    between atoms: C_15  and  C_19
REMARK    5  A    between atoms: C_20  and  C_21
REMARK                            x       y       z     vdW  Elec       q    Type
REMARK                         _______ _______ _______ _____ _____    ______ ____
ROOT
ATOM      1  O   UNL     1      -5.337 -10.337  13.158  0.00  0.00    -0.461 OA
ATOM      2  O   UNL     1      -4.546 -10.135  11.008  0.00  0.00    -0.251 OA
ATOM      5  C   UNL     1      -5.400 -10.459  15.681  0.00  0.00    +0.041 C 
ATOM      6  C   UNL     1      -4.622 -11.154  16.861  0.00  0.00    -0.025 C 
ATOM      7  C   UNL     1      -4.839 -10.968  14.340  0.00  0.00    +0.184 C 
ATOM      8  C   UNL     1      -3.357 -10.651  14.245  0.00  0.00    +0.044 C 
ATOM      9  C   UNL     1      -6.946 -10.572  15.861  0.00  0.00    +0.013 C 
ATOM     10  C   UNL     1      -3.084 -10.960  16.691  0.00  0.00    +0.007 C 
ATOM     11  C   UNL     1      -5.057 -10.488  18.185  0.00  0.00    +0.009 C 
ATOM     12  C   UNL     1      -2.555 -11.372  15.309  0.00  0.00    +0.008 C 
ATOM     13  C   UNL     1      -7.362  -9.980  17.236  0.00  0.00    +0.076 C 
ATOM     14  C   UNL     1      -6.563 -10.548  18.412  0.00  0.00    +0.023 C 
ATOM     15  C   UNL     1      -3.093 -10.977  12.788  0.00  0.00    +0.101 C 
ATOM     16  C   UNL     1      -4.899 -12.677  16.945  0.00  0.00    +0.011 C 
ATOM     17  C   UNL     1      -7.725  -9.872  14.736  0.00  0.00    +0.010 C 
ATOM     18  C   UNL     1      -4.373 -10.435  12.179  0.00  0.00    +0.311 C 
ATOM     19  C   UNL     1      -1.852 -10.302  12.235  0.00  0.00    +0.019 C 
ENDROOT
BRANCH  13   4
ATOM      3  O   UNL     1      -9.427  -7.945  17.402  0.00  0.00    -0.276 OA
ATOM      4  N   UNL     1      -8.773 -10.177  17.495  0.00  0.00    -0.312 N 
ATOM     20  C   UNL     1      -9.683  -9.137  17.555  0.00  0.00    +0.210 C 
ATOM     21  C   UNL     1     -11.083  -9.622  17.812  0.00  0.00    +0.109 C 
ATOM     22  H   UNL     1      -9.093 -11.121  17.695  0.00  0.00    +0.149 HD
ENDBRANCH  13   4
TORSDOF 1
ENDMDL
MODEL 6
REMARK VINA RESULT:      -5.9     26.957     30.166
REMARK  Name = 28962512
REMARK  5 active torsions:
REMARK  status: ('A' for Active; 'I' for Inactive)
REMARK    1  A    between atoms: N_4  and  C_13
REMARK    2  A    between atoms: C_6  and  C_16
REMARK    3  A    between atoms: C_9  and  C_17
REMARK    4  A    between atoms: C_15  and  C_19
REMARK    5  A    between atoms: C_20  and  C_21
REMARK                            x       y       z     vdW  Elec       q    Type
REMARK                         _______ _______ _______ _____ _____    ______ ____
ROOT
ATOM      1  O   UNL     1      11.030   3.139  -1.205  0.00  0.00    -0.461 OA
ATOM      2  O   UNL     1      10.060   2.040  -2.978  0.00  0.00    -0.251 OA
ATOM      5  C   UNL     1      12.553   4.654   0.124  0.00  0.00    +0.041 C 
ATOM      6  C   UNL     1      14.084   5.012   0.228  0.00  0.00    -0.025 C 
ATOM      7  C   UNL     1      12.374   3.502  -0.883  0.00  0.00    +0.184 C 
ATOM      8  C   UNL     1      12.905   3.918  -2.244  0.00  0.00    +0.044 C 
ATOM      9  C   UNL     1      11.913   4.436   1.530  0.00  0.00    +0.013 C 
ATOM     10  C   UNL     1      14.676   5.295  -1.187  0.00  0.00    +0.007 C 
ATOM     11  C   UNL     1      14.223   6.291   1.083  0.00  0.00    +0.009 C 
ATOM     12  C   UNL     1      14.396   4.185  -2.211  0.00  0.00    +0.008 C 
ATOM     13  C   UNL     1      12.138   5.694   2.413  0.00  0.00    +0.076 C 
ATOM     14  C   UNL     1      13.599   6.150   2.466  0.00  0.00    +0.023 C 
ATOM     15  C   UNL     1      12.389   2.781  -3.105  0.00  0.00    +0.101 C 
ATOM     16  C   UNL     1      14.922   3.878   0.871  0.00  0.00    +0.011 C 
ATOM     17  C   UNL     1      10.412   4.115   1.454  0.00  0.00    +0.010 C 
ATOM     18  C   UNL     1      11.024   2.592  -2.471  0.00  0.00    +0.311 C 
ATOM     19  C   UNL     1      12.304   3.133  -4.579  0.00  0.00    +0.019 C 
ENDROOT
BRANCH  13   4
ATOM      3  O   UNL     1      10.454   7.459   3.987  0.00  0.00    -0.276 OA
ATOM      4  N   UNL     1      11.668   5.486   3.766  0.00  0.00    -0.312 N 
ATOM     20  C   UNL     1      10.863   6.392   4.434  0.00  0.00    +0.210 C 
ATOM     21  C   UNL     1      10.500   5.917   5.815  0.00  0.00    +0.109 C 
ATOM     22  H   UNL     1      11.992   4.660   4.261  0.00  0.00    +0.149 HD
ENDBRANCH  13   4
TORSDOF 1
ENDMDL
MODEL 7
REMARK VINA RESULT:      -5.9     20.189     22.737
REMARK  Name = 28962512
REMARK  5 active torsions:
REMARK  status: ('A' for Active; 'I' for Inactive)
REMARK    1  A    between atoms: N_4  and  C_13
REMARK    2  A    between atoms: C_6  and  C_16
REMARK    3  A    between atoms: C_9  and  C_17
REMARK    4  A    between atoms: C_15  and  C_19
REMARK    5  A    between atoms: C_20  and  C_21
REMARK                            x       y       z     vdW  Elec       q    Type
REMARK                         _______ _______ _______ _____ _____    ______ ____
ROOT
ATOM      1  O   UNL     1     -16.063   2.544  29.414  0.00  0.00    -0.461 OA
ATOM      2  O   UNL     1     -16.135   0.578  28.223  0.00  0.00    -0.251 OA
ATOM      5  C   UNL     1     -15.268   4.368  30.971  0.00  0.00    +0.041 C 
ATOM      6  C   UNL     1     -14.653   4.521  32.413  0.00  0.00    -0.025 C 
ATOM      7  C   UNL     1     -15.619   2.888  30.729  0.00  0.00    +0.184 C 
ATOM      8  C   UNL     1     -14.370   2.033  30.855  0.00  0.00    +0.044 C 
ATOM      9  C   UNL     1     -16.419   5.392  30.722  0.00  0.00    +0.013 C 
ATOM     10  C   UNL     1     -13.459   3.536  32.605  0.00  0.00    +0.007 C 
ATOM     11  C   UNL     1     -14.126   5.965  32.563  0.00  0.00    +0.009 C 
ATOM     12  C   UNL     1     -13.794   2.078  32.255  0.00  0.00    +0.008 C 
ATOM     13  C   UNL     1     -15.902   6.837  30.963  0.00  0.00    +0.076 C 
ATOM     14  C   UNL     1     -15.200   7.017  32.312  0.00  0.00    +0.023 C 
ATOM     15  C   UNL     1     -14.883   0.709  30.321  0.00  0.00    +0.101 C 
ATOM     16  C   UNL     1     -15.682   4.238  33.537  0.00  0.00    +0.011 C 
ATOM     17  C   UNL     1     -17.014   5.281  29.309  0.00  0.00    +0.010 C 
ATOM     18  C   UNL     1     -15.752   1.220  29.188  0.00  0.00    +0.311 C 
ATOM     19  C   UNL     1     -13.778  -0.213  29.839  0.00  0.00    +0.019 C 
ENDROOT
BRANCH  13   4
ATOM      3  O   UNL     1     -15.981   9.206  29.287  0.00  0.00    -0.276 OA
ATOM      4  N   UNL     1     -16.971   7.808  30.863  0.00  0.00    -0.312 N 
ATOM     20  C   UNL     1     -16.914   8.911  30.029  0.00  0.00    +0.210 C 
ATOM     21  C   UNL     1     -18.166   9.741  30.100  0.00  0.00    +0.109 C 
ATOM     22  H   UNL     1     -17.774   7.698  31.476  0.00  0.00    +0.149 HD
ENDBRANCH  13   4
TORSDOF 1
ENDMDL
MODEL 8
REMARK VINA RESULT:      -5.9     25.969     27.867
REMARK  Name = 28962512
REMARK  5 active torsions:
REMARK  status: ('A' for Active; 'I' for Inactive)
REMARK    1  A    between atoms: N_4  and  C_13
REMARK    2  A    between atoms: C_6  and  C_16
REMARK    3  A    between atoms: C_9  and  C_17
REMARK    4  A    between atoms: C_15  and  C_19
REMARK    5  A    between atoms: C_20  and  C_21
REMARK                            x       y       z     vdW  Elec       q    Type
REMARK                         _______ _______ _______ _____ _____    ______ ____
ROOT
ATOM      1  O   UNL     1      11.871   9.549   5.915  0.00  0.00    -0.461 OA
ATOM      2  O   UNL     1      12.399  11.707   6.509  0.00  0.00    -0.251 OA
ATOM      5  C   UNL     1      10.572   7.404   5.608  0.00  0.00    +0.041 C 
ATOM      6  C   UNL     1       9.632   6.450   6.437  0.00  0.00    -0.025 C 
ATOM      7  C   UNL     1      11.108   8.511   6.535  0.00  0.00    +0.184 C 
ATOM      8  C   UNL     1       9.950   9.301   7.120  0.00  0.00    +0.044 C 
ATOM      9  C   UNL     1      11.647   6.605   4.808  0.00  0.00    +0.013 C 
ATOM     10  C   UNL     1       8.525   7.272   7.166  0.00  0.00    +0.007 C 
ATOM     11  C   UNL     1       8.950   5.471   5.456  0.00  0.00    +0.009 C 
ATOM     12  C   UNL     1       9.068   8.442   8.001  0.00  0.00    +0.008 C 
ATOM     13  C   UNL     1      10.954   5.560   3.890  0.00  0.00    +0.076 C 
ATOM     14  C   UNL     1       9.949   4.671   4.628  0.00  0.00    +0.023 C 
ATOM     15  C   UNL     1      10.694  10.464   7.748  0.00  0.00    +0.101 C 
ATOM     16  C   UNL     1      10.400   5.638   7.512  0.00  0.00    +0.011 C 
ATOM     17  C   UNL     1      12.557   7.514   3.967  0.00  0.00    +0.010 C 
ATOM     18  C   UNL     1      11.747  10.690   6.679  0.00  0.00    +0.311 C 
ATOM     19  C   UNL     1       9.821  11.685   7.974  0.00  0.00    +0.019 C 
ENDROOT
BRANCH  13   4
ATOM      3  O   UNL     1      10.561   4.001   1.473  0.00  0.00    -0.276 OA
ATOM      4  N   UNL     1      11.920   4.713   3.223  0.00  0.00    -0.312 N 
ATOM     20  C   UNL     1      11.635   4.007   2.069  0.00  0.00    +0.210 C 
ATOM     21  C   UNL     1      12.823   3.228   1.572  0.00  0.00    +0.109 C 
ATOM     22  H   UNL     1      12.830   4.594   3.659  0.00  0.00    +0.149 HD
ENDBRANCH  13   4
TORSDOF 1
ENDMDL
MODEL 9
REMARK VINA RESULT:      -5.7     27.850     29.391
REMARK  Name = 28962512
REMARK  5 active torsions:
REMARK  status: ('A' for Active; 'I' for Inactive)
REMARK    1  A    between atoms: N_4  and  C_13
REMARK    2  A    between atoms: C_6  and  C_16
REMARK    3  A    between atoms: C_9  and  C_17
REMARK    4  A    between atoms: C_15  and  C_19
REMARK    5  A    between atoms: C_20  and  C_21
REMARK                            x       y       z     vdW  Elec       q    Type
REMARK                         _______ _______ _______ _____ _____    ______ ____
ROOT
ATOM      1  O   UNL     1      -4.735   7.288  41.489  0.00  0.00    -0.461 OA
ATOM      2  O   UNL     1      -6.115   6.583  43.187  0.00  0.00    -0.251 OA
ATOM      5  C   UNL     1      -2.957   7.279  39.693  0.00  0.00    +0.041 C 
ATOM      6  C   UNL     1      -1.470   6.801  39.490  0.00  0.00    -0.025 C 
ATOM      7  C   UNL     1      -3.367   7.038  41.158  0.00  0.00    +0.184 C 
ATOM      8  C   UNL     1      -3.244   5.562  41.494  0.00  0.00    +0.044 C 
ATOM      9  C   UNL     1      -3.179   8.726  39.152  0.00  0.00    +0.013 C 
ATOM     10  C   UNL     1      -1.299   5.328  39.973  0.00  0.00    +0.007 C 
ATOM     11  C   UNL     1      -1.145   6.863  37.981  0.00  0.00    +0.009 C 
ATOM     12  C   UNL     1      -1.812   5.078  41.399  0.00  0.00    +0.008 C 
ATOM     13  C   UNL     1      -2.764   8.799  37.657  0.00  0.00    +0.076 C 
ATOM     14  C   UNL     1      -1.360   8.250  37.385  0.00  0.00    +0.023 C 
ATOM     15  C   UNL     1      -3.938   5.523  42.842  0.00  0.00    +0.101 C 
ATOM     16  C   UNL     1      -0.449   7.673  40.265  0.00  0.00    +0.011 C 
ATOM     17  C   UNL     1      -4.632   9.201  39.313  0.00  0.00    +0.010 C 
ATOM     18  C   UNL     1      -5.069   6.494  42.565  0.00  0.00    +0.311 C 
ATOM     19  C   UNL     1      -4.435   4.140  43.222  0.00  0.00    +0.019 C 
ENDROOT
BRANCH  13   4
ATOM      3  O   UNL     1      -4.612   9.844  35.677  0.00  0.00    -0.276 OA
ATOM      4  N   UNL     1      -2.837  10.154  37.151  0.00  0.00    -0.312 N 
ATOM     20  C   UNL     1      -3.760  10.556  36.202  0.00  0.00    +0.210 C 
ATOM     21  C   UNL     1      -3.635  12.018  35.872  0.00  0.00    +0.109 C 
ATOM     22  H   UNL     1      -2.141  10.820  37.471  0.00  0.00    +0.149 HD
ENDBRANCH  13   4
TORSDOF 1
ENDMDL
MODEL 10
REMARK VINA RESULT:      -5.7     28.301     29.416
REMARK  Name = 28962512
REMARK  5 active torsions:
REMARK  status: ('A' for Active; 'I' for Inactive)
REMARK    1  A    between atoms: N_4  and  C_13
REMARK    2  A    between atoms: C_6  and  C_16
REMARK    3  A    between atoms: C_9  and  C_17
REMARK    4  A    between atoms: C_15  and  C_19
REMARK    5  A    between atoms: C_20  and  C_21
REMARK                            x       y       z     vdW  Elec       q    Type
REMARK                         _______ _______ _______ _____ _____    ______ ____
ROOT
ATOM      1  O   UNL     1      -0.970   6.586  38.916  0.00  0.00    -0.461 OA
ATOM      2  O   UNL     1      -0.235   4.588  39.785  0.00  0.00    -0.251 OA
ATOM      5  C   UNL     1      -2.172   8.797  38.689  0.00  0.00    +0.041 C 
ATOM      6  C   UNL     1      -3.606   9.404  38.927  0.00  0.00    -0.025 C 
ATOM      7  C   UNL     1      -2.220   7.280  38.951  0.00  0.00    +0.184 C 
ATOM      8  C   UNL     1      -2.668   7.014  40.378  0.00  0.00    +0.044 C 
ATOM      9  C   UNL     1      -1.579   9.234  37.314  0.00  0.00    +0.013 C 
ATOM     10  C   UNL     1      -4.140   9.010  40.338  0.00  0.00    +0.007 C 
ATOM     11  C   UNL     1      -3.496  10.944  38.856  0.00  0.00    +0.009 C 
ATOM     12  C   UNL     1      -4.080   7.503  40.626  0.00  0.00    +0.008 C 
ATOM     13  C   UNL     1      -1.556  10.785  37.218  0.00  0.00    +0.076 C 
ATOM     14  C   UNL     1      -2.904  11.436  37.541  0.00  0.00    +0.023 C 
ATOM     15  C   UNL     1      -2.381   5.529  40.489  0.00  0.00    +0.101 C 
ATOM     16  C   UNL     1      -4.642   8.922  37.879  0.00  0.00    +0.011 C 
ATOM     17  C   UNL     1      -0.166   8.677  37.076  0.00  0.00    +0.010 C 
ATOM     18  C   UNL     1      -1.074   5.473  39.722  0.00  0.00    +0.311 C 
ATOM     19  C   UNL     1      -2.238   5.051  41.923  0.00  0.00    +0.019 C 
ENDROOT
BRANCH  13   4
ATOM      3  O   UNL     1       0.884  12.209  36.550  0.00  0.00    -0.276 OA
ATOM      4  N   UNL     1      -1.128  11.230  35.908  0.00  0.00    -0.312 N 
ATOM     20  C   UNL     1       0.060  11.905  35.692  0.00  0.00    +0.210 C 
ATOM     21  C   UNL     1       0.272  12.228  34.238  0.00  0.00    +0.109 C 
ATOM     22  H   UNL     1      -1.760  11.085  35.126  0.00  0.00    +0.149 HD
ENDBRANCH  13   4
TORSDOF 1
ENDMDL
