MODEL 1
REMARK VINA RESULT:      -7.5      0.000      0.000
REMARK  Name = 51136774
REMARK  5 active torsions:
REMARK  status: ('A' for Active; 'I' for Inactive)
REMARK    1  A    between atoms: O_4  and  C_18
REMARK    2  A    between atoms: C_9  and  C_14
REMARK    3  A    between atoms: C_10  and  C_15
REMARK    4  A    between atoms: C_14  and  C_16
REMARK    5  A    between atoms: C_15  and  C_18
REMARK                            x       y       z     vdW  Elec       q    Type
REMARK                         _______ _______ _______ _____ _____    ______ ____
ROOT
ATOM      2  O   UNL     1      -7.767 -12.171  17.728  0.00  0.00    -0.252 OA
ATOM      3  O   UNL     1     -11.304  -9.235  17.229  0.00  0.00    -0.377 OA
ATOM      6  N   UNL     1      -6.437 -10.335  17.315  0.00  0.00    -0.285 N 
ATOM      7  N   UNL     1      -8.760 -10.340  16.747  0.00  0.00    -0.281 N 
ATOM      9  C   UNL     1      -4.680 -10.280  15.555  0.00  0.00    +0.016 C 
ATOM     10  C   UNL     1      -3.630 -10.609  16.647  0.00  0.00    +0.006 C 
ATOM     11  C   UNL     1      -4.260 -11.375  17.823  0.00  0.00    +0.023 C 
ATOM     12  C   UNL     1      -5.897  -9.568  16.182  0.00  0.00    +0.113 C 
ATOM     13  C   UNL     1      -5.470 -10.625  18.371  0.00  0.00    +0.109 C 
ATOM     17  C   UNL     1      -7.661 -11.019  17.289  0.00  0.00    +0.305 C 
ATOM     20  C   UNL     1      -9.975 -11.073  16.394  0.00  0.00    +0.137 C 
ATOM     21  C   UNL     1      -8.938  -8.883  16.786  0.00  0.00    +0.137 C 
ATOM     25  C   UNL     1     -11.119 -10.652  17.304  0.00  0.00    +0.179 C 
ATOM     26  C   UNL     1     -10.136  -8.537  17.667  0.00  0.00    +0.179 C 
ENDROOT
BRANCH   9  14
ATOM     14  C   UNL     1      -5.135 -11.501  14.744  0.00  0.00    +0.061 C 
BRANCH  14  16
ATOM      1  F   UNL     1      -5.431  -7.521   9.603  0.00  0.00    -0.205 F 
ATOM      8  N   UNL     1      -3.569 -12.457  13.195  0.00  0.00    -0.287 NA
ATOM     16  C   UNL     1      -4.431 -11.520  13.409  0.00  0.00    +0.044 C 
ATOM     19  C   UNL     1      -4.755 -10.464  12.416  0.00  0.00    -0.001 A 
ATOM     22  C   UNL     1      -3.838 -10.273  11.375  0.00  0.00    -0.034 A 
ATOM     23  C   UNL     1      -2.930 -12.510  11.875  0.00  0.00    +0.146 C 
ATOM     24  C   UNL     1      -2.602 -11.123  11.340  0.00  0.00    +0.059 C 
ATOM     27  C   UNL     1      -5.904  -9.674  12.500  0.00  0.00    +0.013 A 
ATOM     28  C   UNL     1      -4.064  -9.269  10.431  0.00  0.00    +0.042 A 
ATOM     29  C   UNL     1      -6.129  -8.684  11.543  0.00  0.00    +0.039 A 
ATOM     30  C   UNL     1      -5.211  -8.479  10.514  0.00  0.00    +0.124 A 
ENDBRANCH  14  16
ENDBRANCH   9  14
BRANCH  10  15
ATOM     15  C   UNL     1      -2.414 -11.359  16.106  0.00  0.00    +0.124 C 
BRANCH  15  18
ATOM      5  O   UNL     1      -1.515  -9.882  14.387  0.00  0.00    -0.251 OA
ATOM     18  C   UNL     1      -1.418 -10.423  15.479  0.00  0.00    +0.305 C 
BRANCH  18   4
ATOM      4  O   UNL     1      -0.361 -10.253  16.314  0.00  0.00    -0.481 OA
ATOM     31  H   UNL     1       0.491 -10.453  15.870  0.00  0.00    +0.295 HD
ENDBRANCH  18   4
ENDBRANCH  15  18
ENDBRANCH  10  15
TORSDOF 5
ENDMDL
MODEL 2
REMARK VINA RESULT:      -6.9      2.817      4.462
REMARK  Name = 51136774
REMARK  5 active torsions:
REMARK  status: ('A' for Active; 'I' for Inactive)
REMARK    1  A    between atoms: O_4  and  C_18
REMARK    2  A    between atoms: C_9  and  C_14
REMARK    3  A    between atoms: C_10  and  C_15
REMARK    4  A    between atoms: C_14  and  C_16
REMARK    5  A    between atoms: C_15  and  C_18
REMARK                            x       y       z     vdW  Elec       q    Type
REMARK                         _______ _______ _______ _____ _____    ______ ____
ROOT
ATOM      2  O   UNL     1     -11.268 -10.322  16.150  0.00  0.00    -0.252 OA
ATOM      3  O   UNL     1     -12.144  -6.139  14.383  0.00  0.00    -0.377 OA
ATOM      6  N   UNL     1      -9.540  -9.278  17.260  0.00  0.00    -0.285 N 
ATOM      7  N   UNL     1     -10.584  -8.271  15.360  0.00  0.00    -0.281 N 
ATOM      9  C   UNL     1      -7.180 -10.057  17.172  0.00  0.00    +0.016 C 
ATOM     10  C   UNL     1      -7.410 -10.785  18.522  0.00  0.00    +0.006 C 
ATOM     11  C   UNL     1      -8.890 -11.158  18.716  0.00  0.00    +0.023 C 
ATOM     12  C   UNL     1      -8.147  -8.863  17.039  0.00  0.00    +0.113 C 
ATOM     13  C   UNL     1      -9.784  -9.935  18.543  0.00  0.00    +0.109 C 
ATOM     17  C   UNL     1     -10.510  -9.349  16.249  0.00  0.00    +0.305 C 
ATOM     20  C   UNL     1     -11.332  -8.400  14.110  0.00  0.00    +0.137 C 
ATOM     21  C   UNL     1     -10.241  -6.885  15.703  0.00  0.00    +0.137 C 
ATOM     25  C   UNL     1     -12.551  -7.490  14.136  0.00  0.00    +0.179 C 
ATOM     26  C   UNL     1     -11.497  -6.018  15.652  0.00  0.00    +0.179 C 
ENDROOT
BRANCH   9  14
ATOM     14  C   UNL     1      -7.291 -10.975  15.947  0.00  0.00    +0.061 C 
BRANCH  14  16
ATOM      1  F   UNL     1      -0.807 -10.898  15.378  0.00  0.00    -0.205 F 
ATOM      8  N   UNL     1      -6.922  -9.998  13.784  0.00  0.00    -0.287 NA
ATOM     16  C   UNL     1      -6.377 -10.479  14.852  0.00  0.00    +0.044 C 
ATOM     19  C   UNL     1      -4.908 -10.573  15.050  0.00  0.00    -0.001 A 
ATOM     22  C   UNL     1      -4.110 -10.478  13.904  0.00  0.00    -0.034 A 
ATOM     23  C   UNL     1      -6.035  -9.462  12.746  0.00  0.00    +0.146 C 
ATOM     24  C   UNL     1      -4.779 -10.305  12.572  0.00  0.00    +0.059 C 
ATOM     27  C   UNL     1      -4.326 -10.763  16.305  0.00  0.00    +0.013 A 
ATOM     28  C   UNL     1      -2.722 -10.599  14.017  0.00  0.00    +0.042 A 
ATOM     29  C   UNL     1      -2.938 -10.867  16.410  0.00  0.00    +0.039 A 
ATOM     30  C   UNL     1      -2.139 -10.789  15.269  0.00  0.00    +0.124 A 
ENDBRANCH  14  16
ENDBRANCH   9  14
BRANCH  10  15
ATOM     15  C   UNL     1      -6.518 -12.012  18.704  0.00  0.00    +0.124 C 
BRANCH  15  18
ATOM      5  O   UNL     1      -4.246 -12.063  19.587  0.00  0.00    -0.251 OA
ATOM     18  C   UNL     1      -5.424 -11.759  19.705  0.00  0.00    +0.305 C 
BRANCH  18   4
ATOM      4  O   UNL     1      -5.935 -11.126  20.792  0.00  0.00    -0.481 OA
ATOM     31  H   UNL     1      -6.551 -10.406  20.539  0.00  0.00    +0.295 HD
ENDBRANCH  18   4
ENDBRANCH  15  18
ENDBRANCH  10  15
TORSDOF 5
ENDMDL
MODEL 3
REMARK VINA RESULT:      -6.7     23.673     26.543
REMARK  Name = 51136774
REMARK  5 active torsions:
REMARK  status: ('A' for Active; 'I' for Inactive)
REMARK    1  A    between atoms: O_4  and  C_18
REMARK    2  A    between atoms: C_9  and  C_14
REMARK    3  A    between atoms: C_10  and  C_15
REMARK    4  A    between atoms: C_14  and  C_16
REMARK    5  A    between atoms: C_15  and  C_18
REMARK                            x       y       z     vdW  Elec       q    Type
REMARK                         _______ _______ _______ _____ _____    ______ ____
ROOT
ATOM      2  O   UNL     1       8.815  10.631   5.676  0.00  0.00    -0.252 OA
ATOM      3  O   UNL     1      12.169  12.569   3.150  0.00  0.00    -0.377 OA
ATOM      6  N   UNL     1      10.497   9.319   6.549  0.00  0.00    -0.285 N 
ATOM      7  N   UNL     1      10.792  10.518   4.501  0.00  0.00    -0.281 N 
ATOM      9  C   UNL     1      10.420   6.833   6.588  0.00  0.00    +0.016 C 
ATOM     10  C   UNL     1       9.923   6.911   8.054  0.00  0.00    +0.006 C 
ATOM     11  C   UNL     1       9.186   8.232   8.331  0.00  0.00    +0.023 C 
ATOM     12  C   UNL     1      11.243   8.091   6.238  0.00  0.00    +0.113 C 
ATOM     13  C   UNL     1      10.049   9.426   7.936  0.00  0.00    +0.109 C 
ATOM     17  C   UNL     1       9.965  10.183   5.580  0.00  0.00    +0.305 C 
ATOM     20  C   UNL     1      10.224  11.141   3.307  0.00  0.00    +0.137 C 
ATOM     21  C   UNL     1      12.256  10.595   4.569  0.00  0.00    +0.137 C 
ATOM     25  C   UNL     1      10.738  12.567   3.170  0.00  0.00    +0.179 C 
ATOM     26  C   UNL     1      12.704  12.040   4.366  0.00  0.00    +0.179 C 
ENDROOT
BRANCH   9  14
ATOM     14  C   UNL     1       9.298   6.627   5.562  0.00  0.00    +0.061 C 
BRANCH  14  16
ATOM      1  F   UNL     1       9.341   8.757  -0.588  0.00  0.00    -0.205 F 
ATOM      8  N   UNL     1      10.508   4.923   4.380  0.00  0.00    -0.287 NA
ATOM     16  C   UNL     1       9.866   6.041   4.293  0.00  0.00    +0.044 C 
ATOM     19  C   UNL     1       9.670   6.775   3.016  0.00  0.00    -0.001 A 
ATOM     22  C   UNL     1      10.514   6.429   1.954  0.00  0.00    -0.034 A 
ATOM     23  C   UNL     1      11.008   4.323   3.137  0.00  0.00    +0.146 C 
ATOM     24  C   UNL     1      11.553   5.370   2.174  0.00  0.00    +0.059 C 
ATOM     27  C   UNL     1       8.709   7.776   2.861  0.00  0.00    +0.013 A 
ATOM     28  C   UNL     1      10.407   7.110   0.738  0.00  0.00    +0.042 A 
ATOM     29  C   UNL     1       8.599   8.439   1.638  0.00  0.00    +0.039 A 
ATOM     30  C   UNL     1       9.448   8.110   0.581  0.00  0.00    +0.124 A 
ENDBRANCH  14  16
ENDBRANCH   9  14
BRANCH  10  15
ATOM     15  C   UNL     1       9.057   5.718   8.459  0.00  0.00    +0.124 C 
BRANCH  15  18
ATOM      5  O   UNL     1      10.071   4.687  10.422  0.00  0.00    -0.251 OA
ATOM     18  C   UNL     1       9.849   4.690   9.220  0.00  0.00    +0.305 C 
BRANCH  18   4
ATOM      4  O   UNL     1      10.300   3.736   8.367  0.00  0.00    -0.481 OA
ATOM     31  H   UNL     1      11.151   3.990   7.951  0.00  0.00    +0.295 HD
ENDBRANCH  18   4
ENDBRANCH  15  18
ENDBRANCH  10  15
TORSDOF 5
ENDMDL
MODEL 4
REMARK VINA RESULT:      -6.6      2.977      6.995
REMARK  Name = 51136774
REMARK  5 active torsions:
REMARK  status: ('A' for Active; 'I' for Inactive)
REMARK    1  A    between atoms: O_4  and  C_18
REMARK    2  A    between atoms: C_9  and  C_14
REMARK    3  A    between atoms: C_10  and  C_15
REMARK    4  A    between atoms: C_14  and  C_16
REMARK    5  A    between atoms: C_15  and  C_18
REMARK                            x       y       z     vdW  Elec       q    Type
REMARK                         _______ _______ _______ _____ _____    ______ ____
ROOT
ATOM      2  O   UNL     1      -3.153 -10.378  16.283  0.00  0.00    -0.252 OA
ATOM      3  O   UNL     1      -1.956 -13.320  12.922  0.00  0.00    -0.377 OA
ATOM      6  N   UNL     1      -4.710 -11.975  16.860  0.00  0.00    -0.285 N 
ATOM      7  N   UNL     1      -3.668 -11.977  14.709  0.00  0.00    -0.281 N 
ATOM      9  C   UNL     1      -7.138 -11.497  17.117  0.00  0.00    +0.016 C 
ATOM     10  C   UNL     1      -6.913 -11.377  18.646  0.00  0.00    +0.006 C 
ATOM     11  C   UNL     1      -5.470 -10.956  18.973  0.00  0.00    +0.023 C 
ATOM     12  C   UNL     1      -6.065 -12.412  16.491  0.00  0.00    +0.113 C 
ATOM     13  C   UNL     1      -4.469 -11.889  18.300  0.00  0.00    +0.109 C 
ATOM     17  C   UNL     1      -3.805 -11.382  15.969  0.00  0.00    +0.305 C 
ATOM     20  C   UNL     1      -3.001 -11.256  13.625  0.00  0.00    +0.137 C 
ATOM     21  C   UNL     1      -3.855 -13.408  14.441  0.00  0.00    +0.137 C 
ATOM     25  C   UNL     1      -1.698 -11.953  13.262  0.00  0.00    +0.179 C 
ATOM     26  C   UNL     1      -2.523 -14.029  14.026  0.00  0.00    +0.179 C 
ENDROOT
BRANCH   9  14
ATOM     14  C   UNL     1      -7.180 -10.147  16.389  0.00  0.00    +0.061 C 
BRANCH  14  16
ATOM      1  F   UNL     1     -12.254  -6.077  16.155  0.00  0.00    -0.205 F 
ATOM      8  N   UNL     1      -8.478 -10.964  14.541  0.00  0.00    -0.287 NA
ATOM     16  C   UNL     1      -8.390 -10.089  15.488  0.00  0.00    +0.044 C 
ATOM     19  C   UNL     1      -9.408  -9.034  15.725  0.00  0.00    -0.001 A 
ATOM     22  C   UNL     1     -10.290  -8.761  14.672  0.00  0.00    -0.034 A 
ATOM     23  C   UNL     1      -9.683 -10.945  13.704  0.00  0.00    +0.146 C 
ATOM     24  C   UNL     1     -10.143  -9.527  13.392  0.00  0.00    +0.059 C 
ATOM     27  C   UNL     1      -9.493  -8.323  16.924  0.00  0.00    +0.013 A 
ATOM     28  C   UNL     1     -11.246  -7.751  14.817  0.00  0.00    +0.042 A 
ATOM     29  C   UNL     1     -10.461  -7.327  17.064  0.00  0.00    +0.039 A 
ATOM     30  C   UNL     1     -11.332  -7.040  16.014  0.00  0.00    +0.124 A 
ENDBRANCH  14  16
ENDBRANCH   9  14
BRANCH  10  15
ATOM     15  C   UNL     1      -7.913 -10.445  19.330  0.00  0.00    +0.124 C 
BRANCH  15  18
ATOM      5  O   UNL     1      -9.398 -12.361  19.589  0.00  0.00    -0.251 OA
ATOM     18  C   UNL     1      -9.125 -11.191  19.815  0.00  0.00    +0.305 C 
BRANCH  18   4
ATOM      4  O   UNL     1      -9.903 -10.365  20.560  0.00  0.00    -0.481 OA
ATOM     31  H   UNL     1      -9.799 -10.534  21.521  0.00  0.00    +0.295 HD
ENDBRANCH  18   4
ENDBRANCH  15  18
ENDBRANCH  10  15
TORSDOF 5
ENDMDL
MODEL 5
REMARK VINA RESULT:      -6.6     19.703     23.378
REMARK  Name = 51136774
REMARK  5 active torsions:
REMARK  status: ('A' for Active; 'I' for Inactive)
REMARK    1  A    between atoms: O_4  and  C_18
REMARK    2  A    between atoms: C_9  and  C_14
REMARK    3  A    between atoms: C_10  and  C_15
REMARK    4  A    between atoms: C_14  and  C_16
REMARK    5  A    between atoms: C_15  and  C_18
REMARK                            x       y       z     vdW  Elec       q    Type
REMARK                         _______ _______ _______ _____ _____    ______ ____
ROOT
ATOM      2  O   UNL     1      -9.708   9.460  18.966  0.00  0.00    -0.252 OA
ATOM      3  O   UNL     1     -10.659  12.233  15.389  0.00  0.00    -0.377 OA
ATOM      6  N   UNL     1     -11.851   8.668  18.671  0.00  0.00    -0.285 N 
ATOM      7  N   UNL     1     -11.159  10.755  17.733  0.00  0.00    -0.281 N 
ATOM      9  C   UNL     1     -13.543   8.571  20.493  0.00  0.00    +0.016 C 
ATOM     10  C   UNL     1     -13.179   7.079  20.699  0.00  0.00    +0.006 C 
ATOM     11  C   UNL     1     -11.735   6.784  20.257  0.00  0.00    +0.023 C 
ATOM     12  C   UNL     1     -13.235   8.999  19.042  0.00  0.00    +0.113 C 
ATOM     13  C   UNL     1     -11.500   7.258  18.827  0.00  0.00    +0.109 C 
ATOM     17  C   UNL     1     -10.837   9.619  18.486  0.00  0.00    +0.305 C 
ATOM     20  C   UNL     1     -10.281  11.924  17.757  0.00  0.00    +0.137 C 
ATOM     21  C   UNL     1     -12.149  10.781  16.650  0.00  0.00    +0.137 C 
ATOM     25  C   UNL     1      -9.641  12.123  16.391  0.00  0.00    +0.179 C 
ATOM     26  C   UNL     1     -11.447  11.042  15.319  0.00  0.00    +0.179 C 
ENDROOT
BRANCH   9  14
ATOM     14  C   UNL     1     -12.859   9.520  21.486  0.00  0.00    +0.061 C 
BRANCH  14  16
ATOM      1  F   UNL     1     -12.419  13.158  26.866  0.00  0.00    -0.205 F 
ATOM      8  N   UNL     1     -15.128  10.182  21.911  0.00  0.00    -0.287 NA
ATOM     16  C   UNL     1     -13.901  10.234  22.312  0.00  0.00    +0.044 C 
ATOM     19  C   UNL     1     -13.469  10.964  23.532  0.00  0.00    -0.001 A 
ATOM     22  C   UNL     1     -14.359  11.915  24.046  0.00  0.00    -0.034 A 
ATOM     23  C   UNL     1     -16.148  10.826  22.746  0.00  0.00    +0.146 C 
ATOM     24  C   UNL     1     -15.660  12.142  23.336  0.00  0.00    +0.059 C 
ATOM     27  C   UNL     1     -12.235  10.742  24.147  0.00  0.00    +0.013 A 
ATOM     28  C   UNL     1     -13.996  12.664  25.169  0.00  0.00    +0.042 A 
ATOM     29  C   UNL     1     -11.888  11.484  25.277  0.00  0.00    +0.039 A 
ATOM     30  C   UNL     1     -12.763  12.444  25.784  0.00  0.00    +0.124 A 
ENDBRANCH  14  16
ENDBRANCH   9  14
BRANCH  10  15
ATOM     15  C   UNL     1     -13.412   6.595  22.130  0.00  0.00    +0.124 C 
BRANCH  15  18
ATOM      5  O   UNL     1     -14.571   4.492  21.707  0.00  0.00    -0.251 OA
ATOM     18  C   UNL     1     -13.629   5.108  22.185  0.00  0.00    +0.305 C 
BRANCH  18   4
ATOM      4  O   UNL     1     -12.606   4.520  22.856  0.00  0.00    -0.481 OA
ATOM     31  H   UNL     1     -12.852   3.632  23.192  0.00  0.00    +0.295 HD
ENDBRANCH  18   4
ENDBRANCH  15  18
ENDBRANCH  10  15
TORSDOF 5
ENDMDL
MODEL 6
REMARK VINA RESULT:      -6.5      3.898      6.783
REMARK  Name = 51136774
REMARK  5 active torsions:
REMARK  status: ('A' for Active; 'I' for Inactive)
REMARK    1  A    between atoms: O_4  and  C_18
REMARK    2  A    between atoms: C_9  and  C_14
REMARK    3  A    between atoms: C_10  and  C_15
REMARK    4  A    between atoms: C_14  and  C_16
REMARK    5  A    between atoms: C_15  and  C_18
REMARK                            x       y       z     vdW  Elec       q    Type
REMARK                         _______ _______ _______ _____ _____    ______ ____
ROOT
ATOM      2  O   UNL     1      -6.029 -13.668  13.518  0.00  0.00    -0.252 OA
ATOM      3  O   UNL     1      -3.529 -16.319  16.365  0.00  0.00    -0.377 OA
ATOM      6  N   UNL     1      -4.098 -13.523  12.270  0.00  0.00    -0.285 N 
ATOM      7  N   UNL     1      -4.051 -14.226  14.555  0.00  0.00    -0.281 N 
ATOM      9  C   UNL     1      -3.077 -11.368  11.563  0.00  0.00    +0.016 C 
ATOM     10  C   UNL     1      -3.776 -11.533  10.189  0.00  0.00    +0.006 C 
ATOM     11  C   UNL     1      -5.052 -12.384  10.303  0.00  0.00    +0.023 C 
ATOM     12  C   UNL     1      -2.849 -12.749  12.213  0.00  0.00    +0.113 C 
ATOM     13  C   UNL     1      -4.753 -13.718  10.978  0.00  0.00    +0.109 C 
ATOM     17  C   UNL     1      -4.801 -13.797  13.453  0.00  0.00    +0.305 C 
ATOM     20  C   UNL     1      -4.645 -14.227  15.891  0.00  0.00    +0.137 C 
ATOM     21  C   UNL     1      -2.800 -14.988  14.463  0.00  0.00    +0.137 C 
ATOM     25  C   UNL     1      -4.798 -15.656  16.391  0.00  0.00    +0.179 C 
ATOM     26  C   UNL     1      -3.010 -16.389  15.035  0.00  0.00    +0.179 C 
ENDROOT
BRANCH   9  14
ATOM     14  C   UNL     1      -3.822 -10.438  12.530  0.00  0.00    +0.061 C 
BRANCH  14  16
ATOM      1  F   UNL     1      -5.716 -11.175  18.714  0.00  0.00    -0.205 F 
ATOM      8  N   UNL     1      -1.799 -10.121  13.785  0.00  0.00    -0.287 NA
ATOM     16  C   UNL     1      -3.069 -10.350  13.836  0.00  0.00    +0.044 C 
ATOM     19  C   UNL     1      -3.817 -10.536  15.105  0.00  0.00    -0.001 A 
ATOM     22  C   UNL     1      -3.061 -10.834  16.246  0.00  0.00    -0.034 A 
ATOM     23  C   UNL     1      -1.079  -9.976  15.056  0.00  0.00    +0.146 C 
ATOM     24  C   UNL     1      -1.572 -10.958  16.110  0.00  0.00    +0.059 C 
ATOM     27  C   UNL     1      -5.209 -10.440  15.184  0.00  0.00    +0.013 A 
ATOM     28  C   UNL     1      -3.708 -11.061  17.463  0.00  0.00    +0.042 A 
ATOM     29  C   UNL     1      -5.844 -10.653  16.408  0.00  0.00    +0.039 A 
ATOM     30  C   UNL     1      -5.097 -10.965  17.543  0.00  0.00    +0.124 A 
ENDBRANCH  14  16
ENDBRANCH   9  14
BRANCH  10  15
ATOM     15  C   UNL     1      -4.078 -10.200   9.504  0.00  0.00    +0.124 C 
BRANCH  15  18
ATOM      5  O   UNL     1      -4.523 -11.175   7.314  0.00  0.00    -0.251 OA
ATOM     18  C   UNL     1      -4.817 -10.396   8.210  0.00  0.00    +0.305 C 
BRANCH  18   4
ATOM      4  O   UNL     1      -5.891  -9.566   8.165  0.00  0.00    -0.481 OA
ATOM     31  H   UNL     1      -6.267  -9.504   7.262  0.00  0.00    +0.295 HD
ENDBRANCH  18   4
ENDBRANCH  15  18
ENDBRANCH  10  15
TORSDOF 5
ENDMDL
MODEL 7
REMARK VINA RESULT:      -6.3      4.923      7.755
REMARK  Name = 51136774
REMARK  5 active torsions:
REMARK  status: ('A' for Active; 'I' for Inactive)
REMARK    1  A    between atoms: O_4  and  C_18
REMARK    2  A    between atoms: C_9  and  C_14
REMARK    3  A    between atoms: C_10  and  C_15
REMARK    4  A    between atoms: C_14  and  C_16
REMARK    5  A    between atoms: C_15  and  C_18
REMARK                            x       y       z     vdW  Elec       q    Type
REMARK                         _______ _______ _______ _____ _____    ______ ____
ROOT
ATOM      2  O   UNL     1      -9.367  -8.010  17.349  0.00  0.00    -0.252 OA
ATOM      3  O   UNL     1     -12.907  -9.026  14.552  0.00  0.00    -0.377 OA
ATOM      6  N   UNL     1      -8.553 -10.081  16.751  0.00  0.00    -0.285 N 
ATOM      7  N   UNL     1     -10.848  -9.504  16.412  0.00  0.00    -0.281 N 
ATOM      9  C   UNL     1      -7.891 -11.825  18.398  0.00  0.00    +0.016 C 
ATOM     10  C   UNL     1      -6.420 -11.364  18.236  0.00  0.00    +0.006 C 
ATOM     11  C   UNL     1      -6.334  -9.888  17.809  0.00  0.00    +0.023 C 
ATOM     12  C   UNL     1      -8.695 -11.497  17.122  0.00  0.00    +0.113 C 
ATOM     13  C   UNL     1      -7.173  -9.637  16.561  0.00  0.00    +0.109 C 
ATOM     17  C   UNL     1      -9.577  -9.130  16.867  0.00  0.00    +0.305 C 
ATOM     20  C   UNL     1     -12.021  -8.712  16.779  0.00  0.00    +0.137 C 
ATOM     21  C   UNL     1     -11.094 -10.455  15.321  0.00  0.00    +0.137 C 
ATOM     25  C   UNL     1     -12.602  -8.040  15.543  0.00  0.00    +0.179 C 
ATOM     26  C   UNL     1     -11.729  -9.726  14.140  0.00  0.00    +0.179 C 
ENDROOT
BRANCH   9  14
ATOM     14  C   UNL     1      -8.591 -11.244  19.634  0.00  0.00    +0.061 C 
BRANCH  14  16
ATOM      1  F   UNL     1     -14.974 -10.194  20.355  0.00  0.00    -0.205 F 
ATOM      8  N   UNL     1      -9.447 -13.387  20.296  0.00  0.00    -0.287 NA
ATOM     16  C   UNL     1      -9.724 -12.149  20.053  0.00  0.00    +0.044 C 
ATOM     19  C   UNL     1     -11.092 -11.579  20.158  0.00  0.00    -0.001 A 
ATOM     22  C   UNL     1     -12.155 -12.490  20.163  0.00  0.00    -0.034 A 
ATOM     23  C   UNL     1     -10.537 -14.252  20.762  0.00  0.00    +0.146 C 
ATOM     24  C   UNL     1     -11.850 -13.954  20.049  0.00  0.00    +0.059 C 
ATOM     27  C   UNL     1     -11.335 -10.206  20.233  0.00  0.00    +0.013 A 
ATOM     28  C   UNL     1     -13.469 -12.017  20.219  0.00  0.00    +0.042 A 
ATOM     29  C   UNL     1     -12.650  -9.744  20.305  0.00  0.00    +0.039 A 
ATOM     30  C   UNL     1     -13.714 -10.646  20.294  0.00  0.00    +0.124 A 
ENDBRANCH  14  16
ENDBRANCH   9  14
BRANCH  10  15
ATOM     15  C   UNL     1      -5.571 -11.613  19.482  0.00  0.00    +0.124 C 
BRANCH  15  18
ATOM      5  O   UNL     1      -3.224 -12.168  19.840  0.00  0.00    -0.251 OA
ATOM     18  C   UNL     1      -4.220 -12.173  19.131  0.00  0.00    +0.305 C 
BRANCH  18   4
ATOM      4  O   UNL     1      -4.254 -12.701  17.881  0.00  0.00    -0.481 OA
ATOM     31  H   UNL     1      -3.356 -12.789  17.497  0.00  0.00    +0.295 HD
ENDBRANCH  18   4
ENDBRANCH  15  18
ENDBRANCH  10  15
TORSDOF 5
ENDMDL
MODEL 8
REMARK VINA RESULT:      -6.3      2.917      7.133
REMARK  Name = 51136774
REMARK  5 active torsions:
REMARK  status: ('A' for Active; 'I' for Inactive)
REMARK    1  A    between atoms: O_4  and  C_18
REMARK    2  A    between atoms: C_9  and  C_14
REMARK    3  A    between atoms: C_10  and  C_15
REMARK    4  A    between atoms: C_14  and  C_16
REMARK    5  A    between atoms: C_15  and  C_18
REMARK                            x       y       z     vdW  Elec       q    Type
REMARK                         _______ _______ _______ _____ _____    ______ ____
ROOT
ATOM      2  O   UNL     1      -4.201 -10.336  13.350  0.00  0.00    -0.252 OA
ATOM      3  O   UNL     1      -3.399 -14.165  10.884  0.00  0.00    -0.377 OA
ATOM      6  N   UNL     1      -4.277 -11.754  15.165  0.00  0.00    -0.285 N 
ATOM      7  N   UNL     1      -4.503 -12.580  12.933  0.00  0.00    -0.281 N 
ATOM      9  C   UNL     1      -6.178 -11.833  16.768  0.00  0.00    +0.016 C 
ATOM     10  C   UNL     1      -5.369 -10.907  17.712  0.00  0.00    +0.006 C 
ATOM     11  C   UNL     1      -4.371 -10.036  16.930  0.00  0.00    +0.023 C 
ATOM     12  C   UNL     1      -5.221 -12.638  15.864  0.00  0.00    +0.113 C 
ATOM     13  C   UNL     1      -3.480 -10.898  16.042  0.00  0.00    +0.109 C 
ATOM     17  C   UNL     1      -4.321 -11.487  13.788  0.00  0.00    +0.305 C 
ATOM     20  C   UNL     1      -4.874 -12.364  11.535  0.00  0.00    +0.137 C 
ATOM     21  C   UNL     1      -4.047 -13.945  13.219  0.00  0.00    +0.137 C 
ATOM     25  C   UNL     1      -3.737 -12.799  10.622  0.00  0.00    +0.179 C 
ATOM     26  C   UNL     1      -2.950 -14.337  12.231  0.00  0.00    +0.179 C 
ENDROOT
BRANCH   9  14
ATOM     14  C   UNL     1      -7.220 -11.093  15.918  0.00  0.00    +0.061 C 
BRANCH  14  16
ATOM      1  F   UNL     1     -12.033  -6.774  16.658  0.00  0.00    -0.205 F 
ATOM      8  N   UNL     1      -8.924 -12.334  17.067  0.00  0.00    -0.287 NA
ATOM     16  C   UNL     1      -8.577 -11.193  16.571  0.00  0.00    +0.044 C 
ATOM     19  C   UNL     1      -9.443  -9.987  16.606  0.00  0.00    -0.001 A 
ATOM     22  C   UNL     1     -10.806 -10.196  16.854  0.00  0.00    -0.034 A 
ATOM     23  C   UNL     1     -10.218 -12.415  17.755  0.00  0.00    +0.146 C 
ATOM     24  C   UNL     1     -11.295 -11.600  17.050  0.00  0.00    +0.059 C 
ATOM     27  C   UNL     1      -8.953  -8.697  16.390  0.00  0.00    +0.013 A 
ATOM     28  C   UNL     1     -11.681  -9.107  16.860  0.00  0.00    +0.042 A 
ATOM     29  C   UNL     1      -9.833  -7.614  16.414  0.00  0.00    +0.039 A 
ATOM     30  C   UNL     1     -11.193  -7.818  16.644  0.00  0.00    +0.124 A 
ENDBRANCH  14  16
ENDBRANCH   9  14
BRANCH  10  15
ATOM     15  C   UNL     1      -6.253 -10.040  18.608  0.00  0.00    +0.124 C 
BRANCH  15  18
ATOM      5  O   UNL     1      -6.060 -11.440  20.594  0.00  0.00    -0.251 OA
ATOM     18  C   UNL     1      -6.744 -10.802  19.808  0.00  0.00    +0.305 C 
BRANCH  18   4
ATOM      4  O   UNL     1      -8.093 -10.683  19.906  0.00  0.00    -0.481 OA
ATOM     31  H   UNL     1      -8.416 -10.909  20.804  0.00  0.00    +0.295 HD
ENDBRANCH  18   4
ENDBRANCH  15  18
ENDBRANCH  10  15
TORSDOF 5
ENDMDL
MODEL 9
REMARK VINA RESULT:      -6.1      2.898      4.349
REMARK  Name = 51136774
REMARK  5 active torsions:
REMARK  status: ('A' for Active; 'I' for Inactive)
REMARK    1  A    between atoms: O_4  and  C_18
REMARK    2  A    between atoms: C_9  and  C_14
REMARK    3  A    between atoms: C_10  and  C_15
REMARK    4  A    between atoms: C_14  and  C_16
REMARK    5  A    between atoms: C_15  and  C_18
REMARK                            x       y       z     vdW  Elec       q    Type
REMARK                         _______ _______ _______ _____ _____    ______ ____
ROOT
ATOM      2  O   UNL     1      -8.753 -13.019  14.012  0.00  0.00    -0.252 OA
ATOM      3  O   UNL     1      -9.471 -10.527  10.182  0.00  0.00    -0.377 OA
ATOM      6  N   UNL     1      -8.119 -11.018  14.961  0.00  0.00    -0.285 N 
ATOM      7  N   UNL     1      -8.222 -11.289  12.588  0.00  0.00    -0.281 N 
ATOM      9  C   UNL     1      -5.948 -10.678  16.128  0.00  0.00    +0.016 C 
ATOM     10  C   UNL     1      -6.679 -10.915  17.474  0.00  0.00    +0.006 C 
ATOM     11  C   UNL     1      -7.925 -11.798  17.292  0.00  0.00    +0.023 C 
ATOM     12  C   UNL     1      -6.939 -10.147  15.070  0.00  0.00    +0.113 C 
ATOM     13  C   UNL     1      -8.841 -11.225  16.215  0.00  0.00    +0.109 C 
ATOM     17  C   UNL     1      -8.386 -11.847  13.862  0.00  0.00    +0.305 C 
ATOM     20  C   UNL     1      -8.169 -12.153  11.410  0.00  0.00    +0.137 C 
ATOM     21  C   UNL     1      -8.413  -9.869  12.272  0.00  0.00    +0.137 C 
ATOM     25  C   UNL     1      -9.390 -11.913  10.533  0.00  0.00    +0.179 C 
ATOM     26  C   UNL     1      -9.615  -9.707  11.345  0.00  0.00    +0.179 C 
ENDROOT
BRANCH   9  14
ATOM     14  C   UNL     1      -5.211 -11.914  15.596  0.00  0.00    +0.061 C 
BRANCH  14  16
ATOM      1  F   UNL     1      -3.147 -10.189   9.669  0.00  0.00    -0.205 F 
ATOM      8  N   UNL     1      -2.877 -11.450  15.920  0.00  0.00    -0.287 NA
ATOM     16  C   UNL     1      -3.852 -11.515  15.075  0.00  0.00    +0.044 C 
ATOM     19  C   UNL     1      -3.702 -11.210  13.628  0.00  0.00    -0.001 A 
ATOM     22  C   UNL     1      -2.566 -10.484  13.251  0.00  0.00    -0.034 A 
ATOM     23  C   UNL     1      -1.544 -11.120  15.403  0.00  0.00    +0.146 C 
ATOM     24  C   UNL     1      -1.598 -10.057  14.314  0.00  0.00    +0.059 C 
ATOM     27  C   UNL     1      -4.642 -11.603  12.673  0.00  0.00    +0.013 A 
ATOM     28  C   UNL     1      -2.386 -10.131  11.911  0.00  0.00    +0.042 A 
ATOM     29  C   UNL     1      -4.446 -11.258  11.334  0.00  0.00    +0.039 A 
ATOM     30  C   UNL     1      -3.324 -10.522  10.955  0.00  0.00    +0.124 A 
ENDBRANCH  14  16
ENDBRANCH   9  14
BRANCH  10  15
ATOM     15  C   UNL     1      -5.768 -11.488  18.560  0.00  0.00    +0.124 C 
BRANCH  15  18
ATOM      5  O   UNL     1      -5.840 -11.483  20.997  0.00  0.00    -0.251 OA
ATOM     18  C   UNL     1      -6.144 -10.980  19.924  0.00  0.00    +0.305 C 
BRANCH  18   4
ATOM      4  O   UNL     1      -6.890  -9.852  19.804  0.00  0.00    -0.481 OA
ATOM     31  H   UNL     1      -6.352  -9.043  19.940  0.00  0.00    +0.295 HD
ENDBRANCH  18   4
ENDBRANCH  15  18
ENDBRANCH  10  15
TORSDOF 5
ENDMDL
MODEL 10
REMARK VINA RESULT:      -6.1     25.150     28.328
REMARK  Name = 51136774
REMARK  5 active torsions:
REMARK  status: ('A' for Active; 'I' for Inactive)
REMARK    1  A    between atoms: O_4  and  C_18
REMARK    2  A    between atoms: C_9  and  C_14
REMARK    3  A    between atoms: C_10  and  C_15
REMARK    4  A    between atoms: C_14  and  C_16
REMARK    5  A    between atoms: C_15  and  C_18
REMARK                            x       y       z     vdW  Elec       q    Type
REMARK                         _______ _______ _______ _____ _____    ______ ____
ROOT
ATOM      2  O   UNL     1      13.646  10.643   4.787  0.00  0.00    -0.252 OA
ATOM      3  O   UNL     1      18.208   9.885   4.763  0.00  0.00    -0.377 OA
ATOM      6  N   UNL     1      13.522   8.680   5.986  0.00  0.00    -0.285 N 
ATOM      7  N   UNL     1      15.468   9.238   4.715  0.00  0.00    -0.281 N 
ATOM      9  C   UNL     1      12.066   6.767   5.345  0.00  0.00    +0.016 C 
ATOM     10  C   UNL     1      11.012   7.280   6.359  0.00  0.00    +0.006 C 
ATOM     11  C   UNL     1      11.131   8.798   6.579  0.00  0.00    +0.023 C 
ATOM     12  C   UNL     1      13.478   7.227   5.766  0.00  0.00    +0.113 C 
ATOM     13  C   UNL     1      12.557   9.178   6.966  0.00  0.00    +0.109 C 
ATOM     17  C   UNL     1      14.180   9.585   5.140  0.00  0.00    +0.305 C 
ATOM     20  C   UNL     1      16.090   9.951   3.600  0.00  0.00    +0.137 C 
ATOM     21  C   UNL     1      16.407   8.420   5.491  0.00  0.00    +0.137 C 
ATOM     25  C   UNL     1      17.284  10.753   4.096  0.00  0.00    +0.179 C 
ATOM     26  C   UNL     1      17.606   9.270   5.905  0.00  0.00    +0.179 C 
ENDROOT
BRANCH   9  14
ATOM     14  C   UNL     1      11.782   7.178   3.894  0.00  0.00    +0.061 C 
BRANCH  14  16
ATOM      1  F   UNL     1      16.193   3.886   0.419  0.00  0.00    -0.205 F 
ATOM      8  N   UNL     1      10.521   5.370   2.942  0.00  0.00    -0.287 NA
ATOM     16  C   UNL     1      11.673   5.948   3.026  0.00  0.00    +0.044 C 
ATOM     19  C   UNL     1      12.887   5.459   2.323  0.00  0.00    -0.001 A 
ATOM     22  C   UNL     1      12.858   4.138   1.858  0.00  0.00    -0.034 A 
ATOM     23  C   UNL     1      10.401   4.210   2.052  0.00  0.00    +0.146 C 
ATOM     24  C   UNL     1      11.631   3.313   2.108  0.00  0.00    +0.059 C 
ATOM     27  C   UNL     1      14.021   6.252   2.135  0.00  0.00    +0.013 A 
ATOM     28  C   UNL     1      13.983   3.606   1.223  0.00  0.00    +0.042 A 
ATOM     29  C   UNL     1      15.134   5.715   1.486  0.00  0.00    +0.039 A 
ATOM     30  C   UNL     1      15.117   4.396   1.035  0.00  0.00    +0.124 A 
ENDBRANCH  14  16
ENDBRANCH   9  14
BRANCH  10  15
ATOM     15  C   UNL     1       9.580   6.903   5.980  0.00  0.00    +0.124 C 
BRANCH  15  18
ATOM      5  O   UNL     1       8.770   7.120   8.269  0.00  0.00    -0.251 OA
ATOM     18  C   UNL     1       8.605   7.264   7.066  0.00  0.00    +0.305 C 
BRANCH  18   4
ATOM      4  O   UNL     1       7.480   7.787   6.517  0.00  0.00    -0.481 OA
ATOM     31  H   UNL     1       7.514   7.780   5.536  0.00  0.00    +0.295 HD
ENDBRANCH  18   4
ENDBRANCH  15  18
ENDBRANCH  10  15
TORSDOF 5
ENDMDL
