MODEL 1
REMARK VINA RESULT:      -7.5      0.000      0.000
REMARK  Name = 71693989
REMARK  8 active torsions:
REMARK  status: ('A' for Active; 'I' for Inactive)
REMARK    1  A    between atoms: O_4  and  C_12
REMARK    2  A    between atoms: O_5  and  C_14
REMARK    3  A    between atoms: O_7  and  C_20
REMARK    4  A    between atoms: O_7  and  C_23
REMARK    5  A    between atoms: N_8  and  C_11
REMARK    6  A    between atoms: C_10  and  C_15
REMARK    7  A    between atoms: C_18  and  C_20
REMARK    8  A    between atoms: C_21  and  C_22
REMARK                            x       y       z     vdW  Elec       q    Type
REMARK                         _______ _______ _______ _____ _____    ______ ____
ROOT
ATOM     10  C   UNL     1      13.464   9.352  18.391  0.00  0.00    +0.046 C 
ATOM     11  C   UNL     1      12.248   8.415  18.205  0.00  0.00    +0.111 C 
ATOM     12  C   UNL     1      11.533   8.997  16.987  0.00  0.00    +0.164 C 
ATOM     13  C   UNL     1      13.712  10.002  17.006  0.00  0.00    +0.044 C 
ATOM     14  C   UNL     1      12.682   9.382  16.063  0.00  0.00    +0.145 C 
ENDROOT
BRANCH  10  15
ATOM      9  N   UNL     1      16.049   6.664  19.083  0.00  0.00    -0.251 NA
ATOM     15  C   UNL     1      14.670   8.647  18.974  0.00  0.00    -0.024 A 
ATOM     16  C   UNL     1      15.491   9.278  19.901  0.00  0.00    +0.007 A 
ATOM     17  C   UNL     1      14.989   7.350  18.601  0.00  0.00    +0.115 A 
ATOM     19  C   UNL     1      16.592   8.604  20.420  0.00  0.00    +0.032 A 
ATOM     21  C   UNL     1      16.825   7.310  19.982  0.00  0.00    +0.144 A 
BRANCH  21  22
ATOM      1  F   UNL     1      19.148   7.289  20.552  0.00  0.00    -0.164 F 
ATOM      2  F   UNL     1      18.305   5.440  19.794  0.00  0.00    -0.164 F 
ATOM      3  F   UNL     1      17.800   6.122  21.796  0.00  0.00    -0.164 F 
ATOM     22  C   UNL     1      17.997   6.556  20.517  0.00  0.00    +0.434 C 
ENDBRANCH  21  22
ENDBRANCH  10  15
BRANCH  11   8
ATOM      6  O   UNL     1      12.329   6.525  20.394  0.00  0.00    -0.272 OA
ATOM      8  N   UNL     1      11.399   8.394  19.369  0.00  0.00    -0.307 N 
ATOM     18  C   UNL     1      11.512   7.442  20.373  0.00  0.00    +0.251 C 
ATOM     29  H   UNL     1      10.719   9.143  19.479  0.00  0.00    +0.149 HD
BRANCH  18  20
ATOM     20  C   UNL     1      10.496   7.659  21.473  0.00  0.00    +0.324 C 
BRANCH  20   7
ATOM      7  O   UNL     1      11.121   8.156  22.638  0.00  0.00    -0.483 OA
BRANCH   7  23
ATOM     23  C   UNL     1      11.569   9.456  22.603  0.00  0.00    +0.121 A 
ATOM     24  C   UNL     1      10.682  10.507  22.839  0.00  0.00    +0.045 A 
ATOM     25  C   UNL     1      12.911   9.724  22.333  0.00  0.00    +0.045 A 
ATOM     26  C   UNL     1      11.136  11.825  22.804  0.00  0.00    +0.004 A 
ATOM     27  C   UNL     1      13.366  11.042  22.297  0.00  0.00    +0.004 A 
ATOM     28  C   UNL     1      12.478  12.092  22.533  0.00  0.00    +0.000 A 
ENDBRANCH   7  23
ENDBRANCH  20   7
ENDBRANCH  18  20
ENDBRANCH  11   8
BRANCH  12   4
ATOM      4  O   UNL     1      10.673   8.059  16.369  0.00  0.00    -0.387 OA
ATOM     30  H   UNL     1      10.742   8.189  15.408  0.00  0.00    +0.210 HD
ENDBRANCH  12   4
BRANCH  14   5
ATOM      5  O   UNL     1      13.257   8.229  15.455  0.00  0.00    -0.389 OA
ATOM     31  H   UNL     1      14.163   8.460  15.191  0.00  0.00    +0.210 HD
ENDBRANCH  14   5
TORSDOF 8
ENDMDL
MODEL 2
REMARK VINA RESULT:      -7.3      1.934      2.878
REMARK  Name = 71693989
REMARK  8 active torsions:
REMARK  status: ('A' for Active; 'I' for Inactive)
REMARK    1  A    between atoms: O_4  and  C_12
REMARK    2  A    between atoms: O_5  and  C_14
REMARK    3  A    between atoms: O_7  and  C_20
REMARK    4  A    between atoms: O_7  and  C_23
REMARK    5  A    between atoms: N_8  and  C_11
REMARK    6  A    between atoms: C_10  and  C_15
REMARK    7  A    between atoms: C_18  and  C_20
REMARK    8  A    between atoms: C_21  and  C_22
REMARK                            x       y       z     vdW  Elec       q    Type
REMARK                         _______ _______ _______ _____ _____    ______ ____
ROOT
ATOM     10  C   UNL     1      13.888   9.081  19.098  0.00  0.00    +0.046 C 
ATOM     11  C   UNL     1      12.694   8.808  20.042  0.00  0.00    +0.111 C 
ATOM     12  C   UNL     1      11.479   8.934  19.125  0.00  0.00    +0.164 C 
ATOM     13  C   UNL     1      13.378   8.762  17.669  0.00  0.00    +0.044 C 
ATOM     14  C   UNL     1      11.944   8.262  17.839  0.00  0.00    +0.145 C 
ENDROOT
BRANCH  10  15
ATOM      9  N   UNL     1      17.247   8.313  20.683  0.00  0.00    -0.251 NA
ATOM     15  C   UNL     1      15.141   8.331  19.495  0.00  0.00    -0.024 A 
ATOM     16  C   UNL     1      15.361   7.025  19.071  0.00  0.00    +0.007 A 
ATOM     17  C   UNL     1      16.107   8.925  20.293  0.00  0.00    +0.115 A 
ATOM     19  C   UNL     1      16.522   6.362  19.452  0.00  0.00    +0.032 A 
ATOM     21  C   UNL     1      17.425   7.043  20.252  0.00  0.00    +0.144 A 
BRANCH  21  22
ATOM      1  F   UNL     1      18.863   5.138  20.105  0.00  0.00    -0.164 F 
ATOM      2  F   UNL     1      18.753   6.140  22.025  0.00  0.00    -0.164 F 
ATOM      3  F   UNL     1      19.799   7.083  20.368  0.00  0.00    -0.164 F 
ATOM     22  C   UNL     1      18.682   6.363  20.680  0.00  0.00    +0.434 C 
ENDBRANCH  21  22
ENDBRANCH  10  15
BRANCH  11   8
ATOM      6  O   UNL     1      11.256   8.511  22.534  0.00  0.00    -0.272 OA
ATOM      8  N   UNL     1      12.645   9.745  21.135  0.00  0.00    -0.307 N 
ATOM     18  C   UNL     1      11.922   9.515  22.298  0.00  0.00    +0.251 C 
ATOM     29  H   UNL     1      13.206  10.590  21.067  0.00  0.00    +0.149 HD
BRANCH  18  20
ATOM     20  C   UNL     1      12.047  10.663  23.275  0.00  0.00    +0.324 C 
BRANCH  20   7
ATOM      7  O   UNL     1      10.772  11.103  23.694  0.00  0.00    -0.483 OA
BRANCH   7  23
ATOM     23  C   UNL     1      10.661  12.414  24.094  0.00  0.00    +0.121 A 
ATOM     24  C   UNL     1      10.468  13.420  23.147  0.00  0.00    +0.045 A 
ATOM     25  C   UNL     1      10.740  12.738  25.449  0.00  0.00    +0.045 A 
ATOM     26  C   UNL     1      10.355  14.749  23.553  0.00  0.00    +0.004 A 
ATOM     27  C   UNL     1      10.628  14.068  25.856  0.00  0.00    +0.004 A 
ATOM     28  C   UNL     1      10.435  15.073  24.908  0.00  0.00    +0.000 A 
ENDBRANCH   7  23
ENDBRANCH  20   7
ENDBRANCH  18  20
ENDBRANCH  11   8
BRANCH  12   4
ATOM      4  O   UNL     1      10.337   8.289  19.655  0.00  0.00    -0.387 OA
ATOM     30  H   UNL     1      10.269   7.419  19.227  0.00  0.00    +0.210 HD
ENDBRANCH  12   4
BRANCH  14   5
ATOM      5  O   UNL     1      11.969   6.845  17.983  0.00  0.00    -0.389 OA
ATOM     31  H   UNL     1      12.867   6.596  18.258  0.00  0.00    +0.210 HD
ENDBRANCH  14   5
TORSDOF 8
ENDMDL
MODEL 3
REMARK VINA RESULT:      -6.6      3.507      6.648
REMARK  Name = 71693989
REMARK  8 active torsions:
REMARK  status: ('A' for Active; 'I' for Inactive)
REMARK    1  A    between atoms: O_4  and  C_12
REMARK    2  A    between atoms: O_5  and  C_14
REMARK    3  A    between atoms: O_7  and  C_20
REMARK    4  A    between atoms: O_7  and  C_23
REMARK    5  A    between atoms: N_8  and  C_11
REMARK    6  A    between atoms: C_10  and  C_15
REMARK    7  A    between atoms: C_18  and  C_20
REMARK    8  A    between atoms: C_21  and  C_22
REMARK                            x       y       z     vdW  Elec       q    Type
REMARK                         _______ _______ _______ _____ _____    ______ ____
ROOT
ATOM     10  C   UNL     1      13.027   9.049  20.865  0.00  0.00    +0.046 C 
ATOM     11  C   UNL     1      13.107   7.505  20.892  0.00  0.00    +0.111 C 
ATOM     12  C   UNL     1      11.988   7.106  21.852  0.00  0.00    +0.164 C 
ATOM     13  C   UNL     1      11.579   9.403  21.292  0.00  0.00    +0.044 C 
ATOM     14  C   UNL     1      10.863   8.068  21.489  0.00  0.00    +0.145 C 
ENDROOT
BRANCH  10  15
ATOM      9  N   UNL     1      13.027   9.915  17.173  0.00  0.00    -0.251 NA
ATOM     15  C   UNL     1      13.449   9.640  19.537  0.00  0.00    -0.024 A 
ATOM     16  C   UNL     1      14.594  10.422  19.432  0.00  0.00    +0.007 A 
ATOM     17  C   UNL     1      12.707   9.419  18.388  0.00  0.00    +0.115 A 
ATOM     19  C   UNL     1      14.957  10.951  18.198  0.00  0.00    +0.032 A 
ATOM     21  C   UNL     1      14.147  10.671  17.109  0.00  0.00    +0.144 A 
BRANCH  21  22
ATOM      1  F   UNL     1      13.497  11.129  14.854  0.00  0.00    -0.164 F 
ATOM      2  F   UNL     1      15.572  10.598  15.189  0.00  0.00    -0.164 F 
ATOM      3  F   UNL     1      14.836  12.544  15.818  0.00  0.00    -0.164 F 
ATOM     22  C   UNL     1      14.505  11.222  15.769  0.00  0.00    +0.434 C 
ENDBRANCH  21  22
ENDBRANCH  10  15
BRANCH  11   8
ATOM      6  O   UNL     1      15.331   6.653  19.249  0.00  0.00    -0.272 OA
ATOM      8  N   UNL     1      14.394   7.039  21.343  0.00  0.00    -0.307 N 
ATOM     18  C   UNL     1      15.406   6.649  20.476  0.00  0.00    +0.251 C 
ATOM     29  H   UNL     1      14.583   7.046  22.342  0.00  0.00    +0.149 HD
BRANCH  18  20
ATOM     20  C   UNL     1      16.647   6.206  21.219  0.00  0.00    +0.324 C 
BRANCH  20   7
ATOM      7  O   UNL     1      17.785   6.892  20.742  0.00  0.00    -0.483 OA
BRANCH   7  23
ATOM     23  C   UNL     1      19.013   6.351  21.039  0.00  0.00    +0.121 A 
ATOM     24  C   UNL     1      19.720   6.792  22.158  0.00  0.00    +0.045 A 
ATOM     25  C   UNL     1      19.554   5.359  20.221  0.00  0.00    +0.045 A 
ATOM     26  C   UNL     1      20.966   6.244  22.459  0.00  0.00    +0.004 A 
ATOM     27  C   UNL     1      20.801   4.810  20.520  0.00  0.00    +0.004 A 
ATOM     28  C   UNL     1      21.506   5.252  21.640  0.00  0.00    +0.000 A 
ENDBRANCH   7  23
ENDBRANCH  20   7
ENDBRANCH  18  20
ENDBRANCH  11   8
BRANCH  12   4
ATOM      4  O   UNL     1      11.586   5.761  21.679  0.00  0.00    -0.387 OA
ATOM     30  H   UNL     1      10.976   5.734  20.922  0.00  0.00    +0.210 HD
ENDBRANCH  12   4
BRANCH  14   5
ATOM      5  O   UNL     1      10.248   7.695  20.260  0.00  0.00    -0.389 OA
ATOM     31  H   UNL     1      10.882   7.880  19.547  0.00  0.00    +0.210 HD
ENDBRANCH  14   5
TORSDOF 8
ENDMDL
MODEL 4
REMARK VINA RESULT:      -6.5      4.763      7.760
REMARK  Name = 71693989
REMARK  8 active torsions:
REMARK  status: ('A' for Active; 'I' for Inactive)
REMARK    1  A    between atoms: O_4  and  C_12
REMARK    2  A    between atoms: O_5  and  C_14
REMARK    3  A    between atoms: O_7  and  C_20
REMARK    4  A    between atoms: O_7  and  C_23
REMARK    5  A    between atoms: N_8  and  C_11
REMARK    6  A    between atoms: C_10  and  C_15
REMARK    7  A    between atoms: C_18  and  C_20
REMARK    8  A    between atoms: C_21  and  C_22
REMARK                            x       y       z     vdW  Elec       q    Type
REMARK                         _______ _______ _______ _____ _____    ______ ____
ROOT
ATOM     10  C   UNL     1      11.726   9.107  22.658  0.00  0.00    +0.046 C 
ATOM     11  C   UNL     1      12.740   8.976  21.499  0.00  0.00    +0.111 C 
ATOM     12  C   UNL     1      12.437   7.597  20.915  0.00  0.00    +0.164 C 
ATOM     13  C   UNL     1      10.566   8.138  22.316  0.00  0.00    +0.044 C 
ATOM     14  C   UNL     1      10.915   7.531  20.958  0.00  0.00    +0.145 C 
ENDROOT
BRANCH  10  15
ATOM      9  N   UNL     1      10.486  12.212  24.451  0.00  0.00    -0.251 NA
ATOM     15  C   UNL     1      11.292  10.537  22.905  0.00  0.00    -0.024 A 
ATOM     16  C   UNL     1      11.287  11.473  21.877  0.00  0.00    +0.007 A 
ATOM     17  C   UNL     1      10.886  10.953  24.163  0.00  0.00    +0.115 A 
ATOM     19  C   UNL     1      10.882  12.778  22.134  0.00  0.00    +0.032 A 
ATOM     21  C   UNL     1      10.495  13.094  23.426  0.00  0.00    +0.144 A 
BRANCH  21  22
ATOM      1  F   UNL     1      10.835  15.447  23.166  0.00  0.00    -0.164 F 
ATOM      2  F   UNL     1      10.056  14.772  25.074  0.00  0.00    -0.164 F 
ATOM      3  F   UNL     1       8.785  14.741  23.310  0.00  0.00    -0.164 F 
ATOM     22  C   UNL     1      10.054  14.485  23.739  0.00  0.00    +0.434 C 
ENDBRANCH  21  22
ENDBRANCH  10  15
BRANCH  11   8
ATOM      6  O   UNL     1      15.063   9.702  19.936  0.00  0.00    -0.272 OA
ATOM      8  N   UNL     1      14.102   9.078  21.959  0.00  0.00    -0.307 N 
ATOM     18  C   UNL     1      15.157   9.435  21.131  0.00  0.00    +0.251 C 
ATOM     29  H   UNL     1      14.286   8.929  22.948  0.00  0.00    +0.149 HD
BRANCH  18  20
ATOM     20  C   UNL     1      16.474   9.464  21.876  0.00  0.00    +0.324 C 
BRANCH  20   7
ATOM      7  O   UNL     1      17.559   9.426  20.972  0.00  0.00    -0.483 OA
BRANCH   7  23
ATOM     23  C   UNL     1      18.265   8.249  20.890  0.00  0.00    +0.121 A 
ATOM     24  C   UNL     1      17.706   7.142  20.252  0.00  0.00    +0.045 A 
ATOM     25  C   UNL     1      19.543   8.163  21.443  0.00  0.00    +0.045 A 
ATOM     26  C   UNL     1      18.423   5.948  20.169  0.00  0.00    +0.004 A 
ATOM     27  C   UNL     1      20.260   6.969  21.361  0.00  0.00    +0.004 A 
ATOM     28  C   UNL     1      19.700   5.862  20.723  0.00  0.00    +0.000 A 
ENDBRANCH   7  23
ENDBRANCH  20   7
ENDBRANCH  18  20
ENDBRANCH  11   8
BRANCH  12   4
ATOM      4  O   UNL     1      12.918   7.457  19.592  0.00  0.00    -0.387 OA
ATOM     30  H   UNL     1      13.455   8.242  19.393  0.00  0.00    +0.210 HD
ENDBRANCH  12   4
BRANCH  14   5
ATOM      5  O   UNL     1      10.339   8.338  19.936  0.00  0.00    -0.389 OA
ATOM     31  H   UNL     1       9.922   9.102  20.368  0.00  0.00    +0.210 HD
ENDBRANCH  14   5
TORSDOF 8
ENDMDL
MODEL 5
REMARK VINA RESULT:      -6.4     16.925     19.807
REMARK  Name = 71693989
REMARK  8 active torsions:
REMARK  status: ('A' for Active; 'I' for Inactive)
REMARK    1  A    between atoms: O_4  and  C_12
REMARK    2  A    between atoms: O_5  and  C_14
REMARK    3  A    between atoms: O_7  and  C_20
REMARK    4  A    between atoms: O_7  and  C_23
REMARK    5  A    between atoms: N_8  and  C_11
REMARK    6  A    between atoms: C_10  and  C_15
REMARK    7  A    between atoms: C_18  and  C_20
REMARK    8  A    between atoms: C_21  and  C_22
REMARK                            x       y       z     vdW  Elec       q    Type
REMARK                         _______ _______ _______ _____ _____    ______ ____
ROOT
ATOM     10  C   UNL     1      13.495   3.663   0.429  0.00  0.00    +0.046 C 
ATOM     11  C   UNL     1      13.119   4.872   1.318  0.00  0.00    +0.111 C 
ATOM     12  C   UNL     1      14.473   5.418   1.767  0.00  0.00    +0.164 C 
ATOM     13  C   UNL     1      14.943   3.930  -0.056  0.00  0.00    +0.044 C 
ATOM     14  C   UNL     1      15.329   5.295   0.512  0.00  0.00    +0.145 C 
ENDROOT
BRANCH  10  15
ATOM      9  N   UNL     1      10.332   3.870  -1.654  0.00  0.00    -0.251 NA
ATOM     15  C   UNL     1      12.500   3.416  -0.685  0.00  0.00    -0.024 A 
ATOM     16  C   UNL     1      12.794   2.548  -1.730  0.00  0.00    +0.007 A 
ATOM     17  C   UNL     1      11.266   4.047  -0.693  0.00  0.00    +0.115 A 
ATOM     19  C   UNL     1      11.860   2.340  -2.738  0.00  0.00    +0.032 A 
ATOM     21  C   UNL     1      10.654   3.019  -2.656  0.00  0.00    +0.144 A 
BRANCH  21  22
ATOM      1  F   UNL     1       8.695   3.816  -3.770  0.00  0.00    -0.164 F 
ATOM      2  F   UNL     1       8.911   1.667  -3.579  0.00  0.00    -0.164 F 
ATOM      3  F   UNL     1      10.172   2.764  -4.969  0.00  0.00    -0.164 F 
ATOM     22  C   UNL     1       9.627   2.820  -3.719  0.00  0.00    +0.434 C 
ENDBRANCH  21  22
ENDBRANCH  10  15
BRANCH  11   8
ATOM      6  O   UNL     1      10.881   6.329   2.429  0.00  0.00    -0.272 OA
ATOM      8  N   UNL     1      12.297   4.485   2.436  0.00  0.00    -0.307 N 
ATOM     18  C   UNL     1      11.239   5.253   2.901  0.00  0.00    +0.251 C 
ATOM     29  H   UNL     1      12.473   3.582   2.870  0.00  0.00    +0.149 HD
BRANCH  18  20
ATOM     20  C   UNL     1      10.550   4.609   4.083  0.00  0.00    +0.324 C 
BRANCH  20   7
ATOM      7  O   UNL     1       9.457   5.393   4.512  0.00  0.00    -0.483 OA
BRANCH   7  23
ATOM     23  C   UNL     1       9.371   5.669   5.856  0.00  0.00    +0.121 A 
ATOM     24  C   UNL     1       9.844   4.747   6.790  0.00  0.00    +0.045 A 
ATOM     25  C   UNL     1       8.813   6.872   6.287  0.00  0.00    +0.045 A 
ATOM     26  C   UNL     1       9.758   5.026   8.153  0.00  0.00    +0.004 A 
ATOM     27  C   UNL     1       8.725   7.153   7.651  0.00  0.00    +0.004 A 
ATOM     28  C   UNL     1       9.198   6.230   8.583  0.00  0.00    +0.000 A 
ENDBRANCH   7  23
ENDBRANCH  20   7
ENDBRANCH  18  20
ENDBRANCH  11   8
BRANCH  12   4
ATOM      4  O   UNL     1      14.393   6.763   2.201  0.00  0.00    -0.387 OA
ATOM     30  H   UNL     1      14.626   6.778   3.145  0.00  0.00    +0.210 HD
ENDBRANCH  12   4
BRANCH  14   5
ATOM      5  O   UNL     1      14.987   6.298  -0.440  0.00  0.00    -0.389 OA
ATOM     31  H   UNL     1      15.755   6.887  -0.531  0.00  0.00    +0.210 HD
ENDBRANCH  14   5
TORSDOF 8
ENDMDL
MODEL 6
REMARK VINA RESULT:      -6.3     25.134     27.147
REMARK  Name = 71693989
REMARK  8 active torsions:
REMARK  status: ('A' for Active; 'I' for Inactive)
REMARK    1  A    between atoms: O_4  and  C_12
REMARK    2  A    between atoms: O_5  and  C_14
REMARK    3  A    between atoms: O_7  and  C_20
REMARK    4  A    between atoms: O_7  and  C_23
REMARK    5  A    between atoms: N_8  and  C_11
REMARK    6  A    between atoms: C_10  and  C_15
REMARK    7  A    between atoms: C_18  and  C_20
REMARK    8  A    between atoms: C_21  and  C_22
REMARK                            x       y       z     vdW  Elec       q    Type
REMARK                         _______ _______ _______ _____ _____    ______ ____
ROOT
ATOM     10  C   UNL     1     -14.880   7.245  20.931  0.00  0.00    +0.046 C 
ATOM     11  C   UNL     1     -14.446   7.196  22.415  0.00  0.00    +0.111 C 
ATOM     12  C   UNL     1     -15.320   6.090  23.005  0.00  0.00    +0.164 C 
ATOM     13  C   UNL     1     -15.487   5.852  20.623  0.00  0.00    +0.044 C 
ATOM     14  C   UNL     1     -15.331   5.036  21.905  0.00  0.00    +0.145 C 
ENDROOT
BRANCH  10  15
ATOM      9  N   UNL     1     -12.993   9.054  18.182  0.00  0.00    -0.251 NA
ATOM     15  C   UNL     1     -13.759   7.657  20.001  0.00  0.00    -0.024 A 
ATOM     16  C   UNL     1     -12.505   7.059  20.079  0.00  0.00    +0.007 A 
ATOM     17  C   UNL     1     -13.950   8.640  19.043  0.00  0.00    +0.115 A 
ATOM     19  C   UNL     1     -11.495   7.458  19.211  0.00  0.00    +0.032 A 
ATOM     21  C   UNL     1     -11.787   8.450  18.288  0.00  0.00    +0.144 A 
BRANCH  21  22
ATOM      1  F   UNL     1      -9.669   9.508  17.953  0.00  0.00    -0.164 F 
ATOM      2  F   UNL     1     -11.171   9.807  16.418  0.00  0.00    -0.164 F 
ATOM      3  F   UNL     1     -10.196   7.874  16.619  0.00  0.00    -0.164 F 
ATOM     22  C   UNL     1     -10.728   8.903  17.340  0.00  0.00    +0.434 C 
ENDBRANCH  21  22
ENDBRANCH  10  15
BRANCH  11   8
ATOM      6  O   UNL     1     -12.722   9.518  22.334  0.00  0.00    -0.272 OA
ATOM      8  N   UNL     1     -14.654   8.458  23.079  0.00  0.00    -0.307 N 
ATOM     18  C   UNL     1     -13.766   9.521  22.982  0.00  0.00    +0.251 C 
ATOM     29  H   UNL     1     -15.516   8.588  23.602  0.00  0.00    +0.149 HD
BRANCH  18  20
ATOM     20  C   UNL     1     -14.231  10.719  23.780  0.00  0.00    +0.324 C 
BRANCH  20   7
ATOM      7  O   UNL     1     -13.128  11.438  24.290  0.00  0.00    -0.483 OA
BRANCH   7  23
ATOM     23  C   UNL     1     -12.562  10.975  25.454  0.00  0.00    +0.121 A 
ATOM     24  C   UNL     1     -13.366  10.698  26.560  0.00  0.00    +0.045 A 
ATOM     25  C   UNL     1     -11.182  10.780  25.529  0.00  0.00    +0.045 A 
ATOM     26  C   UNL     1     -12.791  10.229  27.741  0.00  0.00    +0.004 A 
ATOM     27  C   UNL     1     -10.607  10.310  26.710  0.00  0.00    +0.004 A 
ATOM     28  C   UNL     1     -11.412  10.035  27.815  0.00  0.00    +0.000 A 
ENDBRANCH   7  23
ENDBRANCH  20   7
ENDBRANCH  18  20
ENDBRANCH  11   8
BRANCH  12   4
ATOM      4  O   UNL     1     -14.787   5.569  24.207  0.00  0.00    -0.387 OA
ATOM     30  H   UNL     1     -14.039   6.135  24.464  0.00  0.00    +0.210 HD
ENDBRANCH  12   4
BRANCH  14   5
ATOM      5  O   UNL     1     -14.091   4.338  21.853  0.00  0.00    -0.389 OA
ATOM     31  H   UNL     1     -13.404   4.938  22.189  0.00  0.00    +0.210 HD
ENDBRANCH  14   5
TORSDOF 8
ENDMDL
MODEL 7
REMARK VINA RESULT:      -6.2     27.119     29.077
REMARK  Name = 71693989
REMARK  8 active torsions:
REMARK  status: ('A' for Active; 'I' for Inactive)
REMARK    1  A    between atoms: O_4  and  C_12
REMARK    2  A    between atoms: O_5  and  C_14
REMARK    3  A    between atoms: O_7  and  C_20
REMARK    4  A    between atoms: O_7  and  C_23
REMARK    5  A    between atoms: N_8  and  C_11
REMARK    6  A    between atoms: C_10  and  C_15
REMARK    7  A    between atoms: C_18  and  C_20
REMARK    8  A    between atoms: C_21  and  C_22
REMARK                            x       y       z     vdW  Elec       q    Type
REMARK                         _______ _______ _______ _____ _____    ______ ____
ROOT
ATOM     10  C   UNL     1      -5.399  -9.987   7.090  0.00  0.00    +0.046 C 
ATOM     11  C   UNL     1      -6.909  -9.744   7.316  0.00  0.00    +0.111 C 
ATOM     12  C   UNL     1      -7.564 -10.441   6.125  0.00  0.00    +0.164 C 
ATOM     13  C   UNL     1      -5.304 -11.243   6.187  0.00  0.00    +0.044 C 
ATOM     14  C   UNL     1      -6.741 -11.715   5.974  0.00  0.00    +0.145 C 
ENDROOT
BRANCH  10  15
ATOM      9  N   UNL     1      -3.698 -11.470  10.138  0.00  0.00    -0.251 NA
ATOM     15  C   UNL     1      -4.616 -10.086   8.382  0.00  0.00    -0.024 A 
ATOM     16  C   UNL     1      -4.105  -8.950   9.000  0.00  0.00    +0.007 A 
ATOM     17  C   UNL     1      -4.387 -11.311   8.986  0.00  0.00    +0.115 A 
ATOM     19  C   UNL     1      -3.390  -9.072  10.186  0.00  0.00    +0.032 A 
ATOM     21  C   UNL     1      -3.215 -10.343  10.710  0.00  0.00    +0.144 A 
BRANCH  21  22
ATOM      1  F   UNL     1      -1.361  -9.701  12.076  0.00  0.00    -0.164 F 
ATOM      2  F   UNL     1      -1.977 -11.778  12.169  0.00  0.00    -0.164 F 
ATOM      3  F   UNL     1      -3.210 -10.239  13.084  0.00  0.00    -0.164 F 
ATOM     22  C   UNL     1      -2.454 -10.513  11.982  0.00  0.00    +0.434 C 
ENDBRANCH  21  22
ENDBRANCH  10  15
BRANCH  11   8
ATOM      6  O   UNL     1      -7.910  -8.253   9.584  0.00  0.00    -0.272 OA
ATOM      8  N   UNL     1      -7.230  -8.340   7.361  0.00  0.00    -0.307 N 
ATOM     18  C   UNL     1      -7.708  -7.708   8.502  0.00  0.00    +0.251 C 
ATOM     29  H   UNL     1      -7.048  -7.780   6.532  0.00  0.00    +0.149 HD
BRANCH  18  20
ATOM     20  C   UNL     1      -7.959  -6.235   8.266  0.00  0.00    +0.324 C 
BRANCH  20   7
ATOM      7  O   UNL     1      -9.274  -6.023   7.797  0.00  0.00    -0.483 OA
BRANCH   7  23
ATOM     23  C   UNL     1     -10.170  -5.458   8.674  0.00  0.00    +0.121 A 
ATOM     24  C   UNL     1     -10.213  -4.072   8.832  0.00  0.00    +0.045 A 
ATOM     25  C   UNL     1     -11.036  -6.270   9.406  0.00  0.00    +0.045 A 
ATOM     26  C   UNL     1     -11.121  -3.499   9.722  0.00  0.00    +0.004 A 
ATOM     27  C   UNL     1     -11.945  -5.697  10.296  0.00  0.00    +0.004 A 
ATOM     28  C   UNL     1     -11.987  -4.311  10.453  0.00  0.00    +0.000 A 
ENDBRANCH   7  23
ENDBRANCH  20   7
ENDBRANCH  18  20
ENDBRANCH  11   8
BRANCH  12   4
ATOM      4  O   UNL     1      -8.927 -10.738   6.359  0.00  0.00    -0.387 OA
ATOM     30  H   UNL     1      -9.098 -10.594   7.305  0.00  0.00    +0.210 HD
ENDBRANCH  12   4
BRANCH  14   5
ATOM      5  O   UNL     1      -7.068 -12.657   6.992  0.00  0.00    -0.389 OA
ATOM     31  H   UNL     1      -8.011 -12.548   7.199  0.00  0.00    +0.210 HD
ENDBRANCH  14   5
TORSDOF 8
ENDMDL
MODEL 8
REMARK VINA RESULT:      -6.1     14.443     16.908
REMARK  Name = 71693989
REMARK  8 active torsions:
REMARK  status: ('A' for Active; 'I' for Inactive)
REMARK    1  A    between atoms: O_4  and  C_12
REMARK    2  A    between atoms: O_5  and  C_14
REMARK    3  A    between atoms: O_7  and  C_20
REMARK    4  A    between atoms: O_7  and  C_23
REMARK    5  A    between atoms: N_8  and  C_11
REMARK    6  A    between atoms: C_10  and  C_15
REMARK    7  A    between atoms: C_18  and  C_20
REMARK    8  A    between atoms: C_21  and  C_22
REMARK                            x       y       z     vdW  Elec       q    Type
REMARK                         _______ _______ _______ _____ _____    ______ ____
ROOT
ATOM     10  C   UNL     1      10.584   6.144   4.733  0.00  0.00    +0.046 C 
ATOM     11  C   UNL     1      11.563   6.171   5.930  0.00  0.00    +0.111 C 
ATOM     12  C   UNL     1      10.645   6.039   7.144  0.00  0.00    +0.164 C 
ATOM     13  C   UNL     1       9.309   5.427   5.246  0.00  0.00    +0.044 C 
ATOM     14  C   UNL     1       9.613   5.015   6.686  0.00  0.00    +0.145 C 
ENDROOT
BRANCH  10  15
ATOM      9  N   UNL     1      12.515   5.800   1.486  0.00  0.00    -0.251 NA
ATOM     15  C   UNL     1      11.188   5.528   3.489  0.00  0.00    -0.024 A 
ATOM     16  C   UNL     1      10.997   4.184   3.188  0.00  0.00    +0.007 A 
ATOM     17  C   UNL     1      11.949   6.287   2.613  0.00  0.00    +0.115 A 
ATOM     19  C   UNL     1      11.563   3.647   2.038  0.00  0.00    +0.032 A 
ATOM     21  C   UNL     1      12.307   4.489   1.227  0.00  0.00    +0.144 A 
BRANCH  21  22
ATOM      1  F   UNL     1      13.228   4.907  -0.940  0.00  0.00    -0.164 F 
ATOM      2  F   UNL     1      12.143   3.049  -0.676  0.00  0.00    -0.164 F 
ATOM      3  F   UNL     1      14.104   3.297   0.228  0.00  0.00    -0.164 F 
ATOM     22  C   UNL     1      12.930   3.948  -0.016  0.00  0.00    +0.434 C 
ENDBRANCH  21  22
ENDBRANCH  10  15
BRANCH  11   8
ATOM      6  O   UNL     1      14.144   6.564   7.177  0.00  0.00    -0.272 OA
ATOM      8  N   UNL     1      12.335   7.388   5.968  0.00  0.00    -0.307 N 
ATOM     18  C   UNL     1      13.570   7.482   6.595  0.00  0.00    +0.251 C 
ATOM     29  H   UNL     1      11.977   8.198   5.470  0.00  0.00    +0.149 HD
BRANCH  18  20
ATOM     20  C   UNL     1      14.156   8.872   6.481  0.00  0.00    +0.324 C 
BRANCH  20   7
ATOM      7  O   UNL     1      14.696   9.082   5.194  0.00  0.00    -0.483 OA
BRANCH   7  23
ATOM     23  C   UNL     1      16.041   8.844   5.031  0.00  0.00    +0.121 A 
ATOM     24  C   UNL     1      16.919   9.050   6.095  0.00  0.00    +0.045 A 
ATOM     25  C   UNL     1      16.527   8.397   3.803  0.00  0.00    +0.045 A 
ATOM     26  C   UNL     1      18.283   8.809   5.931  0.00  0.00    +0.004 A 
ATOM     27  C   UNL     1      17.891   8.157   3.637  0.00  0.00    +0.004 A 
ATOM     28  C   UNL     1      18.769   8.362   4.702  0.00  0.00    +0.000 A 
ENDBRANCH   7  23
ENDBRANCH  20   7
ENDBRANCH  18  20
ENDBRANCH  11   8
BRANCH  12   4
ATOM      4  O   UNL     1      11.336   5.589   8.293  0.00  0.00    -0.387 OA
ATOM     30  H   UNL     1      12.282   5.557   8.070  0.00  0.00    +0.210 HD
ENDBRANCH  12   4
BRANCH  14   5
ATOM      5  O   UNL     1      10.164   3.702   6.678  0.00  0.00    -0.389 OA
ATOM     31  H   UNL     1      10.688   3.610   5.865  0.00  0.00    +0.210 HD
ENDBRANCH  14   5
TORSDOF 8
ENDMDL
MODEL 9
REMARK VINA RESULT:      -6.1      2.086      5.089
REMARK  Name = 71693989
REMARK  8 active torsions:
REMARK  status: ('A' for Active; 'I' for Inactive)
REMARK    1  A    between atoms: O_4  and  C_12
REMARK    2  A    between atoms: O_5  and  C_14
REMARK    3  A    between atoms: O_7  and  C_20
REMARK    4  A    between atoms: O_7  and  C_23
REMARK    5  A    between atoms: N_8  and  C_11
REMARK    6  A    between atoms: C_10  and  C_15
REMARK    7  A    between atoms: C_18  and  C_20
REMARK    8  A    between atoms: C_21  and  C_22
REMARK                            x       y       z     vdW  Elec       q    Type
REMARK                         _______ _______ _______ _____ _____    ______ ____
ROOT
ATOM     10  C   UNL     1      13.499   7.298  19.841  0.00  0.00    +0.046 C 
ATOM     11  C   UNL     1      13.226   8.815  19.707  0.00  0.00    +0.111 C 
ATOM     12  C   UNL     1      11.840   8.984  20.327  0.00  0.00    +0.164 C 
ATOM     13  C   UNL     1      12.595   6.808  21.001  0.00  0.00    +0.044 C 
ATOM     14  C   UNL     1      11.885   8.052  21.532  0.00  0.00    +0.145 C 
ENDROOT
BRANCH  10  15
ATOM      9  N   UNL     1      16.911   6.907  21.450  0.00  0.00    -0.251 NA
ATOM     15  C   UNL     1      14.967   6.974  20.014  0.00  0.00    -0.024 A 
ATOM     16  C   UNL     1      15.719   6.467  18.960  0.00  0.00    +0.007 A 
ATOM     17  C   UNL     1      15.605   7.174  21.228  0.00  0.00    +0.115 A 
ATOM     19  C   UNL     1      17.066   6.180  19.148  0.00  0.00    +0.032 A 
ATOM     21  C   UNL     1      17.610   6.415  20.401  0.00  0.00    +0.144 A 
BRANCH  21  22
ATOM      1  F   UNL     1      19.466   4.940  20.090  0.00  0.00    -0.164 F 
ATOM      2  F   UNL     1      19.380   6.029  21.963  0.00  0.00    -0.164 F 
ATOM      3  F   UNL     1      19.876   7.075  20.123  0.00  0.00    -0.164 F 
ATOM     22  C   UNL     1      19.053   6.118  20.641  0.00  0.00    +0.434 C 
ENDBRANCH  21  22
ENDBRANCH  10  15
BRANCH  11   8
ATOM      6  O   UNL     1      11.938   7.556  17.444  0.00  0.00    -0.272 OA
ATOM      8  N   UNL     1      13.259   9.250  18.334  0.00  0.00    -0.307 N 
ATOM     18  C   UNL     1      12.607   8.578  17.310  0.00  0.00    +0.251 C 
ATOM     29  H   UNL     1      13.742  10.119  18.119  0.00  0.00    +0.149 HD
BRANCH  18  20
ATOM     20  C   UNL     1      12.809   9.254  15.972  0.00  0.00    +0.324 C 
BRANCH  20   7
ATOM      7  O   UNL     1      14.170   9.574  15.776  0.00  0.00    -0.483 OA
BRANCH   7  23
ATOM     23  C   UNL     1      14.481  10.898  15.574  0.00  0.00    +0.121 A 
ATOM     24  C   UNL     1      15.463  11.512  16.352  0.00  0.00    +0.045 A 
ATOM     25  C   UNL     1      13.815  11.629  14.590  0.00  0.00    +0.045 A 
ATOM     26  C   UNL     1      15.778  12.855  16.147  0.00  0.00    +0.004 A 
ATOM     27  C   UNL     1      14.129  12.972  14.385  0.00  0.00    +0.004 A 
ATOM     28  C   UNL     1      15.111  13.585  15.164  0.00  0.00    +0.000 A 
ENDBRANCH   7  23
ENDBRANCH  20   7
ENDBRANCH  18  20
ENDBRANCH  11   8
BRANCH  12   4
ATOM      4  O   UNL     1      11.588  10.319  20.722  0.00  0.00    -0.387 OA
ATOM     30  H   UNL     1      11.899  10.898  20.006  0.00  0.00    +0.210 HD
ENDBRANCH  12   4
BRANCH  14   5
ATOM      5  O   UNL     1      12.669   8.611  22.582  0.00  0.00    -0.389 OA
ATOM     31  H   UNL     1      13.522   8.145  22.589  0.00  0.00    +0.210 HD
ENDBRANCH  14   5
TORSDOF 8
ENDMDL
MODEL 10
REMARK VINA RESULT:      -6.1     26.701     27.583
REMARK  Name = 71693989
REMARK  8 active torsions:
REMARK  status: ('A' for Active; 'I' for Inactive)
REMARK    1  A    between atoms: O_4  and  C_12
REMARK    2  A    between atoms: O_5  and  C_14
REMARK    3  A    between atoms: O_7  and  C_20
REMARK    4  A    between atoms: O_7  and  C_23
REMARK    5  A    between atoms: N_8  and  C_11
REMARK    6  A    between atoms: C_10  and  C_15
REMARK    7  A    between atoms: C_18  and  C_20
REMARK    8  A    between atoms: C_21  and  C_22
REMARK                            x       y       z     vdW  Elec       q    Type
REMARK                         _______ _______ _______ _____ _____    ______ ____
ROOT
ATOM     10  C   UNL     1      -3.346 -10.132  11.970  0.00  0.00    +0.046 C 
ATOM     11  C   UNL     1      -4.878 -10.138  11.765  0.00  0.00    +0.111 C 
ATOM     12  C   UNL     1      -5.093  -9.109  10.657  0.00  0.00    +0.164 C 
ATOM     13  C   UNL     1      -2.745  -9.599  10.644  0.00  0.00    +0.044 C 
ATOM     14  C   UNL     1      -3.931  -9.375   9.708  0.00  0.00    +0.145 C 
ENDROOT
BRANCH  10  15
ATOM      9  N   UNL     1      -2.672 -13.864  12.050  0.00  0.00    -0.251 NA
ATOM     15  C   UNL     1      -2.802 -11.476  12.406  0.00  0.00    -0.024 A 
ATOM     16  C   UNL     1      -1.969 -11.588  13.513  0.00  0.00    +0.007 A 
ATOM     17  C   UNL     1      -3.122 -12.634  11.715  0.00  0.00    +0.115 A 
ATOM     19  C   UNL     1      -1.486 -12.837  13.890  0.00  0.00    +0.032 A 
ATOM     21  C   UNL     1      -1.864 -13.934  13.132  0.00  0.00    +0.144 A 
BRANCH  21  22
ATOM      1  F   UNL     1      -1.852 -16.288  12.714  0.00  0.00    -0.164 F 
ATOM      2  F   UNL     1      -1.686 -15.657  14.781  0.00  0.00    -0.164 F 
ATOM      3  F   UNL     1      -0.007 -15.388  13.428  0.00  0.00    -0.164 F 
ATOM     22  C   UNL     1      -1.365 -15.289  13.507  0.00  0.00    +0.434 C 
ENDBRANCH  21  22
ENDBRANCH  10  15
BRANCH  11   8
ATOM      6  O   UNL     1      -5.992 -11.947  13.728  0.00  0.00    -0.272 OA
ATOM      8  N   UNL     1      -5.586  -9.786  12.971  0.00  0.00    -0.307 N 
ATOM     18  C   UNL     1      -6.087 -10.729  13.857  0.00  0.00    +0.251 C 
ATOM     29  H   UNL     1      -5.675  -8.800  13.203  0.00  0.00    +0.149 HD
BRANCH  18  20
ATOM     20  C   UNL     1      -6.783 -10.082  15.035  0.00  0.00    +0.324 C 
BRANCH  20   7
ATOM      7  O   UNL     1      -5.841  -9.501  15.912  0.00  0.00    -0.483 OA
BRANCH   7  23
ATOM     23  C   UNL     1      -5.477 -10.233  17.017  0.00  0.00    +0.121 A 
ATOM     24  C   UNL     1      -6.361 -10.368  18.087  0.00  0.00    +0.045 A 
ATOM     25  C   UNL     1      -4.223 -10.842  17.068  0.00  0.00    +0.045 A 
ATOM     26  C   UNL     1      -5.992 -11.111  19.209  0.00  0.00    +0.004 A 
ATOM     27  C   UNL     1      -3.853 -11.585  18.189  0.00  0.00    +0.004 A 
ATOM     28  C   UNL     1      -4.738 -11.719  19.259  0.00  0.00    +0.000 A 
ENDBRANCH   7  23
ENDBRANCH  20   7
ENDBRANCH  18  20
ENDBRANCH  11   8
BRANCH  12   4
ATOM      4  O   UNL     1      -6.336  -9.276  10.002  0.00  0.00    -0.387 OA
ATOM     30  H   UNL     1      -6.866  -8.480  10.175  0.00  0.00    +0.210 HD
ENDBRANCH  12   4
BRANCH  14   5
ATOM      5  O   UNL     1      -4.149 -10.564   8.955  0.00  0.00    -0.389 OA
ATOM     31  H   UNL     1      -4.621 -10.313   8.144  0.00  0.00    +0.210 HD
ENDBRANCH  14   5
TORSDOF 8
ENDMDL
