MODEL 1
REMARK VINA RESULT:      -6.2      0.000      0.000
REMARK  Name = 75536526
REMARK  11 active torsions:
REMARK  status: ('A' for Active; 'I' for Inactive)
REMARK    1  A    between atoms: O_2  and  C_8
REMARK    2  A    between atoms: N_4  and  C_7
REMARK    3  A    between atoms: N_4  and  C_14
REMARK    4  A    between atoms: N_5  and  C_11
REMARK    5  A    between atoms: C_9  and  C_11
REMARK    6  A    between atoms: C_12  and  C_13
REMARK    7  A    between atoms: C_12  and  C_16
REMARK    8  A    between atoms: C_12  and  C_17
REMARK    9  A    between atoms: C_12  and  C_18
REMARK   10  A    between atoms: C_13  and  C_15
REMARK   11  A    between atoms: C_14  and  C_19
REMARK                            x       y       z     vdW  Elec       q    Type
REMARK                         _______ _______ _______ _____ _____    ______ ____
ROOT
ATOM      1  O   UNL     1     -12.447  -7.597  16.568  0.00  0.00    -0.371 OA
ATOM      7  C   UNL     1     -10.072  -7.583  16.599  0.00  0.00    +0.111 C 
ATOM      8  C   UNL     1     -10.557  -6.706  15.460  0.00  0.00    +0.164 C 
ATOM      9  C   UNL     1     -11.983  -6.409  15.904  0.00  0.00    +0.165 C 
ATOM     10  C   UNL     1     -11.310  -8.419  16.883  0.00  0.00    +0.181 C 
ENDROOT
BRANCH   8   2
ATOM      2  O   UNL     1      -9.793  -5.524  15.317  0.00  0.00    -0.388 OA
ATOM     26  H   UNL     1     -10.392  -4.803  15.062  0.00  0.00    +0.210 HD
ENDBRANCH   8   2
BRANCH   7   4
ATOM      4  N   UNL     1      -8.910  -8.389  16.261  0.00  0.00    -0.305 NA
ATOM     24  H   UNL     1      -8.107  -7.773  16.124  0.00  0.00    +0.123 HD
BRANCH   4  14
ATOM     14  C   UNL     1      -8.600  -9.337  17.325  0.00  0.00    +0.118 C 
BRANCH  14  19
ATOM      6  N   UNL     1      -5.095  -9.975  16.047  0.00  0.00    -0.263 NA
ATOM     19  C   UNL     1      -7.160  -9.771  17.288  0.00  0.00    -0.015 A 
ATOM     20  C   UNL     1      -6.558 -10.353  18.399  0.00  0.00    +0.008 A 
ATOM     21  C   UNL     1      -6.391  -9.606  16.147  0.00  0.00    +0.115 A 
ATOM     22  C   UNL     1      -5.226 -10.745  18.335  0.00  0.00    +0.020 A 
ATOM     23  C   UNL     1      -4.544 -10.537  17.146  0.00  0.00    +0.111 A 
ENDBRANCH  14  19
ENDBRANCH   4  14
ENDBRANCH   7   4
BRANCH   9  11
ATOM     11  C   UNL     1     -12.912  -6.068  14.753  0.00  0.00    +0.138 C 
BRANCH  11   5
ATOM      3  O   UNL     1     -13.925  -3.749  13.344  0.00  0.00    -0.276 OA
ATOM      5  N   UNL     1     -12.235  -5.294  13.738  0.00  0.00    -0.313 N 
ATOM     15  C   UNL     1     -12.803  -4.194  13.118  0.00  0.00    +0.214 C 
ATOM     25  H   UNL     1     -11.293  -5.576  13.485  0.00  0.00    +0.149 HD
BRANCH  15  13
ATOM     13  C   UNL     1     -11.890  -3.559  12.081  0.00  0.00    +0.102 C 
BRANCH  13  12
ATOM     12  C   UNL     1     -12.187  -3.972  10.620  0.00  0.00    -0.029 C 
ATOM     16  C   UNL     1     -11.147  -3.379   9.654  0.00  0.00    +0.011 C 
ATOM     17  C   UNL     1     -12.111  -5.509  10.533  0.00  0.00    +0.011 C 
ATOM     18  C   UNL     1     -13.593  -3.529  10.184  0.00  0.00    +0.011 C 
ENDBRANCH  13  12
ENDBRANCH  15  13
ENDBRANCH  11   5
ENDBRANCH   9  11
TORSDOF 8
ENDMDL
MODEL 2
REMARK VINA RESULT:      -6.2     19.668     21.267
REMARK  Name = 75536526
REMARK  11 active torsions:
REMARK  status: ('A' for Active; 'I' for Inactive)
REMARK    1  A    between atoms: O_2  and  C_8
REMARK    2  A    between atoms: N_4  and  C_7
REMARK    3  A    between atoms: N_4  and  C_14
REMARK    4  A    between atoms: N_5  and  C_11
REMARK    5  A    between atoms: C_9  and  C_11
REMARK    6  A    between atoms: C_12  and  C_13
REMARK    7  A    between atoms: C_12  and  C_16
REMARK    8  A    between atoms: C_12  and  C_17
REMARK    9  A    between atoms: C_12  and  C_18
REMARK   10  A    between atoms: C_13  and  C_15
REMARK   11  A    between atoms: C_14  and  C_19
REMARK                            x       y       z     vdW  Elec       q    Type
REMARK                         _______ _______ _______ _____ _____    ______ ____
ROOT
ATOM      1  O   UNL     1      -1.420 -15.537  -2.087  0.00  0.00    -0.371 OA
ATOM      7  C   UNL     1      -0.676 -14.225  -0.252  0.00  0.00    +0.111 C 
ATOM      8  C   UNL     1      -1.510 -13.356  -1.176  0.00  0.00    +0.164 C 
ATOM      9  C   UNL     1      -2.301 -14.411  -1.937  0.00  0.00    +0.165 C 
ATOM     10  C   UNL     1      -0.324 -15.386  -1.168  0.00  0.00    +0.181 C 
ENDROOT
BRANCH   8   2
ATOM      2  O   UNL     1      -2.356 -12.467  -0.473  0.00  0.00    -0.388 OA
ATOM     26  H   UNL     1      -1.954 -11.582  -0.496  0.00  0.00    +0.210 HD
ENDBRANCH   8   2
BRANCH   7   4
ATOM      4  N   UNL     1       0.496 -13.551   0.284  0.00  0.00    -0.305 NA
ATOM     24  H   UNL     1       0.198 -12.709   0.779  0.00  0.00    +0.123 HD
BRANCH   4  14
ATOM     14  C   UNL     1       1.219 -14.412   1.211  0.00  0.00    +0.118 C 
BRANCH  14  19
ATOM      6  N   UNL     1       4.738 -15.799   1.055  0.00  0.00    -0.263 NA
ATOM     19  C   UNL     1       2.655 -14.598   0.800  0.00  0.00    -0.015 A 
ATOM     20  C   UNL     1       3.233 -13.787  -0.172  0.00  0.00    +0.008 A 
ATOM     21  C   UNL     1       3.443 -15.581   1.376  0.00  0.00    +0.115 A 
ATOM     22  C   UNL     1       4.562 -13.982  -0.530  0.00  0.00    +0.020 A 
ATOM     23  C   UNL     1       5.265 -14.992   0.107  0.00  0.00    +0.111 A 
ENDBRANCH  14  19
ENDBRANCH   4  14
ENDBRANCH   7   4
BRANCH   9  11
ATOM     11  C   UNL     1      -2.773 -13.942  -3.300  0.00  0.00    +0.138 C 
BRANCH  11   5
ATOM      3  O   UNL     1      -0.661 -14.291  -5.251  0.00  0.00    -0.276 OA
ATOM      5  N   UNL     1      -1.900 -12.924  -3.840  0.00  0.00    -0.313 N 
ATOM     15  C   UNL     1      -0.914 -13.187  -4.775  0.00  0.00    +0.214 C 
ATOM     25  H   UNL     1      -2.036 -11.972  -3.515  0.00  0.00    +0.149 HD
BRANCH  15  13
ATOM     13  C   UNL     1      -0.128 -11.949  -5.176  0.00  0.00    +0.102 C 
BRANCH  13  12
ATOM     12  C   UNL     1       1.326 -11.908  -4.648  0.00  0.00    -0.029 C 
ATOM     16  C   UNL     1       2.297 -12.555  -5.650  0.00  0.00    +0.011 C 
ATOM     17  C   UNL     1       1.726 -10.431  -4.467  0.00  0.00    +0.011 C 
ATOM     18  C   UNL     1       1.453 -12.616  -3.290  0.00  0.00    +0.011 C 
ENDBRANCH  13  12
ENDBRANCH  15  13
ENDBRANCH  11   5
ENDBRANCH   9  11
TORSDOF 8
ENDMDL
MODEL 3
REMARK VINA RESULT:      -6.0     15.337     17.851
REMARK  Name = 75536526
REMARK  11 active torsions:
REMARK  status: ('A' for Active; 'I' for Inactive)
REMARK    1  A    between atoms: O_2  and  C_8
REMARK    2  A    between atoms: N_4  and  C_7
REMARK    3  A    between atoms: N_4  and  C_14
REMARK    4  A    between atoms: N_5  and  C_11
REMARK    5  A    between atoms: C_9  and  C_11
REMARK    6  A    between atoms: C_12  and  C_13
REMARK    7  A    between atoms: C_12  and  C_16
REMARK    8  A    between atoms: C_12  and  C_17
REMARK    9  A    between atoms: C_12  and  C_18
REMARK   10  A    between atoms: C_13  and  C_15
REMARK   11  A    between atoms: C_14  and  C_19
REMARK                            x       y       z     vdW  Elec       q    Type
REMARK                         _______ _______ _______ _____ _____    ______ ____
ROOT
ATOM      1  O   UNL     1     -17.721   5.142  24.152  0.00  0.00    -0.371 OA
ATOM      7  C   UNL     1     -15.939   4.038  23.035  0.00  0.00    +0.111 C 
ATOM      8  C   UNL     1     -15.813   3.796  24.528  0.00  0.00    +0.164 C 
ATOM      9  C   UNL     1     -17.234   4.083  24.993  0.00  0.00    +0.165 C 
ATOM     10  C   UNL     1     -16.863   5.246  23.003  0.00  0.00    +0.181 C 
ENDROOT
BRANCH   8   2
ATOM      2  O   UNL     1     -15.414   2.475  24.835  0.00  0.00    -0.388 OA
ATOM     26  H   UNL     1     -14.652   2.519  25.437  0.00  0.00    +0.210 HD
ENDBRANCH   8   2
BRANCH   7   4
ATOM      4  N   UNL     1     -14.667   4.281  22.373  0.00  0.00    -0.305 NA
ATOM     24  H   UNL     1     -14.807   4.249  21.362  0.00  0.00    +0.123 HD
BRANCH   4  14
ATOM     14  C   UNL     1     -14.129   5.587  22.733  0.00  0.00    +0.118 C 
BRANCH  14  19
ATOM      6  N   UNL     1     -13.985   7.639  19.556  0.00  0.00    -0.263 NA
ATOM     19  C   UNL     1     -13.577   6.315  21.537  0.00  0.00    -0.015 A 
ATOM     20  C   UNL     1     -12.209   6.351  21.288  0.00  0.00    +0.008 A 
ATOM     21  C   UNL     1     -14.414   6.969  20.648  0.00  0.00    +0.115 A 
ATOM     22  C   UNL     1     -11.728   7.031  20.175  0.00  0.00    +0.020 A 
ATOM     23  C   UNL     1     -12.649   7.653  19.347  0.00  0.00    +0.111 A 
ENDBRANCH  14  19
ENDBRANCH   4  14
ENDBRANCH   7   4
BRANCH   9  11
ATOM     11  C   UNL     1     -17.317   4.504  26.449  0.00  0.00    +0.138 C 
BRANCH  11   5
ATOM      3  O   UNL     1     -17.134   4.269  29.330  0.00  0.00    -0.276 OA
ATOM      5  N   UNL     1     -16.215   3.970  27.217  0.00  0.00    -0.313 N 
ATOM     15  C   UNL     1     -16.219   3.898  28.600  0.00  0.00    +0.214 C 
ATOM     25  H   UNL     1     -15.410   3.626  26.704  0.00  0.00    +0.149 HD
BRANCH  15  13
ATOM     13  C   UNL     1     -14.939   3.305  29.168  0.00  0.00    +0.102 C 
BRANCH  13  12
ATOM     12  C   UNL     1     -15.134   1.994  29.966  0.00  0.00    -0.029 C 
ATOM     16  C   UNL     1     -13.833   1.174  30.009  0.00  0.00    +0.011 C 
ATOM     17  C   UNL     1     -15.521   2.367  31.410  0.00  0.00    +0.011 C 
ATOM     18  C   UNL     1     -16.257   1.131  29.369  0.00  0.00    +0.011 C 
ENDBRANCH  13  12
ENDBRANCH  15  13
ENDBRANCH  11   5
ENDBRANCH   9  11
TORSDOF 8
ENDMDL
MODEL 4
REMARK VINA RESULT:      -5.9     29.344     32.068
REMARK  Name = 75536526
REMARK  11 active torsions:
REMARK  status: ('A' for Active; 'I' for Inactive)
REMARK    1  A    between atoms: O_2  and  C_8
REMARK    2  A    between atoms: N_4  and  C_7
REMARK    3  A    between atoms: N_4  and  C_14
REMARK    4  A    between atoms: N_5  and  C_11
REMARK    5  A    between atoms: C_9  and  C_11
REMARK    6  A    between atoms: C_12  and  C_13
REMARK    7  A    between atoms: C_12  and  C_16
REMARK    8  A    between atoms: C_12  and  C_17
REMARK    9  A    between atoms: C_12  and  C_18
REMARK   10  A    between atoms: C_13  and  C_15
REMARK   11  A    between atoms: C_14  and  C_19
REMARK                            x       y       z     vdW  Elec       q    Type
REMARK                         _______ _______ _______ _____ _____    ______ ____
ROOT
ATOM      1  O   UNL     1      18.888   7.319  21.880  0.00  0.00    -0.371 OA
ATOM      7  C   UNL     1      20.021   5.898  20.350  0.00  0.00    +0.111 C 
ATOM      8  C   UNL     1      18.526   5.784  20.117  0.00  0.00    +0.164 C 
ATOM      9  C   UNL     1      18.030   7.076  20.752  0.00  0.00    +0.165 C 
ATOM     10  C   UNL     1      20.063   6.500  21.745  0.00  0.00    +0.181 C 
ENDROOT
BRANCH   8   2
ATOM      2  O   UNL     1      18.191   5.708  18.745  0.00  0.00    -0.388 OA
ATOM     26  H   UNL     1      17.748   6.536  18.493  0.00  0.00    +0.210 HD
ENDBRANCH   8   2
BRANCH   7   4
ATOM      4  N   UNL     1      20.724   4.628  20.260  0.00  0.00    -0.305 NA
ATOM     24  H   UNL     1      21.254   4.603  19.388  0.00  0.00    +0.123 HD
BRANCH   4  14
ATOM     14  C   UNL     1      21.646   4.458  21.376  0.00  0.00    +0.118 C 
BRANCH  14  19
ATOM      6  N   UNL     1      25.102   4.093  19.876  0.00  0.00    -0.263 NA
ATOM     19  C   UNL     1      22.946   3.838  20.941  0.00  0.00    -0.015 A 
ATOM     20  C   UNL     1      23.212   2.493  21.174  0.00  0.00    +0.008 A 
ATOM     21  C   UNL     1      23.915   4.588  20.295  0.00  0.00    +0.115 A 
ATOM     22  C   UNL     1      24.422   1.948  20.759  0.00  0.00    +0.020 A 
ATOM     23  C   UNL     1      25.325   2.782  20.120  0.00  0.00    +0.111 A 
ENDBRANCH  14  19
ENDBRANCH   4  14
ENDBRANCH   7   4
BRANCH   9  11
ATOM     11  C   UNL     1      16.585   7.005  21.212  0.00  0.00    +0.138 C 
BRANCH  11   5
ATOM      3  O   UNL     1      15.395   6.367  18.649  0.00  0.00    -0.276 OA
ATOM      5  N   UNL     1      15.731   7.848  20.407  0.00  0.00    -0.313 N 
ATOM     15  C   UNL     1      15.206   7.455  19.188  0.00  0.00    +0.214 C 
ATOM     25  H   UNL     1      15.507   8.769  20.771  0.00  0.00    +0.149 HD
BRANCH  15  13
ATOM     13  C   UNL     1      14.347   8.526  18.537  0.00  0.00    +0.102 C 
BRANCH  13  12
ATOM     12  C   UNL     1      12.857   8.500  18.951  0.00  0.00    -0.029 C 
ATOM     16  C   UNL     1      11.939   8.678  17.730  0.00  0.00    +0.011 C 
ATOM     17  C   UNL     1      12.562   7.126  19.585  0.00  0.00    +0.011 C 
ATOM     18  C   UNL     1      12.540   9.591  19.986  0.00  0.00    +0.011 C 
ENDBRANCH  13  12
ENDBRANCH  15  13
ENDBRANCH  11   5
ENDBRANCH   9  11
TORSDOF 8
ENDMDL
MODEL 5
REMARK VINA RESULT:      -5.9     29.124     32.870
REMARK  Name = 75536526
REMARK  11 active torsions:
REMARK  status: ('A' for Active; 'I' for Inactive)
REMARK    1  A    between atoms: O_2  and  C_8
REMARK    2  A    between atoms: N_4  and  C_7
REMARK    3  A    between atoms: N_4  and  C_14
REMARK    4  A    between atoms: N_5  and  C_11
REMARK    5  A    between atoms: C_9  and  C_11
REMARK    6  A    between atoms: C_12  and  C_13
REMARK    7  A    between atoms: C_12  and  C_16
REMARK    8  A    between atoms: C_12  and  C_17
REMARK    9  A    between atoms: C_12  and  C_18
REMARK   10  A    between atoms: C_13  and  C_15
REMARK   11  A    between atoms: C_14  and  C_19
REMARK                            x       y       z     vdW  Elec       q    Type
REMARK                         _______ _______ _______ _____ _____    ______ ____
ROOT
ATOM      1  O   UNL     1      19.123   7.029  21.871  0.00  0.00    -0.371 OA
ATOM      7  C   UNL     1      17.198   6.744  20.510  0.00  0.00    +0.111 C 
ATOM      8  C   UNL     1      18.424   6.304  19.731  0.00  0.00    +0.164 C 
ATOM      9  C   UNL     1      19.413   6.049  20.861  0.00  0.00    +0.165 C 
ATOM     10  C   UNL     1      17.825   7.590  21.606  0.00  0.00    +0.181 C 
ENDROOT
BRANCH   8   2
ATOM      2  O   UNL     1      18.193   5.141  18.960  0.00  0.00    -0.388 OA
ATOM     26  H   UNL     1      17.695   4.508  19.504  0.00  0.00    +0.210 HD
ENDBRANCH   8   2
BRANCH   7   4
ATOM      4  N   UNL     1      16.232   7.480  19.710  0.00  0.00    -0.305 NA
ATOM     24  H   UNL     1      16.693   7.825  18.867  0.00  0.00    +0.123 HD
BRANCH   4  14
ATOM     14  C   UNL     1      15.114   6.629  19.321  0.00  0.00    +0.118 C 
BRANCH  14  19
ATOM      6  N   UNL     1      11.473   7.621  19.607  0.00  0.00    -0.263 NA
ATOM     19  C   UNL     1      13.814   7.104  19.912  0.00  0.00    -0.015 A 
ATOM     20  C   UNL     1      13.726   7.461  21.254  0.00  0.00    +0.008 A 
ATOM     21  C   UNL     1      12.669   7.201  19.139  0.00  0.00    +0.115 A 
ATOM     22  C   UNL     1      12.512   7.898  21.772  0.00  0.00    +0.020 A 
ATOM     23  C   UNL     1      11.425   7.960  20.915  0.00  0.00    +0.111 A 
ENDBRANCH  14  19
ENDBRANCH   4  14
ENDBRANCH   7   4
BRANCH   9  11
ATOM     11  C   UNL     1      20.863   6.169  20.429  0.00  0.00    +0.138 C 
BRANCH  11   5
ATOM      3  O   UNL     1      21.586   4.339  22.554  0.00  0.00    -0.276 OA
ATOM      5  N   UNL     1      21.485   4.872  20.295  0.00  0.00    -0.313 N 
ATOM     15  C   UNL     1      21.794   4.063  21.375  0.00  0.00    +0.214 C 
ATOM     25  H   UNL     1      21.690   4.546  19.355  0.00  0.00    +0.149 HD
BRANCH  15  13
ATOM     13  C   UNL     1      22.450   2.753  20.969  0.00  0.00    +0.102 C 
BRANCH  13  12
ATOM     12  C   UNL     1      23.995   2.753  21.047  0.00  0.00    -0.029 C 
ATOM     16  C   UNL     1      24.616   3.299  19.750  0.00  0.00    +0.011 C 
ATOM     17  C   UNL     1      24.414   3.672  22.211  0.00  0.00    +0.011 C 
ATOM     18  C   UNL     1      24.545   1.343  21.318  0.00  0.00    +0.011 C 
ENDBRANCH  13  12
ENDBRANCH  15  13
ENDBRANCH  11   5
ENDBRANCH   9  11
TORSDOF 8
ENDMDL
MODEL 6
REMARK VINA RESULT:      -5.8      4.714      8.780
REMARK  Name = 75536526
REMARK  11 active torsions:
REMARK  status: ('A' for Active; 'I' for Inactive)
REMARK    1  A    between atoms: O_2  and  C_8
REMARK    2  A    between atoms: N_4  and  C_7
REMARK    3  A    between atoms: N_4  and  C_14
REMARK    4  A    between atoms: N_5  and  C_11
REMARK    5  A    between atoms: C_9  and  C_11
REMARK    6  A    between atoms: C_12  and  C_13
REMARK    7  A    between atoms: C_12  and  C_16
REMARK    8  A    between atoms: C_12  and  C_17
REMARK    9  A    between atoms: C_12  and  C_18
REMARK   10  A    between atoms: C_13  and  C_15
REMARK   11  A    between atoms: C_14  and  C_19
REMARK                            x       y       z     vdW  Elec       q    Type
REMARK                         _______ _______ _______ _____ _____    ______ ____
ROOT
ATOM      1  O   UNL     1      -4.562 -11.977  17.666  0.00  0.00    -0.371 OA
ATOM      7  C   UNL     1      -6.516 -10.645  17.447  0.00  0.00    +0.111 C 
ATOM      8  C   UNL     1      -5.372  -9.968  16.715  0.00  0.00    +0.164 C 
ATOM      9  C   UNL     1      -4.424 -11.141  16.505  0.00  0.00    +0.165 C 
ATOM     10  C   UNL     1      -5.766 -11.603  18.358  0.00  0.00    +0.181 C 
ENDROOT
BRANCH   8   2
ATOM      2  O   UNL     1      -5.773  -9.388  15.490  0.00  0.00    -0.388 OA
ATOM     26  H   UNL     1      -6.530  -8.802  15.663  0.00  0.00    +0.210 HD
ENDBRANCH   8   2
BRANCH   7   4
ATOM      4  N   UNL     1      -7.370  -9.720  18.177  0.00  0.00    -0.305 NA
ATOM     24  H   UNL     1      -7.383  -8.824  17.689  0.00  0.00    +0.123 HD
BRANCH   4  14
ATOM     14  C   UNL     1      -8.734 -10.226  18.269  0.00  0.00    +0.118 C 
BRANCH  14  19
ATOM      6  N   UNL     1     -12.033  -8.636  17.315  0.00  0.00    -0.263 NA
ATOM     19  C   UNL     1      -9.727  -9.276  17.657  0.00  0.00    -0.015 A 
ATOM     20  C   UNL     1      -9.306  -8.194  16.891  0.00  0.00    +0.008 A 
ATOM     21  C   UNL     1     -11.090  -9.450  17.838  0.00  0.00    +0.115 A 
ATOM     22  C   UNL     1     -10.247  -7.334  16.337  0.00  0.00    +0.020 A 
ATOM     23  C   UNL     1     -11.586  -7.596  16.576  0.00  0.00    +0.111 A 
ENDBRANCH  14  19
ENDBRANCH   4  14
ENDBRANCH   7   4
BRANCH   9  11
ATOM     11  C   UNL     1      -2.974 -10.720  16.344  0.00  0.00    +0.138 C 
BRANCH  11   5
ATOM      3  O   UNL     1      -1.907 -12.259  14.134  0.00  0.00    -0.276 OA
ATOM      5  N   UNL     1      -2.703 -10.256  15.003  0.00  0.00    -0.313 N 
ATOM     15  C   UNL     1      -2.190 -11.070  14.007  0.00  0.00    +0.214 C 
ATOM     25  H   UNL     1      -2.913  -9.286  14.793  0.00  0.00    +0.149 HD
BRANCH  15  13
ATOM     13  C   UNL     1      -1.988 -10.341  12.688  0.00  0.00    +0.102 C 
BRANCH  13  12
ATOM     12  C   UNL     1      -3.137 -10.522  11.667  0.00  0.00    -0.029 C 
ATOM     16  C   UNL     1      -4.501 -10.223  12.310  0.00  0.00    +0.011 C 
ATOM     17  C   UNL     1      -2.913  -9.522  10.516  0.00  0.00    +0.011 C 
ATOM     18  C   UNL     1      -3.152 -11.943  11.082  0.00  0.00    +0.011 C 
ENDBRANCH  13  12
ENDBRANCH  15  13
ENDBRANCH  11   5
ENDBRANCH   9  11
TORSDOF 8
ENDMDL
MODEL 7
REMARK VINA RESULT:      -5.8      6.934      8.483
REMARK  Name = 75536526
REMARK  11 active torsions:
REMARK  status: ('A' for Active; 'I' for Inactive)
REMARK    1  A    between atoms: O_2  and  C_8
REMARK    2  A    between atoms: N_4  and  C_7
REMARK    3  A    between atoms: N_4  and  C_14
REMARK    4  A    between atoms: N_5  and  C_11
REMARK    5  A    between atoms: C_9  and  C_11
REMARK    6  A    between atoms: C_12  and  C_13
REMARK    7  A    between atoms: C_12  and  C_16
REMARK    8  A    between atoms: C_12  and  C_17
REMARK    9  A    between atoms: C_12  and  C_18
REMARK   10  A    between atoms: C_13  and  C_15
REMARK   11  A    between atoms: C_14  and  C_19
REMARK                            x       y       z     vdW  Elec       q    Type
REMARK                         _______ _______ _______ _____ _____    ______ ____
ROOT
ATOM      1  O   UNL     1      -3.921 -10.400  13.827  0.00  0.00    -0.371 OA
ATOM      7  C   UNL     1      -3.445 -11.115  16.042  0.00  0.00    +0.111 C 
ATOM      8  C   UNL     1      -2.287 -11.498  15.139  0.00  0.00    +0.164 C 
ATOM      9  C   UNL     1      -2.497 -10.543  13.971  0.00  0.00    +0.165 C 
ATOM     10  C   UNL     1      -4.552 -10.880  15.027  0.00  0.00    +0.181 C 
ENDROOT
BRANCH   8   2
ATOM      2  O   UNL     1      -1.028 -11.308  15.755  0.00  0.00    -0.388 OA
ATOM     26  H   UNL     1      -0.442 -10.863  15.119  0.00  0.00    +0.210 HD
ENDBRANCH   8   2
BRANCH   7   4
ATOM      4  N   UNL     1      -3.783 -12.136  17.021  0.00  0.00    -0.305 NA
ATOM     24  H   UNL     1      -2.999 -12.785  17.109  0.00  0.00    +0.123 HD
BRANCH   4  14
ATOM     14  C   UNL     1      -4.052 -11.544  18.326  0.00  0.00    +0.118 C 
BRANCH  14  19
ATOM      6  N   UNL     1      -7.402 -10.810  19.927  0.00  0.00    -0.263 NA
ATOM     19  C   UNL     1      -5.499 -11.679  18.715  0.00  0.00    -0.015 A 
ATOM     20  C   UNL     1      -6.267 -12.747  18.261  0.00  0.00    +0.008 A 
ATOM     21  C   UNL     1      -6.109 -10.747  19.538  0.00  0.00    +0.115 A 
ATOM     22  C   UNL     1      -7.601 -12.846  18.639  0.00  0.00    +0.020 A 
ATOM     23  C   UNL     1      -8.116 -11.861  19.466  0.00  0.00    +0.111 A 
ENDBRANCH  14  19
ENDBRANCH   4  14
ENDBRANCH   7   4
BRANCH   9  11
ATOM     11  C   UNL     1      -1.898 -11.044  12.670  0.00  0.00    +0.138 C 
BRANCH  11   5
ATOM      3  O   UNL     1      -2.200  -9.132  10.515  0.00  0.00    -0.276 OA
ATOM      5  N   UNL     1      -2.879 -11.066  11.609  0.00  0.00    -0.313 N 
ATOM     15  C   UNL     1      -2.946 -10.103  10.616  0.00  0.00    +0.214 C 
ATOM     25  H   UNL     1      -3.539 -11.837  11.599  0.00  0.00    +0.149 HD
BRANCH  15  13
ATOM     13  C   UNL     1      -4.071 -10.349   9.625  0.00  0.00    +0.102 C 
BRANCH  13  12
ATOM     12  C   UNL     1      -5.418  -9.686   9.999  0.00  0.00    -0.029 C 
ATOM     16  C   UNL     1      -6.107  -9.093   8.759  0.00  0.00    +0.011 C 
ATOM     17  C   UNL     1      -6.336 -10.773  10.592  0.00  0.00    +0.011 C 
ATOM     18  C   UNL     1      -5.230  -8.581  11.051  0.00  0.00    +0.011 C 
ENDBRANCH  13  12
ENDBRANCH  15  13
ENDBRANCH  11   5
ENDBRANCH   9  11
TORSDOF 8
ENDMDL
MODEL 8
REMARK VINA RESULT:      -5.8      4.118      6.374
REMARK  Name = 75536526
REMARK  11 active torsions:
REMARK  status: ('A' for Active; 'I' for Inactive)
REMARK    1  A    between atoms: O_2  and  C_8
REMARK    2  A    between atoms: N_4  and  C_7
REMARK    3  A    between atoms: N_4  and  C_14
REMARK    4  A    between atoms: N_5  and  C_11
REMARK    5  A    between atoms: C_9  and  C_11
REMARK    6  A    between atoms: C_12  and  C_13
REMARK    7  A    between atoms: C_12  and  C_16
REMARK    8  A    between atoms: C_12  and  C_17
REMARK    9  A    between atoms: C_12  and  C_18
REMARK   10  A    between atoms: C_13  and  C_15
REMARK   11  A    between atoms: C_14  and  C_19
REMARK                            x       y       z     vdW  Elec       q    Type
REMARK                         _______ _______ _______ _____ _____    ______ ____
ROOT
ATOM      1  O   UNL     1      -7.626 -12.937  18.642  0.00  0.00    -0.371 OA
ATOM      7  C   UNL     1      -5.599 -11.715  18.846  0.00  0.00    +0.111 C 
ATOM      8  C   UNL     1      -6.766 -10.788  19.132  0.00  0.00    +0.164 C 
ATOM      9  C   UNL     1      -7.860 -11.790  19.478  0.00  0.00    +0.165 C 
ATOM     10  C   UNL     1      -6.291 -12.853  18.113  0.00  0.00    +0.181 C 
ENDROOT
BRANCH   8   2
ATOM      2  O   UNL     1      -6.509  -9.899  20.201  0.00  0.00    -0.388 OA
ATOM     26  H   UNL     1      -5.581 -10.008  20.471  0.00  0.00    +0.210 HD
ENDBRANCH   8   2
BRANCH   7   4
ATOM      4  N   UNL     1      -4.541 -11.097  18.062  0.00  0.00    -0.305 NA
ATOM     24  H   UNL     1      -3.781 -11.769  17.943  0.00  0.00    +0.123 HD
BRANCH   4  14
ATOM     14  C   UNL     1      -5.027 -10.697  16.748  0.00  0.00    +0.118 C 
BRANCH  14  19
ATOM      6  N   UNL     1      -3.225 -10.566  13.422  0.00  0.00    -0.263 NA
ATOM     19  C   UNL     1      -3.914 -10.616  15.739  0.00  0.00    -0.015 A 
ATOM     20  C   UNL     1      -2.586 -10.521  16.143  0.00  0.00    +0.008 A 
ATOM     21  C   UNL     1      -4.177 -10.634  14.379  0.00  0.00    +0.115 A 
ATOM     22  C   UNL     1      -1.579 -10.448  15.188  0.00  0.00    +0.020 A 
ATOM     23  C   UNL     1      -1.947 -10.474  13.852  0.00  0.00    +0.111 A 
ENDBRANCH  14  19
ENDBRANCH   4  14
ENDBRANCH   7   4
BRANCH   9  11
ATOM     11  C   UNL     1      -9.261 -11.258  19.240  0.00  0.00    +0.138 C 
BRANCH  11   5
ATOM      3  O   UNL     1     -11.522  -9.738  18.256  0.00  0.00    -0.276 OA
ATOM      5  N   UNL     1      -9.233  -9.973  18.579  0.00  0.00    -0.313 N 
ATOM     15  C   UNL     1     -10.373  -9.319  18.142  0.00  0.00    +0.214 C 
ATOM     25  H   UNL     1      -8.327  -9.536  18.444  0.00  0.00    +0.149 HD
BRANCH  15  13
ATOM     13  C   UNL     1     -10.074  -7.988  17.470  0.00  0.00    +0.102 C 
BRANCH  13  12
ATOM     12  C   UNL     1     -10.805  -7.766  16.125  0.00  0.00    -0.029 C 
ATOM     16  C   UNL     1     -12.331  -7.753  16.319  0.00  0.00    +0.011 C 
ATOM     17  C   UNL     1     -10.374  -6.394  15.570  0.00  0.00    +0.011 C 
ATOM     18  C   UNL     1     -10.434  -8.845  15.096  0.00  0.00    +0.011 C 
ENDBRANCH  13  12
ENDBRANCH  15  13
ENDBRANCH  11   5
ENDBRANCH   9  11
TORSDOF 8
ENDMDL
MODEL 9
REMARK VINA RESULT:      -5.6     28.133     31.521
REMARK  Name = 75536526
REMARK  11 active torsions:
REMARK  status: ('A' for Active; 'I' for Inactive)
REMARK    1  A    between atoms: O_2  and  C_8
REMARK    2  A    between atoms: N_4  and  C_7
REMARK    3  A    between atoms: N_4  and  C_14
REMARK    4  A    between atoms: N_5  and  C_11
REMARK    5  A    between atoms: C_9  and  C_11
REMARK    6  A    between atoms: C_12  and  C_13
REMARK    7  A    between atoms: C_12  and  C_16
REMARK    8  A    between atoms: C_12  and  C_17
REMARK    9  A    between atoms: C_12  and  C_18
REMARK   10  A    between atoms: C_13  and  C_15
REMARK   11  A    between atoms: C_14  and  C_19
REMARK                            x       y       z     vdW  Elec       q    Type
REMARK                         _______ _______ _______ _____ _____    ______ ____
ROOT
ATOM      1  O   UNL     1      16.716   6.897  19.381  0.00  0.00    -0.371 OA
ATOM      7  C   UNL     1      14.391   7.252  19.709  0.00  0.00    +0.111 C 
ATOM      8  C   UNL     1      15.010   6.790  21.015  0.00  0.00    +0.164 C 
ATOM      9  C   UNL     1      16.477   7.125  20.780  0.00  0.00    +0.165 C 
ATOM     10  C   UNL     1      15.448   6.821  18.705  0.00  0.00    +0.181 C 
ENDROOT
BRANCH   8   2
ATOM      2  O   UNL     1      14.487   7.471  22.139  0.00  0.00    -0.388 OA
ATOM     26  H   UNL     1      14.712   6.962  22.936  0.00  0.00    +0.210 HD
ENDBRANCH   8   2
BRANCH   7   4
ATOM      4  N   UNL     1      13.086   6.667  19.443  0.00  0.00    -0.305 NA
ATOM     24  H   UNL     1      12.785   6.138  20.263  0.00  0.00    +0.123 HD
BRANCH   4  14
ATOM     14  C   UNL     1      12.096   7.698  19.158  0.00  0.00    +0.118 C 
BRANCH  14  19
ATOM      6  N   UNL     1      10.562   8.261  22.572  0.00  0.00    -0.263 NA
ATOM     19  C   UNL     1      11.635   8.395  20.410  0.00  0.00    -0.015 A 
ATOM     20  C   UNL     1      11.831   9.761  20.584  0.00  0.00    +0.008 A 
ATOM     21  C   UNL     1      11.002   7.697  21.425  0.00  0.00    +0.115 A 
ATOM     22  C   UNL     1      11.393  10.377  21.750  0.00  0.00    +0.020 A 
ATOM     23  C   UNL     1      10.770   9.590  22.706  0.00  0.00    +0.111 A 
ENDBRANCH  14  19
ENDBRANCH   4  14
ENDBRANCH   7   4
BRANCH   9  11
ATOM     11  C   UNL     1      17.427   6.280  21.608  0.00  0.00    +0.138 C 
BRANCH  11   5
ATOM      3  O   UNL     1      19.922   6.326  23.078  0.00  0.00    -0.276 OA
ATOM      5  N   UNL     1      18.765   6.300  21.063  0.00  0.00    -0.313 N 
ATOM     15  C   UNL     1      19.905   6.321  21.849  0.00  0.00    +0.214 C 
ATOM     25  H   UNL     1      18.858   6.289  20.052  0.00  0.00    +0.149 HD
BRANCH  15  13
ATOM     13  C   UNL     1      21.188   6.349  21.035  0.00  0.00    +0.102 C 
BRANCH  13  12
ATOM     12  C   UNL     1      22.145   5.161  21.297  0.00  0.00    -0.029 C 
ATOM     16  C   UNL     1      21.415   3.817  21.139  0.00  0.00    +0.011 C 
ATOM     17  C   UNL     1      23.280   5.224  20.256  0.00  0.00    +0.011 C 
ATOM     18  C   UNL     1      22.768   5.238  22.701  0.00  0.00    +0.011 C 
ENDBRANCH  13  12
ENDBRANCH  15  13
ENDBRANCH  11   5
ENDBRANCH   9  11
TORSDOF 8
ENDMDL
MODEL 10
REMARK VINA RESULT:      -5.6      6.772      8.564
REMARK  Name = 75536526
REMARK  11 active torsions:
REMARK  status: ('A' for Active; 'I' for Inactive)
REMARK    1  A    between atoms: O_2  and  C_8
REMARK    2  A    between atoms: N_4  and  C_7
REMARK    3  A    between atoms: N_4  and  C_14
REMARK    4  A    between atoms: N_5  and  C_11
REMARK    5  A    between atoms: C_9  and  C_11
REMARK    6  A    between atoms: C_12  and  C_13
REMARK    7  A    between atoms: C_12  and  C_16
REMARK    8  A    between atoms: C_12  and  C_17
REMARK    9  A    between atoms: C_12  and  C_18
REMARK   10  A    between atoms: C_13  and  C_15
REMARK   11  A    between atoms: C_14  and  C_19
REMARK                            x       y       z     vdW  Elec       q    Type
REMARK                         _______ _______ _______ _____ _____    ______ ____
ROOT
ATOM      1  O   UNL     1      -1.714 -10.565  12.978  0.00  0.00    -0.371 OA
ATOM      7  C   UNL     1      -1.699 -11.413  15.197  0.00  0.00    +0.111 C 
ATOM      8  C   UNL     1      -2.502 -12.350  14.315  0.00  0.00    +0.164 C 
ATOM      9  C   UNL     1      -1.976 -11.978  12.935  0.00  0.00    +0.165 C 
ATOM     10  C   UNL     1      -1.682 -10.147  14.354  0.00  0.00    +0.181 C 
ENDROOT
BRANCH   8   2
ATOM      2  O   UNL     1      -2.274 -13.714  14.616  0.00  0.00    -0.388 OA
ATOM     26  H   UNL     1      -1.634 -14.064  13.973  0.00  0.00    +0.210 HD
ENDBRANCH   8   2
BRANCH   7   4
ATOM      4  N   UNL     1      -2.282 -11.208  16.514  0.00  0.00    -0.305 NA
ATOM     24  H   UNL     1      -1.662 -10.609  17.062  0.00  0.00    +0.123 HD
BRANCH   4  14
ATOM     14  C   UNL     1      -3.588 -10.569  16.416  0.00  0.00    +0.118 C 
BRANCH  14  19
ATOM      6  N   UNL     1      -6.039 -13.146  17.712  0.00  0.00    -0.263 NA
ATOM     19  C   UNL     1      -4.609 -11.243  17.294  0.00  0.00    -0.015 A 
ATOM     20  C   UNL     1      -5.069 -10.633  18.456  0.00  0.00    +0.008 A 
ATOM     21  C   UNL     1      -5.121 -12.489  16.970  0.00  0.00    +0.115 A 
ATOM     22  C   UNL     1      -6.012 -11.278  19.246  0.00  0.00    +0.020 A 
ATOM     23  C   UNL     1      -6.462 -12.523  18.834  0.00  0.00    +0.111 A 
ENDBRANCH  14  19
ENDBRANCH   4  14
ENDBRANCH   7   4
BRANCH   9  11
ATOM     11  C   UNL     1      -2.955 -12.285  11.816  0.00  0.00    +0.138 C 
BRANCH  11   5
ATOM      3  O   UNL     1      -5.292 -10.744  12.557  0.00  0.00    -0.276 OA
ATOM      5  N   UNL     1      -3.441 -11.076  11.192  0.00  0.00    -0.313 N 
ATOM     15  C   UNL     1      -4.575 -10.404  11.619  0.00  0.00    +0.214 C 
ATOM     25  H   UNL     1      -2.910 -10.707  10.410  0.00  0.00    +0.149 HD
BRANCH  15  13
ATOM     13  C   UNL     1      -4.879  -9.166  10.792  0.00  0.00    +0.102 C 
BRANCH  13  12
ATOM     12  C   UNL     1      -5.726  -9.428   9.524  0.00  0.00    -0.029 C 
ATOM     16  C   UNL     1      -6.662  -8.243   9.228  0.00  0.00    +0.011 C 
ATOM     17  C   UNL     1      -4.762  -9.595   8.332  0.00  0.00    +0.011 C 
ATOM     18  C   UNL     1      -6.560 -10.712   9.658  0.00  0.00    +0.011 C 
ENDBRANCH  13  12
ENDBRANCH  15  13
ENDBRANCH  11   5
ENDBRANCH   9  11
TORSDOF 8
ENDMDL
