MODEL 1
REMARK VINA RESULT:      -7.3      0.000      0.000
REMARK  Name = 56775159
REMARK  3 active torsions:
REMARK  status: ('A' for Active; 'I' for Inactive)
REMARK    1  A    between atoms: N_7  and  C_16
REMARK    2  A    between atoms: C_16  and  C_18
REMARK    3  A    between atoms: C_21  and  C_27
REMARK                            x       y       z     vdW  Elec       q    Type
REMARK                         _______ _______ _______ _____ _____    ______ ____
ROOT
ATOM      4  O   UNL     1      12.884  10.466  17.770  0.00  0.00    -0.364 OA
ATOM      5  O   UNL     1      12.456   6.937  17.571  0.00  0.00    -0.273 OA
ATOM      6  N   UNL     1      13.382  11.496  20.538  0.00  0.00    -0.295 N 
ATOM      7  N   UNL     1      13.713   8.168  19.095  0.00  0.00    -0.288 N 
ATOM      8  N   UNL     1      12.294  11.904  22.543  0.00  0.00    -0.210 NA
ATOM      9  N   UNL     1      13.179  13.704  21.210  0.00  0.00    -0.223 NA
ATOM     10  C   UNL     1      14.133   9.480  19.571  0.00  0.00    +0.124 C 
ATOM     11  C   UNL     1      14.106  10.561  18.499  0.00  0.00    +0.158 C 
ATOM     12  C   UNL     1      13.205  10.050  20.655  0.00  0.00    +0.133 C 
ATOM     13  C   UNL     1      14.090  11.859  19.309  0.00  0.00    +0.141 C 
ATOM     14  C   UNL     1      12.948   8.003  17.942  0.00  0.00    +0.242 C 
ATOM     15  C   UNL     1      12.814   9.242  17.074  0.00  0.00    +0.256 C 
ATOM     17  C   UNL     1      12.932  12.407  21.470  0.00  0.00    +0.218 A 
ATOM     21  C   UNL     1      11.866  12.822  23.434  0.00  0.00    +0.149 A 
ATOM     22  C   UNL     1      12.725  14.568  22.141  0.00  0.00    +0.116 A 
ATOM     23  C   UNL     1      12.057  14.181  23.284  0.00  0.00    +0.052 A 
ENDROOT
BRANCH  21  27
ATOM      1  F   UNL     1      10.542  11.103  24.439  0.00  0.00    -0.164 F 
ATOM      2  F   UNL     1      10.168  13.151  25.064  0.00  0.00    -0.164 F 
ATOM      3  F   UNL     1      11.967  12.122  25.719  0.00  0.00    -0.164 F 
ATOM     27  C   UNL     1      11.152  12.309  24.639  0.00  0.00    +0.434 C 
ENDBRANCH  21  27
BRANCH   7  16
ATOM     16  C   UNL     1      13.984   7.031  19.964  0.00  0.00    +0.143 C 
BRANCH  16  18
ATOM     18  C   UNL     1      15.449   6.709  20.029  0.00  0.00    -0.030 A 
ATOM     19  C   UNL     1      16.101   6.203  18.903  0.00  0.00    +0.005 A 
ATOM     20  C   UNL     1      16.157   6.914  21.212  0.00  0.00    +0.005 A 
ATOM     24  C   UNL     1      17.462   5.904  18.964  0.00  0.00    +0.000 A 
ATOM     25  C   UNL     1      17.517   6.615  21.271  0.00  0.00    +0.000 A 
ATOM     26  C   UNL     1      18.171   6.109  20.148  0.00  0.00    +0.000 A 
ENDBRANCH  16  18
ENDBRANCH   7  16
TORSDOF 3
ENDMDL
MODEL 2
REMARK VINA RESULT:      -6.8      5.452      7.944
REMARK  Name = 56775159
REMARK  3 active torsions:
REMARK  status: ('A' for Active; 'I' for Inactive)
REMARK    1  A    between atoms: N_7  and  C_16
REMARK    2  A    between atoms: C_16  and  C_18
REMARK    3  A    between atoms: C_21  and  C_27
REMARK                            x       y       z     vdW  Elec       q    Type
REMARK                         _______ _______ _______ _____ _____    ______ ____
ROOT
ATOM      4  O   UNL     1      15.315   9.237  22.393  0.00  0.00    -0.364 OA
ATOM      5  O   UNL     1      12.424   7.402  21.420  0.00  0.00    -0.273 OA
ATOM      6  N   UNL     1      17.821   8.451  20.953  0.00  0.00    -0.295 N 
ATOM      7  N   UNL     1      14.304   7.935  20.157  0.00  0.00    -0.288 N 
ATOM      8  N   UNL     1      19.401   6.759  20.860  0.00  0.00    -0.210 NA
ATOM      9  N   UNL     1      19.977   8.970  21.623  0.00  0.00    -0.223 NA
ATOM     10  C   UNL     1      15.621   8.558  20.109  0.00  0.00    +0.124 C 
ATOM     11  C   UNL     1      15.812   9.671  21.130  0.00  0.00    +0.158 C 
ATOM     12  C   UNL     1      16.758   7.582  20.450  0.00  0.00    +0.133 C 
ATOM     13  C   UNL     1      17.333   9.805  21.224  0.00  0.00    +0.141 C 
ATOM     14  C   UNL     1      13.481   8.017  21.277  0.00  0.00    +0.242 C 
ATOM     15  C   UNL     1      13.924   9.017  22.332  0.00  0.00    +0.256 C 
ATOM     17  C   UNL     1      19.122   8.042  21.155  0.00  0.00    +0.218 A 
ATOM     21  C   UNL     1      20.683   6.393  21.068  0.00  0.00    +0.149 A 
ATOM     22  C   UNL     1      21.242   8.537  21.808  0.00  0.00    +0.116 A 
ATOM     23  C   UNL     1      21.656   7.248  21.544  0.00  0.00    +0.052 A 
ENDROOT
BRANCH  21  27
ATOM      1  F   UNL     1      21.231   4.206  21.865  0.00  0.00    -0.164 F 
ATOM      2  F   UNL     1      22.188   4.873  20.031  0.00  0.00    -0.164 F 
ATOM      3  F   UNL     1      20.084   4.324  20.028  0.00  0.00    -0.164 F 
ATOM     27  C   UNL     1      21.037   4.978  20.756  0.00  0.00    +0.434 C 
ENDBRANCH  21  27
BRANCH   7  16
ATOM     16  C   UNL     1      13.939   7.074  19.040  0.00  0.00    +0.143 C 
BRANCH  16  18
ATOM     18  C   UNL     1      13.351   7.852  17.899  0.00  0.00    -0.030 A 
ATOM     19  C   UNL     1      11.992   8.171  17.900  0.00  0.00    +0.005 A 
ATOM     20  C   UNL     1      14.161   8.255  16.839  0.00  0.00    +0.005 A 
ATOM     24  C   UNL     1      11.446   8.894  16.839  0.00  0.00    +0.000 A 
ATOM     25  C   UNL     1      13.614   8.979  15.779  0.00  0.00    +0.000 A 
ATOM     26  C   UNL     1      12.257   9.298  15.779  0.00  0.00    +0.000 A 
ENDBRANCH  16  18
ENDBRANCH   7  16
TORSDOF 3
ENDMDL
MODEL 3
REMARK VINA RESULT:      -6.6      7.394      9.995
REMARK  Name = 56775159
REMARK  3 active torsions:
REMARK  status: ('A' for Active; 'I' for Inactive)
REMARK    1  A    between atoms: N_7  and  C_16
REMARK    2  A    between atoms: C_16  and  C_18
REMARK    3  A    between atoms: C_21  and  C_27
REMARK                            x       y       z     vdW  Elec       q    Type
REMARK                         _______ _______ _______ _____ _____    ______ ____
ROOT
ATOM      4  O   UNL     1      23.795   6.741  20.570  0.00  0.00    -0.364 OA
ATOM      5  O   UNL     1      25.053   3.667  19.290  0.00  0.00    -0.273 OA
ATOM      6  N   UNL     1      20.930   6.638  21.439  0.00  0.00    -0.295 N 
ATOM      7  N   UNL     1      23.390   4.010  20.881  0.00  0.00    -0.288 N 
ATOM      8  N   UNL     1      18.779   6.561  20.582  0.00  0.00    -0.210 NA
ATOM      9  N   UNL     1      19.570   8.476  21.811  0.00  0.00    -0.223 NA
ATOM     10  C   UNL     1      22.578   4.961  21.630  0.00  0.00    +0.124 C 
ATOM     11  C   UNL     1      23.236   6.321  21.813  0.00  0.00    +0.158 C 
ATOM     12  C   UNL     1      21.259   5.311  20.923  0.00  0.00    +0.133 C 
ATOM     13  C   UNL     1      22.060   7.239  22.152  0.00  0.00    +0.141 C 
ATOM     14  C   UNL     1      24.427   4.413  20.044  0.00  0.00    +0.242 C 
ATOM     15  C   UNL     1      24.831   5.872  20.171  0.00  0.00    +0.256 C 
ATOM     17  C   UNL     1      19.708   7.252  21.270  0.00  0.00    +0.218 A 
ATOM     21  C   UNL     1      17.595   7.191  20.435  0.00  0.00    +0.149 A 
ATOM     22  C   UNL     1      18.361   9.048  21.627  0.00  0.00    +0.116 A 
ATOM     23  C   UNL     1      17.326   8.446  20.942  0.00  0.00    +0.052 A 
ENDROOT
BRANCH  21  27
ATOM      1  F   UNL     1      15.614   5.852  20.480  0.00  0.00    -0.164 F 
ATOM      2  F   UNL     1      17.043   5.474  18.886  0.00  0.00    -0.164 F 
ATOM      3  F   UNL     1      15.809   7.264  18.845  0.00  0.00    -0.164 F 
ATOM     27  C   UNL     1      16.536   6.462  19.678  0.00  0.00    +0.434 C 
ENDBRANCH  21  27
BRANCH   7  16
ATOM     16  C   UNL     1      22.970   2.615  20.911  0.00  0.00    +0.143 C 
BRANCH  16  18
ATOM     18  C   UNL     1      23.786   1.803  21.874  0.00  0.00    -0.030 A 
ATOM     19  C   UNL     1      24.790   0.959  21.399  0.00  0.00    +0.005 A 
ATOM     20  C   UNL     1      23.539   1.891  23.244  0.00  0.00    +0.005 A 
ATOM     24  C   UNL     1      25.548   0.204  22.295  0.00  0.00    +0.000 A 
ATOM     25  C   UNL     1      24.297   1.137  24.139  0.00  0.00    +0.000 A 
ATOM     26  C   UNL     1      25.301   0.293  23.665  0.00  0.00    +0.000 A 
ENDBRANCH  16  18
ENDBRANCH   7  16
TORSDOF 3
ENDMDL
MODEL 4
REMARK VINA RESULT:      -6.5     27.467     29.999
REMARK  Name = 56775159
REMARK  3 active torsions:
REMARK  status: ('A' for Active; 'I' for Inactive)
REMARK    1  A    between atoms: N_7  and  C_16
REMARK    2  A    between atoms: C_16  and  C_18
REMARK    3  A    between atoms: C_21  and  C_27
REMARK                            x       y       z     vdW  Elec       q    Type
REMARK                         _______ _______ _______ _____ _____    ______ ____
ROOT
ATOM      4  O   UNL     1      -7.641 -11.734  17.504  0.00  0.00    -0.364 OA
ATOM      5  O   UNL     1     -10.674 -11.508  15.654  0.00  0.00    -0.273 OA
ATOM      6  N   UNL     1      -5.313 -10.339  16.236  0.00  0.00    -0.295 N 
ATOM      7  N   UNL     1      -8.906  -9.997  15.742  0.00  0.00    -0.288 N 
ATOM      8  N   UNL     1      -3.809 -10.550  14.486  0.00  0.00    -0.210 NA
ATOM      9  N   UNL     1      -3.085 -10.671  16.780  0.00  0.00    -0.223 NA
ATOM     10  C   UNL     1      -7.578  -9.682  16.255  0.00  0.00    +0.124 C 
ATOM     11  C   UNL     1      -7.252 -10.364  17.576  0.00  0.00    +0.158 C 
ATOM     12  C   UNL     1      -6.448 -10.165  15.332  0.00  0.00    +0.133 C 
ATOM     13  C   UNL     1      -5.724 -10.295  17.640  0.00  0.00    +0.141 C 
ATOM     14  C   UNL     1      -9.614 -11.124  16.151  0.00  0.00    +0.242 C 
ATOM     15  C   UNL     1      -9.038 -11.848  17.356  0.00  0.00    +0.256 C 
ATOM     17  C   UNL     1      -4.013 -10.529  15.816  0.00  0.00    +0.218 A 
ATOM     21  C   UNL     1      -2.527 -10.738  14.110  0.00  0.00    +0.149 A 
ATOM     22  C   UNL     1      -1.825 -10.855  16.335  0.00  0.00    +0.116 A 
ATOM     23  C   UNL     1      -1.483 -10.896  14.999  0.00  0.00    +0.052 A 
ENDROOT
BRANCH  21  27
ATOM      1  F   UNL     1      -3.344 -10.466  11.879  0.00  0.00    -0.164 F 
ATOM      2  F   UNL     1      -1.835 -11.994  12.214  0.00  0.00    -0.164 F 
ATOM      3  F   UNL     1      -1.286  -9.891  12.249  0.00  0.00    -0.164 F 
ATOM     27  C   UNL     1      -2.254 -10.769  12.644  0.00  0.00    +0.434 C 
ENDBRANCH  21  27
BRANCH   7  16
ATOM     16  C   UNL     1      -9.405  -9.173  14.650  0.00  0.00    +0.143 C 
BRANCH  16  18
ATOM     18  C   UNL     1     -10.465  -8.213  15.110  0.00  0.00    -0.030 A 
ATOM     19  C   UNL     1     -10.129  -7.160  15.962  0.00  0.00    +0.005 A 
ATOM     20  C   UNL     1     -11.783  -8.374  14.686  0.00  0.00    +0.005 A 
ATOM     24  C   UNL     1     -11.114  -6.269  16.388  0.00  0.00    +0.000 A 
ATOM     25  C   UNL     1     -12.767  -7.482  15.112  0.00  0.00    +0.000 A 
ATOM     26  C   UNL     1     -12.433  -6.430  15.964  0.00  0.00    +0.000 A 
ENDBRANCH  16  18
ENDBRANCH   7  16
TORSDOF 3
ENDMDL
MODEL 5
REMARK VINA RESULT:      -6.4      2.895      4.146
REMARK  Name = 56775159
REMARK  3 active torsions:
REMARK  status: ('A' for Active; 'I' for Inactive)
REMARK    1  A    between atoms: N_7  and  C_16
REMARK    2  A    between atoms: C_16  and  C_18
REMARK    3  A    between atoms: C_21  and  C_27
REMARK                            x       y       z     vdW  Elec       q    Type
REMARK                         _______ _______ _______ _____ _____    ______ ____
ROOT
ATOM      4  O   UNL     1      11.709   7.660  22.015  0.00  0.00    -0.364 OA
ATOM      5  O   UNL     1      14.515   6.331  20.273  0.00  0.00    -0.273 OA
ATOM      6  N   UNL     1      11.950  10.563  22.713  0.00  0.00    -0.295 N 
ATOM      7  N   UNL     1      13.691   8.507  20.262  0.00  0.00    -0.288 N 
ATOM      8  N   UNL     1      13.043  11.990  24.175  0.00  0.00    -0.210 NA
ATOM      9  N   UNL     1      10.657  11.683  24.276  0.00  0.00    -0.223 NA
ATOM     10  C   UNL     1      12.711   9.457  20.774  0.00  0.00    +0.124 C 
ATOM     11  C   UNL     1      11.410   8.812  21.231  0.00  0.00    +0.158 C 
ATOM     12  C   UNL     1      13.190  10.191  22.036  0.00  0.00    +0.133 C 
ATOM     13  C   UNL     1      10.791   9.874  22.141  0.00  0.00    +0.141 C 
ATOM     14  C   UNL     1      13.643   7.150  20.567  0.00  0.00    +0.242 C 
ATOM     15  C   UNL     1      12.362   6.683  21.236  0.00  0.00    +0.256 C 
ATOM     17  C   UNL     1      11.880  11.450  23.767  0.00  0.00    +0.218 A 
ATOM     21  C   UNL     1      12.939  12.853  25.207  0.00  0.00    +0.149 A 
ATOM     22  C   UNL     1      10.624  12.555  25.305  0.00  0.00    +0.116 A 
ATOM     23  C   UNL     1      11.744  13.178  25.817  0.00  0.00    +0.052 A 
ENDROOT
BRANCH  21  27
ATOM      1  F   UNL     1      14.384  13.366  27.042  0.00  0.00    -0.164 F 
ATOM      2  F   UNL     1      14.270  14.811  25.422  0.00  0.00    -0.164 F 
ATOM      3  F   UNL     1      15.329  12.933  25.138  0.00  0.00    -0.164 F 
ATOM     27  C   UNL     1      14.205  13.476  25.692  0.00  0.00    +0.434 C 
ENDBRANCH  21  27
BRANCH   7  16
ATOM     16  C   UNL     1      14.832   9.058  19.543  0.00  0.00    +0.143 C 
BRANCH  16  18
ATOM     18  C   UNL     1      14.459   9.519  18.164  0.00  0.00    -0.030 A 
ATOM     19  C   UNL     1      14.044   8.592  17.208  0.00  0.00    +0.005 A 
ATOM     20  C   UNL     1      14.528  10.873  17.839  0.00  0.00    +0.005 A 
ATOM     24  C   UNL     1      13.698   9.021  15.926  0.00  0.00    +0.000 A 
ATOM     25  C   UNL     1      14.181  11.302  16.558  0.00  0.00    +0.000 A 
ATOM     26  C   UNL     1      13.766  10.375  15.601  0.00  0.00    +0.000 A 
ENDBRANCH  16  18
ENDBRANCH   7  16
TORSDOF 3
ENDMDL
MODEL 6
REMARK VINA RESULT:      -6.2      3.936      6.929
REMARK  Name = 56775159
REMARK  3 active torsions:
REMARK  status: ('A' for Active; 'I' for Inactive)
REMARK    1  A    between atoms: N_7  and  C_16
REMARK    2  A    between atoms: C_16  and  C_18
REMARK    3  A    between atoms: C_21  and  C_27
REMARK                            x       y       z     vdW  Elec       q    Type
REMARK                         _______ _______ _______ _____ _____    ______ ____
ROOT
ATOM      4  O   UNL     1      14.939   7.151  17.928  0.00  0.00    -0.364 OA
ATOM      5  O   UNL     1      12.927   9.838  16.741  0.00  0.00    -0.273 OA
ATOM      6  N   UNL     1      16.451   7.756  20.441  0.00  0.00    -0.295 N 
ATOM      7  N   UNL     1      13.535   9.330  18.929  0.00  0.00    -0.288 N 
ATOM      8  N   UNL     1      18.279   8.954  21.212  0.00  0.00    -0.210 NA
ATOM      9  N   UNL     1      18.253   6.546  21.253  0.00  0.00    -0.223 NA
ATOM     10  C   UNL     1      14.286   8.465  19.831  0.00  0.00    +0.124 C 
ATOM     11  C   UNL     1      14.517   7.062  19.287  0.00  0.00    +0.158 C 
ATOM     12  C   UNL     1      15.714   8.969  20.094  0.00  0.00    +0.133 C 
ATOM     13  C   UNL     1      15.688   6.547  20.127  0.00  0.00    +0.141 C 
ATOM     14  C   UNL     1      13.433   9.074  17.564  0.00  0.00    +0.242 C 
ATOM     15  C   UNL     1      13.920   7.704  17.126  0.00  0.00    +0.256 C 
ATOM     17  C   UNL     1      17.715   7.752  20.992  0.00  0.00    +0.218 A 
ATOM     21  C   UNL     1      19.515   8.913  21.751  0.00  0.00    +0.149 A 
ATOM     22  C   UNL     1      19.490   6.578  21.791  0.00  0.00    +0.116 A 
ATOM     23  C   UNL     1      20.176   7.743  22.065  0.00  0.00    +0.052 A 
ENDROOT
BRANCH  21  27
ATOM      1  F   UNL     1      21.501  10.112  22.336  0.00  0.00    -0.164 F 
ATOM      2  F   UNL     1      19.605  10.907  23.043  0.00  0.00    -0.164 F 
ATOM      3  F   UNL     1      20.145  11.075  20.944  0.00  0.00    -0.164 F 
ATOM     27  C   UNL     1      20.179  10.224  22.011  0.00  0.00    +0.434 C 
ENDBRANCH  21  27
BRANCH   7  16
ATOM     16  C   UNL     1      13.023  10.576  19.483  0.00  0.00    +0.143 C 
BRANCH  16  18
ATOM     18  C   UNL     1      12.282  10.358  20.770  0.00  0.00    -0.030 A 
ATOM     19  C   UNL     1      12.586  11.134  21.889  0.00  0.00    +0.005 A 
ATOM     20  C   UNL     1      11.291   9.381  20.847  0.00  0.00    +0.005 A 
ATOM     24  C   UNL     1      11.897  10.931  23.085  0.00  0.00    +0.000 A 
ATOM     25  C   UNL     1      10.602   9.179  22.043  0.00  0.00    +0.000 A 
ATOM     26  C   UNL     1      10.905   9.953  23.162  0.00  0.00    +0.000 A 
ENDBRANCH  16  18
ENDBRANCH   7  16
TORSDOF 3
ENDMDL
MODEL 7
REMARK VINA RESULT:      -6.1     27.232     29.546
REMARK  Name = 56775159
REMARK  3 active torsions:
REMARK  status: ('A' for Active; 'I' for Inactive)
REMARK    1  A    between atoms: N_7  and  C_16
REMARK    2  A    between atoms: C_16  and  C_18
REMARK    3  A    between atoms: C_21  and  C_27
REMARK                            x       y       z     vdW  Elec       q    Type
REMARK                         _______ _______ _______ _____ _____    ______ ____
ROOT
ATOM      4  O   UNL     1      -8.625  -9.358  13.826  0.00  0.00    -0.364 OA
ATOM      5  O   UNL     1     -10.364  -9.664  16.918  0.00  0.00    -0.273 OA
ATOM      6  N   UNL     1      -6.018 -10.829  13.724  0.00  0.00    -0.295 N 
ATOM      7  N   UNL     1      -8.913 -11.177  15.907  0.00  0.00    -0.288 N 
ATOM      8  N   UNL     1      -3.842 -10.717  14.514  0.00  0.00    -0.210 NA
ATOM      9  N   UNL     1      -4.336 -10.481  12.168  0.00  0.00    -0.223 NA
ATOM     10  C   UNL     1      -8.019 -11.472  14.794  0.00  0.00    +0.124 C 
ATOM     11  C   UNL     1      -8.363 -10.724  13.514  0.00  0.00    +0.158 C 
ATOM     12  C   UNL     1      -6.567 -11.044  15.061  0.00  0.00    +0.133 C 
ATOM     13  C   UNL     1      -7.067 -10.799  12.703  0.00  0.00    +0.141 C 
ATOM     14  C   UNL     1      -9.697 -10.027  15.948  0.00  0.00    +0.242 C 
ATOM     15  C   UNL     1      -9.765  -9.245  14.647  0.00  0.00    +0.256 C 
ATOM     17  C   UNL     1      -4.675 -10.668  13.457  0.00  0.00    +0.218 A 
ATOM     21  C   UNL     1      -2.536 -10.556  14.218  0.00  0.00    +0.149 A 
ATOM     22  C   UNL     1      -3.014 -10.327  11.943  0.00  0.00    +0.116 A 
ATOM     23  C   UNL     1      -2.059 -10.357  12.938  0.00  0.00    +0.052 A 
ENDROOT
BRANCH  21  27
ATOM      1  F   UNL     1      -0.711 -11.657  15.303  0.00  0.00    -0.164 F 
ATOM      2  F   UNL     1      -2.203 -10.707  16.567  0.00  0.00    -0.164 F 
ATOM      3  F   UNL     1      -0.784  -9.494  15.453  0.00  0.00    -0.164 F 
ATOM     27  C   UNL     1      -1.577 -10.602  15.360  0.00  0.00    +0.434 C 
ENDBRANCH  21  27
BRANCH   7  16
ATOM     16  C   UNL     1      -8.836 -12.054  17.067  0.00  0.00    +0.143 C 
BRANCH  16  18
ATOM     18  C   UNL     1      -7.601 -11.802  17.882  0.00  0.00    -0.030 A 
ATOM     19  C   UNL     1      -7.462 -10.606  18.586  0.00  0.00    +0.005 A 
ATOM     20  C   UNL     1      -6.592 -12.764  17.936  0.00  0.00    +0.005 A 
ATOM     24  C   UNL     1      -6.314 -10.372  19.343  0.00  0.00    +0.000 A 
ATOM     25  C   UNL     1      -5.445 -12.530  18.693  0.00  0.00    +0.000 A 
ATOM     26  C   UNL     1      -5.305 -11.334  19.397  0.00  0.00    +0.000 A 
ENDBRANCH  16  18
ENDBRANCH   7  16
TORSDOF 3
ENDMDL
MODEL 8
REMARK VINA RESULT:      -6.0     28.536     30.293
REMARK  Name = 56775159
REMARK  3 active torsions:
REMARK  status: ('A' for Active; 'I' for Inactive)
REMARK    1  A    between atoms: N_7  and  C_16
REMARK    2  A    between atoms: C_16  and  C_18
REMARK    3  A    between atoms: C_21  and  C_27
REMARK                            x       y       z     vdW  Elec       q    Type
REMARK                         _______ _______ _______ _____ _____    ______ ____
ROOT
ATOM      4  O   UNL     1      -9.386 -11.588  14.056  0.00  0.00    -0.364 OA
ATOM      5  O   UNL     1      -9.799  -9.182  16.647  0.00  0.00    -0.273 OA
ATOM      6  N   UNL     1      -6.669 -11.595  12.798  0.00  0.00    -0.295 N 
ATOM      7  N   UNL     1      -7.862 -10.286  15.980  0.00  0.00    -0.288 N 
ATOM      8  N   UNL     1      -5.343 -10.373  11.343  0.00  0.00    -0.210 NA
ATOM      9  N   UNL     1      -6.127 -12.577  10.770  0.00  0.00    -0.223 NA
ATOM     10  C   UNL     1      -7.233 -11.222  15.057  0.00  0.00    +0.124 C 
ATOM     11  C   UNL     1      -8.193 -12.248  14.472  0.00  0.00    +0.158 C 
ATOM     12  C   UNL     1      -6.660 -10.538  13.806  0.00  0.00    +0.133 C 
ATOM     13  C   UNL     1      -7.457 -12.752  13.229  0.00  0.00    +0.141 C 
ATOM     14  C   UNL     1      -9.235 -10.054  15.985  0.00  0.00    +0.242 C 
ATOM     15  C   UNL     1     -10.059 -11.031  15.163  0.00  0.00    +0.256 C 
ATOM     17  C   UNL     1      -6.019 -11.511  11.585  0.00  0.00    +0.218 A 
ATOM     21  C   UNL     1      -4.719 -10.324  10.148  0.00  0.00    +0.149 A 
ATOM     22  C   UNL     1      -5.479 -12.462   9.592  0.00  0.00    +0.116 A 
ATOM     23  C   UNL     1      -4.752 -11.349   9.224  0.00  0.00    +0.052 A 
ENDROOT
BRANCH  21  27
ATOM      1  F   UNL     1      -4.010  -8.721   8.520  0.00  0.00    -0.164 F 
ATOM      2  F   UNL     1      -2.631  -9.187  10.134  0.00  0.00    -0.164 F 
ATOM      3  F   UNL     1      -4.399  -7.983  10.522  0.00  0.00    -0.164 F 
ATOM     27  C   UNL     1      -3.958  -9.079   9.837  0.00  0.00    +0.434 C 
ENDBRANCH  21  27
BRANCH   7  16
ATOM     16  C   UNL     1      -6.977  -9.468  16.798  0.00  0.00    +0.143 C 
BRANCH  16  18
ATOM     18  C   UNL     1      -6.091 -10.303  17.676  0.00  0.00    -0.030 A 
ATOM     19  C   UNL     1      -6.562 -10.762  18.907  0.00  0.00    +0.005 A 
ATOM     20  C   UNL     1      -4.798 -10.621  17.261  0.00  0.00    +0.005 A 
ATOM     24  C   UNL     1      -5.738 -11.538  19.722  0.00  0.00    +0.000 A 
ATOM     25  C   UNL     1      -3.975 -11.398  18.076  0.00  0.00    +0.000 A 
ATOM     26  C   UNL     1      -4.444 -11.856  19.307  0.00  0.00    +0.000 A 
ENDBRANCH  16  18
ENDBRANCH   7  16
TORSDOF 3
ENDMDL
MODEL 9
REMARK VINA RESULT:      -6.0      4.180      6.220
REMARK  Name = 56775159
REMARK  3 active torsions:
REMARK  status: ('A' for Active; 'I' for Inactive)
REMARK    1  A    between atoms: N_7  and  C_16
REMARK    2  A    between atoms: C_16  and  C_18
REMARK    3  A    between atoms: C_21  and  C_27
REMARK                            x       y       z     vdW  Elec       q    Type
REMARK                         _______ _______ _______ _____ _____    ______ ____
ROOT
ATOM      4  O   UNL     1      18.145   6.295  21.618  0.00  0.00    -0.364 OA
ATOM      5  O   UNL     1      20.415   8.297  23.492  0.00  0.00    -0.273 OA
ATOM      6  N   UNL     1      15.664   7.727  20.744  0.00  0.00    -0.295 N 
ATOM      7  N   UNL     1      18.913   8.956  21.841  0.00  0.00    -0.288 N 
ATOM      8  N   UNL     1      13.658   8.543  21.569  0.00  0.00    -0.210 NA
ATOM      9  N   UNL     1      13.717   6.716  20.001  0.00  0.00    -0.223 NA
ATOM     10  C   UNL     1      17.860   8.573  20.909  0.00  0.00    +0.124 C 
ATOM     11  C   UNL     1      17.924   7.116  20.473  0.00  0.00    +0.158 C 
ATOM     12  C   UNL     1      16.452   8.687  21.515  0.00  0.00    +0.133 C 
ATOM     13  C   UNL     1      16.514   6.844  19.944  0.00  0.00    +0.141 C 
ATOM     14  C   UNL     1      19.614   8.020  22.598  0.00  0.00    +0.242 C 
ATOM     15  C   UNL     1      19.402   6.572  22.194  0.00  0.00    +0.256 C 
ATOM     17  C   UNL     1      14.287   7.659  20.773  0.00  0.00    +0.218 A 
ATOM     21  C   UNL     1      12.312   8.448  21.573  0.00  0.00    +0.149 A 
ATOM     22  C   UNL     1      12.369   6.676  20.052  0.00  0.00    +0.116 A 
ATOM     23  C   UNL     1      11.607   7.526  20.827  0.00  0.00    +0.052 A 
ENDROOT
BRANCH  21  27
ATOM      1  F   UNL     1      12.379  10.340  23.035  0.00  0.00    -0.164 F 
ATOM      2  F   UNL     1      10.914   8.792  23.465  0.00  0.00    -0.164 F 
ATOM      3  F   UNL     1      10.625  10.131  21.777  0.00  0.00    -0.164 F 
ATOM     27  C   UNL     1      11.574   9.409  22.443  0.00  0.00    +0.434 C 
ENDBRANCH  21  27
BRANCH   7  16
ATOM     16  C   UNL     1      19.100  10.380  22.079  0.00  0.00    +0.143 C 
BRANCH  16  18
ATOM     18  C   UNL     1      19.703  11.074  20.892  0.00  0.00    -0.030 A 
ATOM     19  C   UNL     1      18.938  11.970  20.145  0.00  0.00    +0.005 A 
ATOM     20  C   UNL     1      21.028  10.824  20.537  0.00  0.00    +0.005 A 
ATOM     24  C   UNL     1      19.499  12.615  19.043  0.00  0.00    +0.000 A 
ATOM     25  C   UNL     1      21.589  11.469  19.436  0.00  0.00    +0.000 A 
ATOM     26  C   UNL     1      20.825  12.364  18.688  0.00  0.00    +0.000 A 
ENDBRANCH  16  18
ENDBRANCH   7  16
TORSDOF 3
ENDMDL
MODEL 10
REMARK VINA RESULT:      -5.9     27.289     29.677
REMARK  Name = 56775159
REMARK  3 active torsions:
REMARK  status: ('A' for Active; 'I' for Inactive)
REMARK    1  A    between atoms: N_7  and  C_16
REMARK    2  A    between atoms: C_16  and  C_18
REMARK    3  A    between atoms: C_21  and  C_27
REMARK                            x       y       z     vdW  Elec       q    Type
REMARK                         _______ _______ _______ _____ _____    ______ ____
ROOT
ATOM      4  O   UNL     1      -4.097  -8.640  10.437  0.00  0.00    -0.364 OA
ATOM      5  O   UNL     1      -7.433  -8.912   9.226  0.00  0.00    -0.273 OA
ATOM      6  N   UNL     1      -3.435 -10.526  12.668  0.00  0.00    -0.295 N 
ATOM      7  N   UNL     1      -6.090 -10.558  10.176  0.00  0.00    -0.288 N 
ATOM      8  N   UNL     1      -3.816 -10.862  14.929  0.00  0.00    -0.210 NA
ATOM      9  N   UNL     1      -1.618 -10.339  14.095  0.00  0.00    -0.223 NA
ATOM     10  C   UNL     1      -4.817 -10.904  10.796  0.00  0.00    +0.124 C 
ATOM     11  C   UNL     1      -3.666  -9.998  10.383  0.00  0.00    +0.158 C 
ATOM     12  C   UNL     1      -4.836 -10.759  12.325  0.00  0.00    +0.133 C 
ATOM     13  C   UNL     1      -2.628 -10.224  11.484  0.00  0.00    +0.141 C 
ATOM     14  C   UNL     1      -6.339  -9.297   9.638  0.00  0.00    +0.242 C 
ATOM     15  C   UNL     1      -5.119  -8.404   9.495  0.00  0.00    +0.256 C 
ATOM     17  C   UNL     1      -2.935 -10.577  13.952  0.00  0.00    +0.218 A 
ATOM     21  C   UNL     1      -3.294 -10.905  16.172  0.00  0.00    +0.149 A 
ATOM     22  C   UNL     1      -1.162 -10.397  15.363  0.00  0.00    +0.116 A 
ATOM     23  C   UNL     1      -1.961 -10.679  16.452  0.00  0.00    +0.052 A 
ENDROOT
BRANCH  21  27
ATOM      1  F   UNL     1      -3.611 -11.615  18.434  0.00  0.00    -0.164 F 
ATOM      2  F   UNL     1      -5.103 -12.222  16.974  0.00  0.00    -0.164 F 
ATOM      3  F   UNL     1      -5.017 -10.159  17.655  0.00  0.00    -0.164 F 
ATOM     27  C   UNL     1      -4.235 -11.217  17.287  0.00  0.00    +0.434 C 
ENDBRANCH  21  27
BRANCH   7  16
ATOM     16  C   UNL     1      -7.166 -11.534  10.284  0.00  0.00    +0.143 C 
BRANCH  16  18
ATOM     18  C   UNL     1      -6.928 -12.732   9.411  0.00  0.00    -0.030 A 
ATOM     19  C   UNL     1      -6.870 -14.007   9.976  0.00  0.00    +0.005 A 
ATOM     20  C   UNL     1      -6.765 -12.571   8.036  0.00  0.00    +0.005 A 
ATOM     24  C   UNL     1      -6.650 -15.119   9.164  0.00  0.00    +0.000 A 
ATOM     25  C   UNL     1      -6.545 -13.684   7.224  0.00  0.00    +0.000 A 
ATOM     26  C   UNL     1      -6.487 -14.958   7.788  0.00  0.00    +0.000 A 
ENDBRANCH  16  18
ENDBRANCH   7  16
TORSDOF 3
ENDMDL
