MODEL 1
REMARK VINA RESULT:      -8.0      0.000      0.000
REMARK  Name = 45361469
REMARK  10 active torsions:
REMARK  status: ('A' for Active; 'I' for Inactive)
REMARK    1  A    between atoms: O_3  and  C_11
REMARK    2  A    between atoms: N_6  and  C_15
REMARK    3  A    between atoms: N_7  and  C_30
REMARK    4  A    between atoms: C_8  and  C_18
REMARK    5  A    between atoms: C_10  and  C_20
REMARK    6  A    between atoms: C_14  and  C_19
REMARK    7  A    between atoms: C_19  and  C_21
REMARK    8  A    between atoms: C_19  and  C_22
REMARK    9  A    between atoms: C_23  and  C_24
REMARK   10  A    between atoms: C_30  and  C_31
REMARK                            x       y       z     vdW  Elec       q    Type
REMARK                         _______ _______ _______ _____ _____    ______ ____
ROOT
ATOM      8  C   UNL     1     -16.974   5.623  22.111  0.00  0.00    -0.027 C 
ATOM      9  C   UNL     1     -15.743   5.192  22.977  0.00  0.00    +0.028 C 
ATOM     10  C   UNL     1     -14.406   5.357  22.169  0.00  0.00    +0.012 C 
ATOM     11  C   UNL     1     -15.969   3.793  23.620  0.00  0.00    +0.122 C 
ATOM     12  C   UNL     1     -18.259   5.557  22.970  0.00  0.00    +0.007 C 
ATOM     13  C   UNL     1     -16.784   7.090  21.660  0.00  0.00    +0.009 C 
ATOM     14  C   UNL     1     -17.306   3.702  24.392  0.00  0.00    +0.029 C 
ATOM     15  C   UNL     1     -14.262   6.816  21.658  0.00  0.00    +0.076 C 
ATOM     16  C   UNL     1     -18.503   4.179  23.569  0.00  0.00    +0.007 C 
ATOM     17  C   UNL     1     -15.489   7.316  20.894  0.00  0.00    +0.023 C 
ATOM     18  C   UNL     1     -17.164   4.726  20.861  0.00  0.00    +0.011 C 
ATOM     20  C   UNL     1     -13.151   4.977  22.974  0.00  0.00    +0.010 C 
ENDROOT
BRANCH  15   6
ATOM      5  O   UNL     1     -12.454   9.086  21.552  0.00  0.00    -0.276 OA
ATOM      6  N   UNL     1     -13.098   6.976  20.811  0.00  0.00    -0.312 N 
ATOM     23  C   UNL     1     -12.296   8.102  20.835  0.00  0.00    +0.216 C 
ATOM     37  H   UNL     1     -12.903   6.241  20.138  0.00  0.00    +0.149 HD
BRANCH  23  24
ATOM     24  C   UNL     1     -11.145   7.997  19.877  0.00  0.00    +0.075 C 
ATOM     25  C   UNL     1     -11.575   7.318  18.575  0.00  0.00    +0.013 C 
ATOM     26  C   UNL     1     -10.522   9.376  19.648  0.00  0.00    +0.013 C 
ATOM     27  C   UNL     1     -12.383   8.230  17.652  0.00  0.00    +0.001 C 
ATOM     28  C   UNL     1     -11.355  10.263  18.727  0.00  0.00    +0.001 C 
ATOM     29  C   UNL     1     -11.682   9.562  17.413  0.00  0.00    +0.000 C 
ENDBRANCH  23  24
ENDBRANCH  15   6
BRANCH  11   3
ATOM      3  O   UNL     1     -14.933   3.531  24.567  0.00  0.00    -0.391 OA
ATOM     38  H   UNL     1     -14.744   2.578  24.554  0.00  0.00    +0.210 HD
ENDBRANCH  11   3
BRANCH  14  19
ATOM     19  C   UNL     1     -17.571   2.282  24.905  0.00  0.00    +0.077 C 
ATOM     21  C   UNL     1     -18.705   1.640  24.115  0.00  0.00    +0.017 C 
BRANCH  19  22
ATOM      4  O   UNL     1     -18.824   1.700  26.895  0.00  0.00    -0.276 OA
ATOM      7  N   UNL     1     -17.001   3.118  27.107  0.00  0.00    -0.311 N 
ATOM     22  C   UNL     1     -17.884   2.319  26.398  0.00  0.00    +0.216 C 
ATOM     39  H   UNL     1     -16.218   3.555  26.630  0.00  0.00    +0.149 HD
BRANCH   7  30
ATOM     30  C   UNL     1     -17.096   3.311  28.535  0.00  0.00    +0.139 C 
BRANCH  30  31
ATOM      1  F   UNL     1     -15.408  -0.746  30.651  0.00  0.00    -0.205 F 
ATOM      2  F   UNL     1     -12.690   3.131  30.619  0.00  0.00    -0.205 F 
ATOM     31  C   UNL     1     -16.022   2.566  29.276  0.00  0.00    -0.025 A 
ATOM     32  C   UNL     1     -14.831   3.208  29.612  0.00  0.00    +0.043 A 
ATOM     33  C   UNL     1     -16.218   1.229  29.627  0.00  0.00    +0.043 A 
ATOM     34  C   UNL     1     -15.221   0.536  30.314  0.00  0.00    +0.126 A 
ATOM     35  C   UNL     1     -13.834   2.514  30.298  0.00  0.00    +0.126 A 
ATOM     36  C   UNL     1     -14.029   1.179  30.649  0.00  0.00    +0.076 A 
ENDBRANCH  30  31
ENDBRANCH   7  30
ENDBRANCH  19  22
ENDBRANCH  14  19
TORSDOF 7
ENDMDL
MODEL 2
REMARK VINA RESULT:      -7.9      1.352      2.115
REMARK  Name = 45361469
REMARK  10 active torsions:
REMARK  status: ('A' for Active; 'I' for Inactive)
REMARK    1  A    between atoms: O_3  and  C_11
REMARK    2  A    between atoms: N_6  and  C_15
REMARK    3  A    between atoms: N_7  and  C_30
REMARK    4  A    between atoms: C_8  and  C_18
REMARK    5  A    between atoms: C_10  and  C_20
REMARK    6  A    between atoms: C_14  and  C_19
REMARK    7  A    between atoms: C_19  and  C_21
REMARK    8  A    between atoms: C_19  and  C_22
REMARK    9  A    between atoms: C_23  and  C_24
REMARK   10  A    between atoms: C_30  and  C_31
REMARK                            x       y       z     vdW  Elec       q    Type
REMARK                         _______ _______ _______ _____ _____    ______ ____
ROOT
ATOM      8  C   UNL     1     -15.713   7.071  22.070  0.00  0.00    -0.027 C 
ATOM      9  C   UNL     1     -14.376   6.351  22.448  0.00  0.00    +0.028 C 
ATOM     10  C   UNL     1     -13.312   6.509  21.303  0.00  0.00    +0.012 C 
ATOM     11  C   UNL     1     -14.637   4.893  22.923  0.00  0.00    +0.122 C 
ATOM     12  C   UNL     1     -16.696   6.995  23.262  0.00  0.00    +0.007 C 
ATOM     13  C   UNL     1     -15.421   8.565  21.796  0.00  0.00    +0.009 C 
ATOM     14  C   UNL     1     -15.698   4.813  24.046  0.00  0.00    +0.029 C 
ATOM     15  C   UNL     1     -13.082   8.012  20.985  0.00  0.00    +0.076 C 
ATOM     16  C   UNL     1     -16.984   5.566  23.705  0.00  0.00    +0.007 C 
ATOM     17  C   UNL     1     -14.375   8.780  20.711  0.00  0.00    +0.023 C 
ATOM     18  C   UNL     1     -16.392   6.448  20.824  0.00  0.00    +0.011 C 
ATOM     20  C   UNL     1     -11.961   5.847  21.623  0.00  0.00    +0.010 C 
ENDROOT
BRANCH  15   6
ATOM      5  O   UNL     1     -11.245  10.212  20.515  0.00  0.00    -0.276 OA
ATOM      6  N   UNL     1     -12.194   8.192  19.855  0.00  0.00    -0.312 N 
ATOM     23  C   UNL     1     -11.352   9.281  19.722  0.00  0.00    +0.216 C 
ATOM     37  H   UNL     1     -12.239   7.504  19.108  0.00  0.00    +0.149 HD
BRANCH  23  24
ATOM     24  C   UNL     1     -10.524   9.205  18.472  0.00  0.00    +0.075 C 
ATOM     25  C   UNL     1     -11.079   8.154  17.508  0.00  0.00    +0.013 C 
ATOM     26  C   UNL     1     -10.407  10.591  17.834  0.00  0.00    +0.013 C 
ATOM     27  C   UNL     1     -12.332   8.614  16.764  0.00  0.00    +0.001 C 
ATOM     28  C   UNL     1     -11.676  11.022  17.102  0.00  0.00    +0.001 C 
ATOM     29  C   UNL     1     -12.132   9.970  16.098  0.00  0.00    +0.000 C 
ENDBRANCH  23  24
ENDBRANCH  15   6
BRANCH  11   3
ATOM      3  O   UNL     1     -13.433   4.345  23.461  0.00  0.00    -0.391 OA
ATOM     38  H   UNL     1     -12.688   4.658  22.921  0.00  0.00    +0.210 HD
ENDBRANCH  11   3
BRANCH  14  19
ATOM     19  C   UNL     1     -16.035   3.362  24.408  0.00  0.00    +0.077 C 
ATOM     21  C   UNL     1     -16.910   2.740  23.325  0.00  0.00    +0.017 C 
BRANCH  19  22
ATOM      4  O   UNL     1     -17.887   2.959  25.917  0.00  0.00    -0.276 OA
ATOM      7  N   UNL     1     -15.876   3.705  26.802  0.00  0.00    -0.311 N 
ATOM     22  C   UNL     1     -16.718   3.312  25.771  0.00  0.00    +0.216 C 
ATOM     39  H   UNL     1     -14.907   3.933  26.605  0.00  0.00    +0.149 HD
BRANCH   7  30
ATOM     30  C   UNL     1     -16.298   3.742  28.183  0.00  0.00    +0.139 C 
BRANCH  30  31
ATOM      1  F   UNL     1     -12.876   3.360  31.637  0.00  0.00    -0.205 F 
ATOM      2  F   UNL     1     -14.671  -0.587  29.734  0.00  0.00    -0.205 F 
ATOM     31  C   UNL     1     -15.408   2.912  29.064  0.00  0.00    -0.025 A 
ATOM     32  C   UNL     1     -15.453   1.520  28.987  0.00  0.00    +0.043 A 
ATOM     33  C   UNL     1     -14.537   3.534  29.959  0.00  0.00    +0.043 A 
ATOM     34  C   UNL     1     -13.712   2.763  30.778  0.00  0.00    +0.126 A 
ATOM     35  C   UNL     1     -14.628   0.750  29.807  0.00  0.00    +0.126 A 
ATOM     36  C   UNL     1     -13.757   1.371  30.701  0.00  0.00    +0.076 A 
ENDBRANCH  30  31
ENDBRANCH   7  30
ENDBRANCH  19  22
ENDBRANCH  14  19
TORSDOF 7
ENDMDL
MODEL 3
REMARK VINA RESULT:      -7.7     19.794     22.833
REMARK  Name = 45361469
REMARK  10 active torsions:
REMARK  status: ('A' for Active; 'I' for Inactive)
REMARK    1  A    between atoms: O_3  and  C_11
REMARK    2  A    between atoms: N_6  and  C_15
REMARK    3  A    between atoms: N_7  and  C_30
REMARK    4  A    between atoms: C_8  and  C_18
REMARK    5  A    between atoms: C_10  and  C_20
REMARK    6  A    between atoms: C_14  and  C_19
REMARK    7  A    between atoms: C_19  and  C_21
REMARK    8  A    between atoms: C_19  and  C_22
REMARK    9  A    between atoms: C_23  and  C_24
REMARK   10  A    between atoms: C_30  and  C_31
REMARK                            x       y       z     vdW  Elec       q    Type
REMARK                         _______ _______ _______ _____ _____    ______ ____
ROOT
ATOM      8  C   UNL     1      -3.541 -10.560  11.330  0.00  0.00    -0.027 C 
ATOM      9  C   UNL     1      -4.935 -10.279  11.984  0.00  0.00    +0.028 C 
ATOM     10  C   UNL     1      -5.090 -11.069  13.332  0.00  0.00    +0.012 C 
ATOM     11  C   UNL     1      -6.088 -10.474  10.957  0.00  0.00    +0.122 C 
ATOM     12  C   UNL     1      -3.376  -9.682  10.067  0.00  0.00    +0.007 C 
ATOM     13  C   UNL     1      -2.428 -10.164  12.327  0.00  0.00    +0.009 C 
ATOM     14  C   UNL     1      -5.865  -9.673   9.653  0.00  0.00    +0.029 C 
ATOM     15  C   UNL     1      -3.924 -10.720  14.298  0.00  0.00    +0.076 C 
ATOM     16  C   UNL     1      -4.482  -9.899   9.043  0.00  0.00    +0.007 C 
ATOM     17  C   UNL     1      -2.542 -10.880  13.665  0.00  0.00    +0.023 C 
ATOM     18  C   UNL     1      -3.361 -12.047  10.929  0.00  0.00    +0.011 C 
ATOM     20  C   UNL     1      -6.430 -10.815  14.044  0.00  0.00    +0.010 C 
ENDROOT
BRANCH  15   6
ATOM      5  O   UNL     1      -4.536  -9.814  16.989  0.00  0.00    -0.276 OA
ATOM      6  N   UNL     1      -3.971 -11.517  15.506  0.00  0.00    -0.312 N 
ATOM     23  C   UNL     1      -4.274 -10.989  16.748  0.00  0.00    +0.216 C 
ATOM     37  H   UNL     1      -3.718 -12.498  15.431  0.00  0.00    +0.149 HD
BRANCH  23  24
ATOM     24  C   UNL     1      -4.277 -12.038  17.823  0.00  0.00    +0.075 C 
ATOM     25  C   UNL     1      -4.788 -11.466  19.147  0.00  0.00    +0.013 C 
ATOM     26  C   UNL     1      -5.071 -13.262  17.361  0.00  0.00    +0.013 C 
ATOM     27  C   UNL     1      -6.305 -11.285  19.186  0.00  0.00    +0.001 C 
ATOM     28  C   UNL     1      -6.582 -13.048  17.407  0.00  0.00    +0.001 C 
ATOM     29  C   UNL     1      -7.040 -12.556  18.776  0.00  0.00    +0.000 C 
ENDBRANCH  23  24
ENDBRANCH  15   6
BRANCH  11   3
ATOM      3  O   UNL     1      -7.312 -10.003  11.521  0.00  0.00    -0.391 OA
ATOM     38  H   UNL     1      -8.044 -10.317  10.963  0.00  0.00    +0.210 HD
ENDBRANCH  11   3
BRANCH  14  19
ATOM     19  C   UNL     1      -6.943  -9.980   8.606  0.00  0.00    +0.077 C 
ATOM     21  C   UNL     1      -6.534 -11.188   7.770  0.00  0.00    +0.017 C 
BRANCH  19  22
ATOM      4  O   UNL     1      -7.061  -8.777   6.507  0.00  0.00    -0.276 OA
ATOM      7  N   UNL     1      -7.541  -7.636   8.469  0.00  0.00    -0.311 N 
ATOM     22  C   UNL     1      -7.181  -8.754   7.731  0.00  0.00    +0.216 C 
ATOM     39  H   UNL     1      -7.670  -7.711   9.472  0.00  0.00    +0.149 HD
BRANCH   7  30
ATOM     30  C   UNL     1      -7.817  -6.354   7.861  0.00  0.00    +0.139 C 
BRANCH  30  31
ATOM      1  F   UNL     1     -10.900  -3.020   9.641  0.00  0.00    -0.205 F 
ATOM      2  F   UNL     1     -12.651  -6.997   7.761  0.00  0.00    -0.205 F 
ATOM     31  C   UNL     1      -9.211  -5.881   8.158  0.00  0.00    -0.025 A 
ATOM     32  C   UNL     1     -10.305  -6.676   7.816  0.00  0.00    +0.043 A 
ATOM     33  C   UNL     1      -9.412  -4.646   8.775  0.00  0.00    +0.043 A 
ATOM     34  C   UNL     1     -10.707  -4.206   9.049  0.00  0.00    +0.126 A 
ATOM     35  C   UNL     1     -11.600  -6.235   8.090  0.00  0.00    +0.126 A 
ATOM     36  C   UNL     1     -11.801  -5.001   8.707  0.00  0.00    +0.076 A 
ENDBRANCH  30  31
ENDBRANCH   7  30
ENDBRANCH  19  22
ENDBRANCH  14  19
TORSDOF 7
ENDMDL
MODEL 4
REMARK VINA RESULT:      -7.6     27.493     31.882
REMARK  Name = 45361469
REMARK  10 active torsions:
REMARK  status: ('A' for Active; 'I' for Inactive)
REMARK    1  A    between atoms: O_3  and  C_11
REMARK    2  A    between atoms: N_6  and  C_15
REMARK    3  A    between atoms: N_7  and  C_30
REMARK    4  A    between atoms: C_8  and  C_18
REMARK    5  A    between atoms: C_10  and  C_20
REMARK    6  A    between atoms: C_14  and  C_19
REMARK    7  A    between atoms: C_19  and  C_21
REMARK    8  A    between atoms: C_19  and  C_22
REMARK    9  A    between atoms: C_23  and  C_24
REMARK   10  A    between atoms: C_30  and  C_31
REMARK                            x       y       z     vdW  Elec       q    Type
REMARK                         _______ _______ _______ _____ _____    ______ ____
ROOT
ATOM      8  C   UNL     1      12.552   8.038  21.129  0.00  0.00    -0.027 C 
ATOM      9  C   UNL     1      13.568   8.929  21.919  0.00  0.00    +0.028 C 
ATOM     10  C   UNL     1      12.952  10.340  22.229  0.00  0.00    +0.012 C 
ATOM     11  C   UNL     1      14.960   8.946  21.224  0.00  0.00    +0.122 C 
ATOM     12  C   UNL     1      13.145   6.622  20.940  0.00  0.00    +0.007 C 
ATOM     13  C   UNL     1      11.255   7.898  21.960  0.00  0.00    +0.009 C 
ATOM     14  C   UNL     1      15.502   7.524  20.943  0.00  0.00    +0.029 C 
ATOM     15  C   UNL     1      11.611  10.185  22.998  0.00  0.00    +0.076 C 
ATOM     16  C   UNL     1      14.490   6.631  20.226  0.00  0.00    +0.007 C 
ATOM     17  C   UNL     1      10.625   9.237  22.314  0.00  0.00    +0.023 C 
ATOM     18  C   UNL     1      12.205   8.623  19.737  0.00  0.00    +0.011 C 
ATOM     20  C   UNL     1      13.890  11.259  23.030  0.00  0.00    +0.010 C 
ENDROOT
BRANCH  15   6
ATOM      5  O   UNL     1      11.146  11.553  25.517  0.00  0.00    -0.276 OA
ATOM      6  N   UNL     1      10.956  11.461  23.199  0.00  0.00    -0.312 N 
ATOM     23  C   UNL     1      10.782  12.032  24.446  0.00  0.00    +0.216 C 
ATOM     37  H   UNL     1      10.567  11.923  22.382  0.00  0.00    +0.149 HD
BRANCH  23  24
ATOM     24  C   UNL     1      10.097  13.366  24.366  0.00  0.00    +0.075 C 
ATOM     25  C   UNL     1      10.463  14.243  25.566  0.00  0.00    +0.013 C 
ATOM     26  C   UNL     1      10.404  14.036  23.026  0.00  0.00    +0.013 C 
ATOM     27  C   UNL     1      11.863  14.850  25.469  0.00  0.00    +0.001 C 
ATOM     28  C   UNL     1      11.810  14.627  22.960  0.00  0.00    +0.001 C 
ATOM     29  C   UNL     1      12.086  15.556  24.137  0.00  0.00    +0.000 C 
ENDBRANCH  23  24
ENDBRANCH  15   6
BRANCH  11   3
ATOM      3  O   UNL     1      15.912   9.583  22.078  0.00  0.00    -0.391 OA
ATOM     38  H   UNL     1      15.983   9.061  22.895  0.00  0.00    +0.210 HD
ENDBRANCH  11   3
BRANCH  14  19
ATOM     19  C   UNL     1      16.810   7.561  20.144  0.00  0.00    +0.077 C 
ATOM     21  C   UNL     1      16.990   6.259  19.371  0.00  0.00    +0.017 C 
BRANCH  19  22
ATOM      4  O   UNL     1      18.446   8.943  21.274  0.00  0.00    -0.276 OA
ATOM      7  N   UNL     1      18.458   6.659  21.673  0.00  0.00    -0.311 N 
ATOM     22  C   UNL     1      17.985   7.820  21.081  0.00  0.00    +0.216 C 
ATOM     39  H   UNL     1      17.989   5.775  21.502  0.00  0.00    +0.149 HD
BRANCH   7  30
ATOM     30  C   UNL     1      19.567   6.650  22.599  0.00  0.00    +0.139 C 
BRANCH  30  31
ATOM      1  F   UNL     1      22.570   3.219  20.868  0.00  0.00    -0.205 F 
ATOM      2  F   UNL     1      23.850   7.766  20.549  0.00  0.00    -0.205 F 
ATOM     31  C   UNL     1      20.851   6.242  21.934  0.00  0.00    -0.025 A 
ATOM     32  C   UNL     1      21.773   7.213  21.544  0.00  0.00    +0.043 A 
ATOM     33  C   UNL     1      21.120   4.892  21.705  0.00  0.00    +0.043 A 
ATOM     34  C   UNL     1      22.312   4.514  21.087  0.00  0.00    +0.126 A 
ATOM     35  C   UNL     1      22.965   6.834  20.924  0.00  0.00    +0.126 A 
ATOM     36  C   UNL     1      23.234   5.485  20.697  0.00  0.00    +0.076 A 
ENDBRANCH  30  31
ENDBRANCH   7  30
ENDBRANCH  19  22
ENDBRANCH  14  19
TORSDOF 7
ENDMDL
MODEL 5
REMARK VINA RESULT:      -7.3     19.530     21.218
REMARK  Name = 45361469
REMARK  10 active torsions:
REMARK  status: ('A' for Active; 'I' for Inactive)
REMARK    1  A    between atoms: O_3  and  C_11
REMARK    2  A    between atoms: N_6  and  C_15
REMARK    3  A    between atoms: N_7  and  C_30
REMARK    4  A    between atoms: C_8  and  C_18
REMARK    5  A    between atoms: C_10  and  C_20
REMARK    6  A    between atoms: C_14  and  C_19
REMARK    7  A    between atoms: C_19  and  C_21
REMARK    8  A    between atoms: C_19  and  C_22
REMARK    9  A    between atoms: C_23  and  C_24
REMARK   10  A    between atoms: C_30  and  C_31
REMARK                            x       y       z     vdW  Elec       q    Type
REMARK                         _______ _______ _______ _____ _____    ______ ____
ROOT
ATOM      8  C   UNL     1      -3.640 -10.576  10.471  0.00  0.00    -0.027 C 
ATOM      9  C   UNL     1      -4.912 -10.174  11.290  0.00  0.00    +0.028 C 
ATOM     10  C   UNL     1      -5.694  -9.015  10.575  0.00  0.00    +0.012 C 
ATOM     11  C   UNL     1      -4.562  -9.922  12.786  0.00  0.00    +0.122 C 
ATOM     12  C   UNL     1      -2.957 -11.792  11.141  0.00  0.00    +0.007 C 
ATOM     13  C   UNL     1      -4.072 -11.004   9.049  0.00  0.00    +0.009 C 
ATOM     14  C   UNL     1      -3.787 -11.099  13.422  0.00  0.00    +0.029 C 
ATOM     15  C   UNL     1      -6.057  -9.428   9.122  0.00  0.00    +0.076 C 
ATOM     16  C   UNL     1      -2.578 -11.535  12.594  0.00  0.00    +0.007 C 
ATOM     17  C   UNL     1      -4.859  -9.928   8.315  0.00  0.00    +0.023 C 
ATOM     18  C   UNL     1      -2.611  -9.423  10.367  0.00  0.00    +0.011 C 
ATOM     20  C   UNL     1      -6.974  -8.589  11.315  0.00  0.00    +0.010 C 
ENDROOT
BRANCH  15   6
ATOM      5  O   UNL     1      -8.328  -9.579   7.318  0.00  0.00    -0.276 OA
ATOM      6  N   UNL     1      -6.678  -8.340   8.394  0.00  0.00    -0.312 N 
ATOM     23  C   UNL     1      -7.762  -8.515   7.554  0.00  0.00    +0.216 C 
ATOM     37  H   UNL     1      -6.255  -7.420   8.475  0.00  0.00    +0.149 HD
BRANCH  23  24
ATOM     24  C   UNL     1      -8.222  -7.221   6.947  0.00  0.00    +0.075 C 
ATOM     25  C   UNL     1      -9.468  -7.431   6.084  0.00  0.00    +0.013 C 
ATOM     26  C   UNL     1      -8.428  -6.171   8.040  0.00  0.00    +0.013 C 
ATOM     27  C   UNL     1     -10.748  -7.613   6.900  0.00  0.00    +0.001 C 
ATOM     28  C   UNL     1      -9.712  -6.383   8.839  0.00  0.00    +0.001 C 
ATOM     29  C   UNL     1     -10.929  -6.503   7.929  0.00  0.00    +0.000 C 
ENDBRANCH  23  24
ENDBRANCH  15   6
BRANCH  11   3
ATOM      3  O   UNL     1      -5.766  -9.772  13.538  0.00  0.00    -0.391 OA
ATOM     38  H   UNL     1      -5.938  -8.822  13.650  0.00  0.00    +0.210 HD
ENDBRANCH  11   3
BRANCH  14  19
ATOM     19  C   UNL     1      -3.338 -10.778  14.853  0.00  0.00    +0.077 C 
ATOM     21  C   UNL     1      -1.821 -10.874  14.962  0.00  0.00    +0.017 C 
BRANCH  19  22
ATOM      4  O   UNL     1      -4.469 -12.818  15.507  0.00  0.00    -0.276 OA
ATOM      7  N   UNL     1      -4.093 -11.192  17.118  0.00  0.00    -0.311 N 
ATOM     22  C   UNL     1      -4.027 -11.719  15.837  0.00  0.00    +0.216 C 
ATOM     39  H   UNL     1      -3.658 -10.298  17.321  0.00  0.00    +0.149 HD
BRANCH   7  30
ATOM     30  C   UNL     1      -4.702 -11.897  18.222  0.00  0.00    +0.139 C 
BRANCH  30  31
ATOM      1  F   UNL     1      -9.082 -12.557  20.264  0.00  0.00    -0.205 F 
ATOM      2  F   UNL     1      -8.394  -8.801  17.464  0.00  0.00    -0.205 F 
ATOM     31  C   UNL     1      -6.124 -11.468  18.447  0.00  0.00    -0.025 A 
ATOM     32  C   UNL     1      -6.608 -10.312  17.838  0.00  0.00    +0.043 A 
ATOM     33  C   UNL     1      -6.959 -12.228  19.267  0.00  0.00    +0.043 A 
ATOM     34  C   UNL     1      -8.280 -11.829  19.477  0.00  0.00    +0.126 A 
ATOM     35  C   UNL     1      -7.929  -9.913  18.049  0.00  0.00    +0.126 A 
ATOM     36  C   UNL     1      -8.764 -10.671  18.867  0.00  0.00    +0.076 A 
ENDBRANCH  30  31
ENDBRANCH   7  30
ENDBRANCH  19  22
ENDBRANCH  14  19
TORSDOF 7
ENDMDL
MODEL 6
REMARK VINA RESULT:      -7.2     28.221     31.568
REMARK  Name = 45361469
REMARK  10 active torsions:
REMARK  status: ('A' for Active; 'I' for Inactive)
REMARK    1  A    between atoms: O_3  and  C_11
REMARK    2  A    between atoms: N_6  and  C_15
REMARK    3  A    between atoms: N_7  and  C_30
REMARK    4  A    between atoms: C_8  and  C_18
REMARK    5  A    between atoms: C_10  and  C_20
REMARK    6  A    between atoms: C_14  and  C_19
REMARK    7  A    between atoms: C_19  and  C_21
REMARK    8  A    between atoms: C_19  and  C_22
REMARK    9  A    between atoms: C_23  and  C_24
REMARK   10  A    between atoms: C_30  and  C_31
REMARK                            x       y       z     vdW  Elec       q    Type
REMARK                         _______ _______ _______ _____ _____    ______ ____
ROOT
ATOM      8  C   UNL     1      11.798  10.779  22.309  0.00  0.00    -0.027 C 
ATOM      9  C   UNL     1      13.361  10.707  22.373  0.00  0.00    +0.028 C 
ATOM     10  C   UNL     1      13.937  11.856  23.275  0.00  0.00    +0.012 C 
ATOM     11  C   UNL     1      13.978  10.602  20.948  0.00  0.00    +0.122 C 
ATOM     12  C   UNL     1      11.258   9.571  21.509  0.00  0.00    +0.007 C 
ATOM     13  C   UNL     1      11.232  10.683  23.745  0.00  0.00    +0.009 C 
ATOM     14  C   UNL     1      13.359   9.456  20.114  0.00  0.00    +0.029 C 
ATOM     15  C   UNL     1      13.304  11.795  24.693  0.00  0.00    +0.076 C 
ATOM     16  C   UNL     1      11.830   9.487  20.100  0.00  0.00    +0.007 C 
ATOM     17  C   UNL     1      11.776  11.758  24.675  0.00  0.00    +0.023 C 
ATOM     18  C   UNL     1      11.290  12.084  21.646  0.00  0.00    +0.011 C 
ATOM     20  C   UNL     1      15.470  11.826  23.404  0.00  0.00    +0.010 C 
ENDROOT
BRANCH  15   6
ATOM      5  O   UNL     1      14.535  11.682  27.321  0.00  0.00    -0.276 OA
ATOM      6  N   UNL     1      13.726  12.909  25.517  0.00  0.00    -0.312 N 
ATOM     23  C   UNL     1      14.306  12.751  26.762  0.00  0.00    +0.216 C 
ATOM     37  H   UNL     1      13.534  13.846  25.173  0.00  0.00    +0.149 HD
BRANCH  23  24
ATOM     24  C   UNL     1      14.669  14.066  27.388  0.00  0.00    +0.075 C 
ATOM     25  C   UNL     1      15.681  13.875  28.521  0.00  0.00    +0.013 C 
ATOM     26  C   UNL     1      15.158  15.043  26.316  0.00  0.00    +0.013 C 
ATOM     27  C   UNL     1      17.102  13.609  28.026  0.00  0.00    +0.001 C 
ATOM     28  C   UNL     1      16.578  14.748  25.841  0.00  0.00    +0.001 C 
ATOM     29  C   UNL     1      17.554  14.650  27.008  0.00  0.00    +0.000 C 
ENDBRANCH  23  24
ENDBRANCH  15   6
BRANCH  11   3
ATOM      3  O   UNL     1      15.374  10.321  21.053  0.00  0.00    -0.391 OA
ATOM     38  H   UNL     1      15.530   9.427  20.706  0.00  0.00    +0.210 HD
ENDBRANCH  11   3
BRANCH  14  19
ATOM     19  C   UNL     1      13.884   9.451  18.674  0.00  0.00    +0.077 C 
ATOM     21  C   UNL     1      12.751   9.753  17.700  0.00  0.00    +0.017 C 
BRANCH  19  22
ATOM      4  O   UNL     1      14.332   7.492  17.323  0.00  0.00    -0.276 OA
ATOM      7  N   UNL     1      15.384   7.683  19.381  0.00  0.00    -0.311 N 
ATOM     22  C   UNL     1      14.542   8.110  18.365  0.00  0.00    +0.216 C 
ATOM     39  H   UNL     1      15.544   8.277  20.188  0.00  0.00    +0.149 HD
BRANCH   7  30
ATOM     30  C   UNL     1      16.117   6.440  19.318  0.00  0.00    +0.139 C 
BRANCH  30  31
ATOM      1  F   UNL     1      19.038   8.546  22.608  0.00  0.00    -0.205 F 
ATOM      2  F   UNL     1      20.630   4.805  20.182  0.00  0.00    -0.205 F 
ATOM     31  C   UNL     1      17.427   6.523  20.049  0.00  0.00    -0.025 A 
ATOM     32  C   UNL     1      18.441   5.608  19.769  0.00  0.00    +0.043 A 
ATOM     33  C   UNL     1      17.628   7.516  21.008  0.00  0.00    +0.043 A 
ATOM     34  C   UNL     1      18.844   7.593  21.688  0.00  0.00    +0.126 A 
ATOM     35  C   UNL     1      19.657   5.684  20.449  0.00  0.00    +0.126 A 
ATOM     36  C   UNL     1      19.858   6.677  21.408  0.00  0.00    +0.076 A 
ENDBRANCH  30  31
ENDBRANCH   7  30
ENDBRANCH  19  22
ENDBRANCH  14  19
TORSDOF 7
ENDMDL
MODEL 7
REMARK VINA RESULT:      -7.2     28.529     32.977
REMARK  Name = 45361469
REMARK  10 active torsions:
REMARK  status: ('A' for Active; 'I' for Inactive)
REMARK    1  A    between atoms: O_3  and  C_11
REMARK    2  A    between atoms: N_6  and  C_15
REMARK    3  A    between atoms: N_7  and  C_30
REMARK    4  A    between atoms: C_8  and  C_18
REMARK    5  A    between atoms: C_10  and  C_20
REMARK    6  A    between atoms: C_14  and  C_19
REMARK    7  A    between atoms: C_19  and  C_21
REMARK    8  A    between atoms: C_19  and  C_22
REMARK    9  A    between atoms: C_23  and  C_24
REMARK   10  A    between atoms: C_30  and  C_31
REMARK                            x       y       z     vdW  Elec       q    Type
REMARK                         _______ _______ _______ _____ _____    ______ ____
ROOT
ATOM      8  C   UNL     1      14.241   7.759  20.809  0.00  0.00    -0.027 C 
ATOM      9  C   UNL     1      15.095   8.680  21.743  0.00  0.00    +0.028 C 
ATOM     10  C   UNL     1      14.470  10.118  21.833  0.00  0.00    +0.012 C 
ATOM     11  C   UNL     1      16.602   8.628  21.359  0.00  0.00    +0.122 C 
ATOM     12  C   UNL     1      14.818   6.323  20.833  0.00  0.00    +0.007 C 
ATOM     13  C   UNL     1      12.795   7.693  21.352  0.00  0.00    +0.009 C 
ATOM     14  C   UNL     1      17.148   7.183  21.283  0.00  0.00    +0.029 C 
ATOM     15  C   UNL     1      12.993  10.035  22.307  0.00  0.00    +0.076 C 
ATOM     16  C   UNL     1      16.283   6.264  20.420  0.00  0.00    +0.007 C 
ATOM     17  C   UNL     1      12.145   9.063  21.486  0.00  0.00    +0.023 C 
ATOM     18  C   UNL     1      14.214   8.260  19.343  0.00  0.00    +0.011 C 
ATOM     20  C   UNL     1      15.246  11.069  22.760  0.00  0.00    +0.010 C 
ENDROOT
BRANCH  15   6
ATOM      5  O   UNL     1      10.862  10.971  24.044  0.00  0.00    -0.276 OA
ATOM      6  N   UNL     1      12.350  11.332  22.291  0.00  0.00    -0.312 N 
ATOM     23  C   UNL     1      11.337  11.684  23.165  0.00  0.00    +0.216 C 
ATOM     37  H   UNL     1      12.631  11.986  21.565  0.00  0.00    +0.149 HD
BRANCH  23  24
ATOM     24  C   UNL     1      10.867  13.093  22.946  0.00  0.00    +0.075 C 
ATOM     25  C   UNL     1      10.026  13.581  24.129  0.00  0.00    +0.013 C 
ATOM     26  C   UNL     1      12.059  14.006  22.651  0.00  0.00    +0.013 C 
ATOM     27  C   UNL     1      10.860  13.948  25.356  0.00  0.00    +0.001 C 
ATOM     28  C   UNL     1      12.873  14.350  23.896  0.00  0.00    +0.001 C 
ATOM     29  C   UNL     1      11.993  14.907  25.009  0.00  0.00    +0.000 C 
ENDBRANCH  23  24
ENDBRANCH  15   6
BRANCH  11   3
ATOM      3  O   UNL     1      17.371   9.301  22.357  0.00  0.00    -0.391 OA
ATOM     38  H   UNL     1      17.806  10.065  21.941  0.00  0.00    +0.210 HD
ENDBRANCH  11   3
BRANCH  14  19
ATOM     19  C   UNL     1      18.595   7.146  20.778  0.00  0.00    +0.077 C 
ATOM     21  C   UNL     1      18.755   6.062  19.719  0.00  0.00    +0.017 C 
BRANCH  19  22
ATOM      4  O   UNL     1      19.534   7.628  22.958  0.00  0.00    -0.276 OA
ATOM      7  N   UNL     1      20.412   5.862  21.737  0.00  0.00    -0.311 N 
ATOM     22  C   UNL     1      19.548   6.926  21.949  0.00  0.00    +0.216 C 
ATOM     39  H   UNL     1      20.326   5.298  20.898  0.00  0.00    +0.149 HD
BRANCH   7  30
ATOM     30  C   UNL     1      21.408   5.461  22.704  0.00  0.00    +0.139 C 
BRANCH  30  31
ATOM      1  F   UNL     1      24.583   4.045  19.282  0.00  0.00    -0.205 F 
ATOM      2  F   UNL     1      23.672   1.145  22.913  0.00  0.00    -0.205 F 
ATOM     31  C   UNL     1      22.365   4.451  22.138  0.00  0.00    -0.025 A 
ATOM     32  C   UNL     1      22.577   3.242  22.801  0.00  0.00    +0.043 A 
ATOM     33  C   UNL     1      23.043   4.722  20.949  0.00  0.00    +0.043 A 
ATOM     34  C   UNL     1      23.932   3.785  20.423  0.00  0.00    +0.126 A 
ATOM     35  C   UNL     1      23.467   2.305  22.275  0.00  0.00    +0.126 A 
ATOM     36  C   UNL     1      24.144   2.576  21.087  0.00  0.00    +0.076 A 
ENDBRANCH  30  31
ENDBRANCH   7  30
ENDBRANCH  19  22
ENDBRANCH  14  19
TORSDOF 7
ENDMDL
MODEL 8
REMARK VINA RESULT:      -7.2     18.853     21.262
REMARK  Name = 45361469
REMARK  10 active torsions:
REMARK  status: ('A' for Active; 'I' for Inactive)
REMARK    1  A    between atoms: O_3  and  C_11
REMARK    2  A    between atoms: N_6  and  C_15
REMARK    3  A    between atoms: N_7  and  C_30
REMARK    4  A    between atoms: C_8  and  C_18
REMARK    5  A    between atoms: C_10  and  C_20
REMARK    6  A    between atoms: C_14  and  C_19
REMARK    7  A    between atoms: C_19  and  C_21
REMARK    8  A    between atoms: C_19  and  C_22
REMARK    9  A    between atoms: C_23  and  C_24
REMARK   10  A    between atoms: C_30  and  C_31
REMARK                            x       y       z     vdW  Elec       q    Type
REMARK                         _______ _______ _______ _____ _____    ______ ____
ROOT
ATOM      8  C   UNL     1      -5.942 -11.507  18.541  0.00  0.00    -0.027 C 
ATOM      9  C   UNL     1      -5.938 -10.511  17.333  0.00  0.00    +0.028 C 
ATOM     10  C   UNL     1      -7.364 -10.414  16.683  0.00  0.00    +0.012 C 
ATOM     11  C   UNL     1      -4.774 -10.825  16.349  0.00  0.00    +0.122 C 
ATOM     12  C   UNL     1      -4.555 -11.492  19.227  0.00  0.00    +0.007 C 
ATOM     13  C   UNL     1      -6.985 -11.034  19.580  0.00  0.00    +0.009 C 
ATOM     14  C   UNL     1      -3.402 -10.911  17.058  0.00  0.00    +0.029 C 
ATOM     15  C   UNL     1      -8.417 -10.012  17.753  0.00  0.00    +0.076 C 
ATOM     16  C   UNL     1      -3.417 -11.837  18.274  0.00  0.00    +0.007 C 
ATOM     17  C   UNL     1      -8.385 -10.896  18.999  0.00  0.00    +0.023 C 
ATOM     18  C   UNL     1      -6.270 -12.959  18.112  0.00  0.00    +0.011 C 
ATOM     20  C   UNL     1      -7.438  -9.428  15.505  0.00  0.00    +0.010 C 
ENDROOT
BRANCH  15   6
ATOM      5  O   UNL     1     -10.238  -7.765  17.492  0.00  0.00    -0.276 OA
ATOM      6  N   UNL     1      -9.761 -10.026  17.215  0.00  0.00    -0.312 N 
ATOM     23  C   UNL     1     -10.554  -8.896  17.133  0.00  0.00    +0.216 C 
ATOM     37  H   UNL     1     -10.146 -10.924  16.934  0.00  0.00    +0.149 HD
BRANCH  23  24
ATOM     24  C   UNL     1     -11.891  -9.186  16.513  0.00  0.00    +0.075 C 
ATOM     25  C   UNL     1     -12.672  -7.894  16.263  0.00  0.00    +0.013 C 
ATOM     26  C   UNL     1     -11.712 -10.025  15.246  0.00  0.00    +0.013 C 
ATOM     27  C   UNL     1     -12.174  -7.108  15.050  0.00  0.00    +0.001 C 
ATOM     28  C   UNL     1     -11.209  -9.212  14.055  0.00  0.00    +0.001 C 
ATOM     29  C   UNL     1     -12.076  -7.983  13.806  0.00  0.00    +0.000 C 
ENDBRANCH  23  24
ENDBRANCH  15   6
BRANCH  11   3
ATOM      3  O   UNL     1      -4.669  -9.775  15.386  0.00  0.00    -0.391 OA
ATOM     38  H   UNL     1      -4.983 -10.115  14.531  0.00  0.00    +0.210 HD
ENDBRANCH  11   3
BRANCH  14  19
ATOM     19  C   UNL     1      -2.291 -11.349  16.096  0.00  0.00    +0.077 C 
ATOM     21  C   UNL     1      -1.387 -10.167  15.766  0.00  0.00    +0.017 C 
BRANCH  19  22
ATOM      4  O   UNL     1      -3.633 -12.940  14.857  0.00  0.00    -0.276 OA
ATOM      7  N   UNL     1      -2.543 -11.259  13.687  0.00  0.00    -0.311 N 
ATOM     22  C   UNL     1      -2.903 -11.950  14.834  0.00  0.00    +0.216 C 
ATOM     39  H   UNL     1      -1.978 -10.419  13.758  0.00  0.00    +0.149 HD
BRANCH   7  30
ATOM     30  C   UNL     1      -2.997 -11.641  12.370  0.00  0.00    +0.139 C 
BRANCH  30  31
ATOM      1  F   UNL     1      -6.839  -8.638  12.293  0.00  0.00    -0.205 F 
ATOM      2  F   UNL     1      -3.717  -8.467   8.737  0.00  0.00    -0.205 F 
ATOM     31  C   UNL     1      -3.801 -10.553  11.716  0.00  0.00    -0.025 A 
ATOM     32  C   UNL     1      -3.378 -10.006  10.505  0.00  0.00    +0.043 A 
ATOM     33  C   UNL     1      -4.971 -10.092  12.320  0.00  0.00    +0.043 A 
ATOM     34  C   UNL     1      -5.717  -9.081  11.713  0.00  0.00    +0.126 A 
ATOM     35  C   UNL     1      -4.124  -8.994   9.899  0.00  0.00    +0.126 A 
ATOM     36  C   UNL     1      -5.293  -8.533  10.503  0.00  0.00    +0.076 A 
ENDBRANCH  30  31
ENDBRANCH   7  30
ENDBRANCH  19  22
ENDBRANCH  14  19
TORSDOF 7
ENDMDL
MODEL 9
REMARK VINA RESULT:      -7.1     30.627     35.650
REMARK  Name = 45361469
REMARK  10 active torsions:
REMARK  status: ('A' for Active; 'I' for Inactive)
REMARK    1  A    between atoms: O_3  and  C_11
REMARK    2  A    between atoms: N_6  and  C_15
REMARK    3  A    between atoms: N_7  and  C_30
REMARK    4  A    between atoms: C_8  and  C_18
REMARK    5  A    between atoms: C_10  and  C_20
REMARK    6  A    between atoms: C_14  and  C_19
REMARK    7  A    between atoms: C_19  and  C_21
REMARK    8  A    between atoms: C_19  and  C_22
REMARK    9  A    between atoms: C_23  and  C_24
REMARK   10  A    between atoms: C_30  and  C_31
REMARK                            x       y       z     vdW  Elec       q    Type
REMARK                         _______ _______ _______ _____ _____    ______ ____
ROOT
ATOM      8  C   UNL     1      13.652   5.005   0.878  0.00  0.00    -0.027 C 
ATOM      9  C   UNL     1      12.108   5.219   1.015  0.00  0.00    +0.028 C 
ATOM     10  C   UNL     1      11.693   5.347   2.525  0.00  0.00    +0.012 C 
ATOM     11  C   UNL     1      11.318   4.163   0.190  0.00  0.00    +0.122 C 
ATOM     12  C   UNL     1      14.042   4.998  -0.619  0.00  0.00    +0.007 C 
ATOM     13  C   UNL     1      14.387   6.189   1.549  0.00  0.00    +0.009 C 
ATOM     14  C   UNL     1      11.783   4.088  -1.283  0.00  0.00    +0.029 C 
ATOM     15  C   UNL     1      12.492   6.490   3.208  0.00  0.00    +0.076 C 
ATOM     16  C   UNL     1      13.298   3.939  -1.422  0.00  0.00    +0.007 C 
ATOM     17  C   UNL     1      14.004   6.378   3.010  0.00  0.00    +0.023 C 
ATOM     18  C   UNL     1      14.128   3.678   1.522  0.00  0.00    +0.011 C 
ATOM     20  C   UNL     1      10.188   5.588   2.731  0.00  0.00    +0.010 C 
ENDROOT
BRANCH  15   6
ATOM      5  O   UNL     1      11.528   8.781   4.710  0.00  0.00    -0.276 OA
ATOM      6  N   UNL     1      12.220   6.561   4.629  0.00  0.00    -0.312 N 
ATOM     23  C   UNL     1      11.761   7.705   5.255  0.00  0.00    +0.216 C 
ATOM     37  H   UNL     1      12.429   5.738   5.188  0.00  0.00    +0.149 HD
BRANCH  23  24
ATOM     24  C   UNL     1      11.538   7.496   6.724  0.00  0.00    +0.075 C 
ATOM     25  C   UNL     1      10.777   8.674   7.337  0.00  0.00    +0.013 C 
ATOM     26  C   UNL     1      10.846   6.153   6.966  0.00  0.00    +0.013 C 
ATOM     27  C   UNL     1       9.283   8.666   7.013  0.00  0.00    +0.001 C 
ATOM     28  C   UNL     1       9.357   6.178   6.628  0.00  0.00    +0.001 C 
ATOM     29  C   UNL     1       8.638   7.322   7.333  0.00  0.00    +0.000 C 
ENDBRANCH  23  24
ENDBRANCH  15   6
BRANCH  11   3
ATOM      3  O   UNL     1       9.934   4.518   0.163  0.00  0.00    -0.391 OA
ATOM     38  H   UNL     1       9.413   3.701   0.095  0.00  0.00    +0.210 HD
ENDBRANCH  11   3
BRANCH  14  19
ATOM     19  C   UNL     1      11.085   2.954  -2.043  0.00  0.00    +0.077 C 
ATOM     21  C   UNL     1      12.108   1.922  -2.502  0.00  0.00    +0.017 C 
BRANCH  19  22
ATOM      4  O   UNL     1      10.509   3.183  -4.384  0.00  0.00    -0.276 OA
ATOM      7  N   UNL     1       9.351   4.454  -2.828  0.00  0.00    -0.311 N 
ATOM     22  C   UNL     1      10.302   3.524  -3.222  0.00  0.00    +0.216 C 
ATOM     39  H   UNL     1       9.205   4.644  -1.842  0.00  0.00    +0.149 HD
BRANCH   7  30
ATOM     30  C   UNL     1       8.487   5.133  -3.767  0.00  0.00    +0.139 C 
BRANCH  30  31
ATOM      1  F   UNL     1       4.517   7.845  -2.947  0.00  0.00    -0.205 F 
ATOM      2  F   UNL     1       8.654   9.206  -1.089  0.00  0.00    -0.205 F 
ATOM     31  C   UNL     1       7.818   6.328  -3.151  0.00  0.00    -0.025 A 
ATOM     32  C   UNL     1       8.562   7.231  -2.392  0.00  0.00    +0.043 A 
ATOM     33  C   UNL     1       6.451   6.536  -3.339  0.00  0.00    +0.043 A 
ATOM     34  C   UNL     1       5.829   7.646  -2.767  0.00  0.00    +0.126 A 
ATOM     35  C   UNL     1       7.940   8.340  -1.819  0.00  0.00    +0.126 A 
ATOM     36  C   UNL     1       6.574   8.547  -2.007  0.00  0.00    +0.076 A 
ENDBRANCH  30  31
ENDBRANCH   7  30
ENDBRANCH  19  22
ENDBRANCH  14  19
TORSDOF 7
ENDMDL
MODEL 10
REMARK VINA RESULT:      -7.1     19.117     20.872
REMARK  Name = 45361469
REMARK  10 active torsions:
REMARK  status: ('A' for Active; 'I' for Inactive)
REMARK    1  A    between atoms: O_3  and  C_11
REMARK    2  A    between atoms: N_6  and  C_15
REMARK    3  A    between atoms: N_7  and  C_30
REMARK    4  A    between atoms: C_8  and  C_18
REMARK    5  A    between atoms: C_10  and  C_20
REMARK    6  A    between atoms: C_14  and  C_19
REMARK    7  A    between atoms: C_19  and  C_21
REMARK    8  A    between atoms: C_19  and  C_22
REMARK    9  A    between atoms: C_23  and  C_24
REMARK   10  A    between atoms: C_30  and  C_31
REMARK                            x       y       z     vdW  Elec       q    Type
REMARK                         _______ _______ _______ _____ _____    ______ ____
ROOT
ATOM      8  C   UNL     1      -3.732 -10.864  11.074  0.00  0.00    -0.027 C 
ATOM      9  C   UNL     1      -5.081 -10.352  11.682  0.00  0.00    +0.028 C 
ATOM     10  C   UNL     1      -5.728  -9.256  10.762  0.00  0.00    +0.012 C 
ATOM     11  C   UNL     1      -4.910  -9.956  13.177  0.00  0.00    +0.122 C 
ATOM     12  C   UNL     1      -3.180 -12.019  11.942  0.00  0.00    +0.007 C 
ATOM     13  C   UNL     1      -3.999 -11.426   9.658  0.00  0.00    +0.009 C 
ATOM     14  C   UNL     1      -4.261 -11.078  14.020  0.00  0.00    +0.029 C 
ATOM     15  C   UNL     1      -5.922  -9.808   9.322  0.00  0.00    +0.076 C 
ATOM     16  C   UNL     1      -2.975 -11.623  13.399  0.00  0.00    +0.007 C 
ATOM     17  C   UNL     1      -4.651 -10.414   8.727  0.00  0.00    +0.023 C 
ATOM     18  C   UNL     1      -2.659  -9.750  10.987  0.00  0.00    +0.011 C 
ATOM     20  C   UNL     1      -7.075  -8.729  11.287  0.00  0.00    +0.010 C 
ENDROOT
BRANCH  15   6
ATOM      5  O   UNL     1      -8.347  -9.876   7.726  0.00  0.00    -0.276 OA
ATOM      6  N   UNL     1      -6.410  -8.787   8.417  0.00  0.00    -0.312 N 
ATOM     23  C   UNL     1      -7.584  -8.914   7.698  0.00  0.00    +0.216 C 
ATOM     37  H   UNL     1      -5.827  -7.967   8.277  0.00  0.00    +0.149 HD
BRANCH  23  24
ATOM     24  C   UNL     1      -7.866  -7.702   6.858  0.00  0.00    +0.075 C 
ATOM     25  C   UNL     1      -9.099  -7.920   5.977  0.00  0.00    +0.013 C 
ATOM     26  C   UNL     1      -7.984  -6.462   7.746  0.00  0.00    +0.013 C 
ATOM     27  C   UNL     1     -10.418  -7.814   6.742  0.00  0.00    +0.001 C 
ATOM     28  C   UNL     1      -9.310  -6.389   8.499  0.00  0.00    +0.001 C 
ATOM     29  C   UNL     1     -10.501  -6.529   7.558  0.00  0.00    +0.000 C 
ENDBRANCH  23  24
ENDBRANCH  15   6
BRANCH  11   3
ATOM      3  O   UNL     1      -6.193  -9.704  13.752  0.00  0.00    -0.391 OA
ATOM     38  H   UNL     1      -6.865  -9.826  13.060  0.00  0.00    +0.210 HD
ENDBRANCH  11   3
BRANCH  14  19
ATOM     19  C   UNL     1      -3.983 -10.622  15.457  0.00  0.00    +0.077 C 
ATOM     21  C   UNL     1      -2.517 -10.854  15.807  0.00  0.00    +0.017 C 
BRANCH  19  22
ATOM      4  O   UNL     1      -4.648 -12.467  16.878  0.00  0.00    -0.276 OA
ATOM      7  N   UNL     1      -6.052 -10.628  16.717  0.00  0.00    -0.311 N 
ATOM     22  C   UNL     1      -4.908 -11.355  16.423  0.00  0.00    +0.216 C 
ATOM     39  H   UNL     1      -6.169  -9.693  16.342  0.00  0.00    +0.149 HD
BRANCH   7  30
ATOM     30  C   UNL     1      -7.080 -11.116  17.608  0.00  0.00    +0.139 C 
BRANCH  30  31
ATOM      1  F   UNL     1      -9.507  -7.213  15.978  0.00  0.00    -0.205 F 
ATOM      2  F   UNL     1     -11.478  -9.907  19.336  0.00  0.00    -0.205 F 
ATOM     31  C   UNL     1      -8.282 -10.215  17.626  0.00  0.00    -0.025 A 
ATOM     32  C   UNL     1      -9.342 -10.484  18.491  0.00  0.00    +0.043 A 
ATOM     33  C   UNL     1      -8.337  -9.110  16.777  0.00  0.00    +0.043 A 
ATOM     34  C   UNL     1      -9.454  -8.274  16.793  0.00  0.00    +0.126 A 
ATOM     35  C   UNL     1     -10.459  -9.648  18.506  0.00  0.00    +0.126 A 
ATOM     36  C   UNL     1     -10.514  -8.543  17.658  0.00  0.00    +0.076 A 
ENDBRANCH  30  31
ENDBRANCH   7  30
ENDBRANCH  19  22
ENDBRANCH  14  19
TORSDOF 7
ENDMDL
