MODEL 1
REMARK VINA RESULT:      -7.3      0.000      0.000
REMARK  Name = 40586222
REMARK  7 active torsions:
REMARK  status: ('A' for Active; 'I' for Inactive)
REMARK    1  A    between atoms: N_6  and  C_20
REMARK    2  A    between atoms: N_7  and  C_26
REMARK    3  A    between atoms: C_15  and  C_18
REMARK    4  A    between atoms: C_18  and  C_19
REMARK    5  A    between atoms: C_19  and  C_22
REMARK    6  A    between atoms: C_19  and  C_23
REMARK    7  A    between atoms: C_19  and  C_24
REMARK                            x       y       z     vdW  Elec       q    Type
REMARK                         _______ _______ _______ _____ _____    ______ ____
ROOT
ATOM      1  O   UNL     1      15.199   8.701  22.698  0.00  0.00    -0.276 OA
ATOM      2  O   UNL     1      13.882  11.634  18.418  0.00  0.00    -0.266 OA
ATOM      4  N   UNL     1      13.325   7.823  21.643  0.00  0.00    -0.301 N 
ATOM      5  N   UNL     1      12.843   9.640  19.057  0.00  0.00    -0.310 N 
ATOM      8  C   UNL     1      11.459   9.424  21.199  0.00  0.00    +0.027 C 
ATOM      9  C   UNL     1      11.760   7.470  19.739  0.00  0.00    +0.054 C 
ATOM     10  C   UNL     1      10.715   8.331  20.442  0.00  0.00    +0.018 C 
ATOM     11  C   UNL     1      12.416   8.808  22.234  0.00  0.00    +0.113 C 
ATOM     12  C   UNL     1      12.681   6.814  20.787  0.00  0.00    +0.117 C 
ATOM     13  C   UNL     1      12.196  10.313  20.190  0.00  0.00    +0.130 C 
ATOM     14  C   UNL     1      12.589   8.295  18.772  0.00  0.00    +0.027 A 
ATOM     15  C   UNL     1      14.679   7.845  21.979  0.00  0.00    +0.216 C 
ATOM     16  C   UNL     1      13.099   7.732  17.664  0.00  0.00    +0.024 A 
ATOM     17  C   UNL     1      13.644  10.442  18.218  0.00  0.00    +0.273 A 
ATOM     20  C   UNL     1      14.213   9.769  17.007  0.00  0.00    +0.100 A 
ATOM     21  C   UNL     1      13.929   8.485  16.767  0.00  0.00    +0.030 A 
ENDROOT
BRANCH  20   6
ATOM      3  O   UNL     1      13.394  11.029  14.593  0.00  0.00    -0.252 OA
ATOM      6  N   UNL     1      15.005  10.508  16.177  0.00  0.00    -0.265 N 
ATOM      7  N   UNL     1      15.601  11.793  14.372  0.00  0.00    -0.269 N 
ATOM     25  C   UNL     1      14.552  11.109  14.995  0.00  0.00    +0.308 C 
ATOM     32  H   UNL     1      16.010  10.410  16.292  0.00  0.00    +0.157 HD
ATOM     33  H   UNL     1      16.505  11.765  14.839  0.00  0.00    +0.156 HD
BRANCH   7  26
ATOM     26  C   UNL     1      15.563  12.529  13.165  0.00  0.00    +0.035 A 
ATOM     27  C   UNL     1      15.036  13.820  13.151  0.00  0.00    +0.023 A 
ATOM     28  C   UNL     1      16.054  11.964  11.988  0.00  0.00    +0.023 A 
ATOM     29  C   UNL     1      14.998  14.546  11.961  0.00  0.00    +0.002 A 
ATOM     30  C   UNL     1      16.017  12.689  10.798  0.00  0.00    +0.002 A 
ATOM     31  C   UNL     1      15.488  13.981  10.783  0.00  0.00    +0.000 A 
ENDBRANCH   7  26
ENDBRANCH  20   6
BRANCH  15  18
ATOM     18  C   UNL     1      15.534   6.743  21.406  0.00  0.00    +0.102 C 
BRANCH  18  19
ATOM     19  C   UNL     1      16.483   7.239  20.299  0.00  0.00    -0.029 C 
ATOM     22  C   UNL     1      16.166   8.691  19.904  0.00  0.00    +0.011 C 
ATOM     23  C   UNL     1      16.400   6.340  19.053  0.00  0.00    +0.011 C 
ATOM     24  C   UNL     1      17.920   7.182  20.849  0.00  0.00    +0.011 C 
ENDBRANCH  18  19
ENDBRANCH  15  18
TORSDOF 4
ENDMDL
MODEL 2
REMARK VINA RESULT:      -7.0      2.062      3.634
REMARK  Name = 40586222
REMARK  7 active torsions:
REMARK  status: ('A' for Active; 'I' for Inactive)
REMARK    1  A    between atoms: N_6  and  C_20
REMARK    2  A    between atoms: N_7  and  C_26
REMARK    3  A    between atoms: C_15  and  C_18
REMARK    4  A    between atoms: C_18  and  C_19
REMARK    5  A    between atoms: C_19  and  C_22
REMARK    6  A    between atoms: C_19  and  C_23
REMARK    7  A    between atoms: C_19  and  C_24
REMARK                            x       y       z     vdW  Elec       q    Type
REMARK                         _______ _______ _______ _____ _____    ______ ____
ROOT
ATOM      1  O   UNL     1      10.784   9.385  22.261  0.00  0.00    -0.276 OA
ATOM      2  O   UNL     1      12.100   9.317  17.073  0.00  0.00    -0.266 OA
ATOM      4  N   UNL     1      12.913   8.505  21.963  0.00  0.00    -0.301 N 
ATOM      5  N   UNL     1      13.519   8.718  18.831  0.00  0.00    -0.310 N 
ATOM      8  C   UNL     1      13.117   6.656  20.295  0.00  0.00    +0.027 C 
ATOM      9  C   UNL     1      15.046   8.112  20.742  0.00  0.00    +0.054 C 
ATOM     10  C   UNL     1      14.629   6.667  20.483  0.00  0.00    +0.018 C 
ATOM     11  C   UNL     1      12.412   7.191  21.554  0.00  0.00    +0.113 C 
ATOM     12  C   UNL     1      14.377   8.620  22.034  0.00  0.00    +0.117 C 
ATOM     13  C   UNL     1      12.766   7.476  19.047  0.00  0.00    +0.130 C 
ATOM     14  C   UNL     1      14.664   9.009  19.579  0.00  0.00    +0.027 A 
ATOM     15  C   UNL     1      12.010   9.503  22.329  0.00  0.00    +0.216 C 
ATOM     16  C   UNL     1      15.404  10.092  19.286  0.00  0.00    +0.024 A 
ATOM     17  C   UNL     1      13.091   9.541  17.769  0.00  0.00    +0.273 A 
ATOM     20  C   UNL     1      13.930  10.750  17.493  0.00  0.00    +0.100 A 
ATOM     21  C   UNL     1      15.025  10.979  18.223  0.00  0.00    +0.030 A 
ENDROOT
BRANCH  20   6
ATOM      3  O   UNL     1      14.511  10.412  14.730  0.00  0.00    -0.252 OA
ATOM      6  N   UNL     1      13.541  11.581  16.481  0.00  0.00    -0.265 N 
ATOM      7  N   UNL     1      13.314  12.393  14.348  0.00  0.00    -0.269 N 
ATOM     25  C   UNL     1      13.855  11.369  15.132  0.00  0.00    +0.308 C 
ATOM     32  H   UNL     1      13.227  12.511  16.745  0.00  0.00    +0.157 HD
ATOM     33  H   UNL     1      12.790  13.115  14.838  0.00  0.00    +0.156 HD
BRANCH   7  26
ATOM     26  C   UNL     1      13.401  12.552  12.945  0.00  0.00    +0.035 A 
ATOM     27  C   UNL     1      12.284  12.311  12.145  0.00  0.00    +0.023 A 
ATOM     28  C   UNL     1      14.604  12.950  12.361  0.00  0.00    +0.023 A 
ATOM     29  C   UNL     1      12.370  12.467  10.762  0.00  0.00    +0.002 A 
ATOM     30  C   UNL     1      14.690  13.105  10.978  0.00  0.00    +0.002 A 
ATOM     31  C   UNL     1      13.573  12.864  10.178  0.00  0.00    +0.000 A 
ENDBRANCH   7  26
ENDBRANCH  20   6
BRANCH  15  18
ATOM     18  C   UNL     1      12.600  10.797  22.829  0.00  0.00    +0.102 C 
BRANCH  18  19
ATOM     19  C   UNL     1      12.244  12.000  21.936  0.00  0.00    -0.029 C 
ATOM     22  C   UNL     1      10.922  12.648  22.379  0.00  0.00    +0.011 C 
ATOM     23  C   UNL     1      12.140  11.584  20.459  0.00  0.00    +0.011 C 
ATOM     24  C   UNL     1      13.371  13.040  22.075  0.00  0.00    +0.011 C 
ENDBRANCH  18  19
ENDBRANCH  15  18
TORSDOF 4
ENDMDL
MODEL 3
REMARK VINA RESULT:      -6.9      3.181      7.906
REMARK  Name = 40586222
REMARK  7 active torsions:
REMARK  status: ('A' for Active; 'I' for Inactive)
REMARK    1  A    between atoms: N_6  and  C_20
REMARK    2  A    between atoms: N_7  and  C_26
REMARK    3  A    between atoms: C_15  and  C_18
REMARK    4  A    between atoms: C_18  and  C_19
REMARK    5  A    between atoms: C_19  and  C_22
REMARK    6  A    between atoms: C_19  and  C_23
REMARK    7  A    between atoms: C_19  and  C_24
REMARK                            x       y       z     vdW  Elec       q    Type
REMARK                         _______ _______ _______ _____ _____    ______ ____
ROOT
ATOM      1  O   UNL     1      12.171   9.541  17.449  0.00  0.00    -0.276 OA
ATOM      2  O   UNL     1      15.418   5.829  19.530  0.00  0.00    -0.266 OA
ATOM      4  N   UNL     1      12.109   9.600  19.771  0.00  0.00    -0.301 N 
ATOM      5  N   UNL     1      14.228   7.421  20.760  0.00  0.00    -0.310 N 
ATOM      8  C   UNL     1      11.673   7.423  20.916  0.00  0.00    +0.027 C 
ATOM      9  C   UNL     1      12.967   9.168  22.066  0.00  0.00    +0.054 C 
ATOM     10  C   UNL     1      11.895   8.100  22.263  0.00  0.00    +0.018 C 
ATOM     11  C   UNL     1      11.209   8.449  19.867  0.00  0.00    +0.113 C 
ATOM     12  C   UNL     1      12.471  10.219  21.054  0.00  0.00    +0.117 C 
ATOM     13  C   UNL     1      12.967   6.715  20.496  0.00  0.00    +0.130 C 
ATOM     14  C   UNL     1      14.266   8.555  21.576  0.00  0.00    +0.027 A 
ATOM     15  C   UNL     1      12.486  10.077  18.515  0.00  0.00    +0.216 C 
ATOM     16  C   UNL     1      15.444   9.116  21.898  0.00  0.00    +0.024 A 
ATOM     17  C   UNL     1      15.400   6.836  20.238  0.00  0.00    +0.273 A 
ATOM     20  C   UNL     1      16.689   7.506  20.602  0.00  0.00    +0.100 A 
ATOM     21  C   UNL     1      16.678   8.579  21.398  0.00  0.00    +0.030 A 
ENDROOT
BRANCH  20   6
ATOM      3  O   UNL     1      18.719   6.203  22.108  0.00  0.00    -0.252 OA
ATOM      6  N   UNL     1      17.847   6.979  20.105  0.00  0.00    -0.265 N 
ATOM      7  N   UNL     1      19.880   5.917  20.089  0.00  0.00    -0.269 N 
ATOM     25  C   UNL     1      18.818   6.346  20.891  0.00  0.00    +0.308 C 
ATOM     32  H   UNL     1      18.125   7.276  19.174  0.00  0.00    +0.157 HD
ATOM     33  H   UNL     1      19.806   6.111  19.093  0.00  0.00    +0.156 HD
BRANCH   7  26
ATOM     26  C   UNL     1      21.054   5.238  20.491  0.00  0.00    +0.035 A 
ATOM     27  C   UNL     1      22.276   5.909  20.510  0.00  0.00    +0.023 A 
ATOM     28  C   UNL     1      20.990   3.896  20.867  0.00  0.00    +0.023 A 
ATOM     29  C   UNL     1      23.434   5.240  20.906  0.00  0.00    +0.002 A 
ATOM     30  C   UNL     1      22.147   3.226  21.263  0.00  0.00    +0.002 A 
ATOM     31  C   UNL     1      23.370   3.898  21.282  0.00  0.00    +0.000 A 
ENDBRANCH   7  26
ENDBRANCH  20   6
BRANCH  15  18
ATOM     18  C   UNL     1      13.336  11.321  18.493  0.00  0.00    +0.102 C 
BRANCH  18  19
ATOM     19  C   UNL     1      14.809  11.032  18.148  0.00  0.00    -0.029 C 
ATOM     22  C   UNL     1      15.057   9.522  17.991  0.00  0.00    +0.011 C 
ATOM     23  C   UNL     1      15.752  11.595  19.225  0.00  0.00    +0.011 C 
ATOM     24  C   UNL     1      15.125  11.723  16.809  0.00  0.00    +0.011 C 
ENDBRANCH  18  19
ENDBRANCH  15  18
TORSDOF 4
ENDMDL
MODEL 4
REMARK VINA RESULT:      -6.5     27.413     30.413
REMARK  Name = 40586222
REMARK  7 active torsions:
REMARK  status: ('A' for Active; 'I' for Inactive)
REMARK    1  A    between atoms: N_6  and  C_20
REMARK    2  A    between atoms: N_7  and  C_26
REMARK    3  A    between atoms: C_15  and  C_18
REMARK    4  A    between atoms: C_18  and  C_19
REMARK    5  A    between atoms: C_19  and  C_22
REMARK    6  A    between atoms: C_19  and  C_23
REMARK    7  A    between atoms: C_19  and  C_24
REMARK                            x       y       z     vdW  Elec       q    Type
REMARK                         _______ _______ _______ _____ _____    ______ ____
ROOT
ATOM      1  O   UNL     1      -5.323 -14.657  12.740  0.00  0.00    -0.276 OA
ATOM      2  O   UNL     1      -6.551  -9.556  13.803  0.00  0.00    -0.266 OA
ATOM      4  N   UNL     1      -3.413 -13.440  13.259  0.00  0.00    -0.301 N 
ATOM      5  N   UNL     1      -4.422 -10.498  14.000  0.00  0.00    -0.310 N 
ATOM      8  C   UNL     1      -3.078 -11.319  11.982  0.00  0.00    +0.027 C 
ATOM      9  C   UNL     1      -2.141 -11.541  14.243  0.00  0.00    +0.054 C 
ATOM     10  C   UNL     1      -1.860 -11.007  12.842  0.00  0.00    +0.018 C 
ATOM     11  C   UNL     1      -3.325 -12.837  11.927  0.00  0.00    +0.113 C 
ATOM     12  C   UNL     1      -2.333 -13.069  14.185  0.00  0.00    +0.117 C 
ATOM     13  C   UNL     1      -4.288 -10.559  12.539  0.00  0.00    +0.130 C 
ATOM     14  C   UNL     1      -3.375 -10.890  14.840  0.00  0.00    +0.027 A 
ATOM     15  C   UNL     1      -4.426 -14.360  13.533  0.00  0.00    +0.216 C 
ATOM     16  C   UNL     1      -3.475 -10.717  16.169  0.00  0.00    +0.024 A 
ATOM     17  C   UNL     1      -5.610  -9.931  14.504  0.00  0.00    +0.273 A 
ATOM     20  C   UNL     1      -5.690  -9.779  15.991  0.00  0.00    +0.100 A 
ATOM     21  C   UNL     1      -4.658 -10.152  16.753  0.00  0.00    +0.030 A 
ENDROOT
BRANCH  20   6
ATOM      3  O   UNL     1      -7.804 -11.228  17.223  0.00  0.00    -0.252 OA
ATOM      6  N   UNL     1      -6.830  -9.245  16.519  0.00  0.00    -0.265 N 
ATOM      7  N   UNL     1      -8.875  -9.167  17.558  0.00  0.00    -0.269 N 
ATOM     25  C   UNL     1      -7.845 -10.005  17.117  0.00  0.00    +0.308 C 
ATOM     32  H   UNL     1      -7.061  -8.293  16.248  0.00  0.00    +0.157 HD
ATOM     33  H   UNL     1      -8.753  -8.170  17.395  0.00  0.00    +0.156 HD
BRANCH   7  26
ATOM     26  C   UNL     1     -10.075  -9.534  18.210  0.00  0.00    +0.035 A 
ATOM     27  C   UNL     1     -10.028 -10.267  19.396  0.00  0.00    +0.023 A 
ATOM     28  C   UNL     1     -11.306  -9.164  17.668  0.00  0.00    +0.023 A 
ATOM     29  C   UNL     1     -11.212 -10.630  20.039  0.00  0.00    +0.002 A 
ATOM     30  C   UNL     1     -12.489  -9.526  18.310  0.00  0.00    +0.002 A 
ATOM     31  C   UNL     1     -12.442 -10.260  19.497  0.00  0.00    +0.000 A 
ENDBRANCH   7  26
ENDBRANCH  20   6
BRANCH  15  18
ATOM     18  C   UNL     1      -4.397 -15.010  14.893  0.00  0.00    +0.102 C 
BRANCH  18  19
ATOM     19  C   UNL     1      -5.525 -14.512  15.816  0.00  0.00    -0.029 C 
ATOM     22  C   UNL     1      -6.351 -13.406  15.138  0.00  0.00    +0.011 C 
ATOM     23  C   UNL     1      -4.961 -13.987  17.147  0.00  0.00    +0.011 C 
ATOM     24  C   UNL     1      -6.452 -15.705  16.113  0.00  0.00    +0.011 C 
ENDBRANCH  18  19
ENDBRANCH  15  18
TORSDOF 4
ENDMDL
MODEL 5
REMARK VINA RESULT:      -6.4      3.469      7.663
REMARK  Name = 40586222
REMARK  7 active torsions:
REMARK  status: ('A' for Active; 'I' for Inactive)
REMARK    1  A    between atoms: N_6  and  C_20
REMARK    2  A    between atoms: N_7  and  C_26
REMARK    3  A    between atoms: C_15  and  C_18
REMARK    4  A    between atoms: C_18  and  C_19
REMARK    5  A    between atoms: C_19  and  C_22
REMARK    6  A    between atoms: C_19  and  C_23
REMARK    7  A    between atoms: C_19  and  C_24
REMARK                            x       y       z     vdW  Elec       q    Type
REMARK                         _______ _______ _______ _____ _____    ______ ____
ROOT
ATOM      1  O   UNL     1      14.836  11.067  17.057  0.00  0.00    -0.276 OA
ATOM      2  O   UNL     1      15.614   6.249  19.256  0.00  0.00    -0.266 OA
ATOM      4  N   UNL     1      13.040  10.479  18.409  0.00  0.00    -0.301 N 
ATOM      5  N   UNL     1      13.812   7.664  19.715  0.00  0.00    -0.310 N 
ATOM      8  C   UNL     1      12.023   8.238  17.976  0.00  0.00    +0.027 C 
ATOM      9  C   UNL     1      11.897   9.220  20.227  0.00  0.00    +0.054 C 
ATOM     10  C   UNL     1      11.112   8.431  19.182  0.00  0.00    +0.018 C 
ATOM     11  C   UNL     1      12.449   9.599  17.399  0.00  0.00    +0.113 C 
ATOM     12  C   UNL     1      12.272  10.602  19.657  0.00  0.00    +0.117 C 
ATOM     13  C   UNL     1      13.229   7.388  18.396  0.00  0.00    +0.130 C 
ATOM     14  C   UNL     1      13.153   8.477  20.643  0.00  0.00    +0.027 A 
ATOM     15  C   UNL     1      14.206  11.186  18.111  0.00  0.00    +0.216 C 
ATOM     16  C   UNL     1      13.647   8.622  21.884  0.00  0.00    +0.024 A 
ATOM     17  C   UNL     1      15.008   6.987  20.033  0.00  0.00    +0.273 A 
ATOM     20  C   UNL     1      15.536   7.196  21.418  0.00  0.00    +0.100 A 
ATOM     21  C   UNL     1      14.863   7.969  22.276  0.00  0.00    +0.030 A 
ENDROOT
BRANCH  20   6
ATOM      3  O   UNL     1      18.165   8.207  21.026  0.00  0.00    -0.252 OA
ATOM      6  N   UNL     1      16.699   6.568  21.761  0.00  0.00    -0.265 N 
ATOM      7  N   UNL     1      18.955   6.226  22.005  0.00  0.00    -0.269 N 
ATOM     25  C   UNL     1      17.973   7.110  21.545  0.00  0.00    +0.308 C 
ATOM     32  H   UNL     1      16.645   5.571  21.952  0.00  0.00    +0.157 HD
ATOM     33  H   UNL     1      18.627   5.355  22.415  0.00  0.00    +0.156 HD
BRANCH   7  26
ATOM     26  C   UNL     1      20.359   6.394  21.974  0.00  0.00    +0.035 A 
ATOM     27  C   UNL     1      21.052   6.252  20.773  0.00  0.00    +0.023 A 
ATOM     28  C   UNL     1      21.051   6.702  23.146  0.00  0.00    +0.023 A 
ATOM     29  C   UNL     1      22.437   6.417  20.742  0.00  0.00    +0.002 A 
ATOM     30  C   UNL     1      22.434   6.868  23.116  0.00  0.00    +0.002 A 
ATOM     31  C   UNL     1      23.128   6.725  21.914  0.00  0.00    +0.000 A 
ENDBRANCH   7  26
ENDBRANCH  20   6
BRANCH  15  18
ATOM     18  C   UNL     1      14.703  12.142  19.164  0.00  0.00    +0.102 C 
BRANCH  18  19
ATOM     19  C   UNL     1      15.991  11.655  19.853  0.00  0.00    -0.029 C 
ATOM     22  C   UNL     1      17.209  12.476  19.398  0.00  0.00    +0.011 C 
ATOM     23  C   UNL     1      16.244  10.164  19.568  0.00  0.00    +0.011 C 
ATOM     24  C   UNL     1      15.814  11.841  21.372  0.00  0.00    +0.011 C 
ENDBRANCH  18  19
ENDBRANCH  15  18
TORSDOF 4
ENDMDL
MODEL 6
REMARK VINA RESULT:      -6.2     12.425     15.859
REMARK  Name = 40586222
REMARK  7 active torsions:
REMARK  status: ('A' for Active; 'I' for Inactive)
REMARK    1  A    between atoms: N_6  and  C_20
REMARK    2  A    between atoms: N_7  and  C_26
REMARK    3  A    between atoms: C_15  and  C_18
REMARK    4  A    between atoms: C_18  and  C_19
REMARK    5  A    between atoms: C_19  and  C_22
REMARK    6  A    between atoms: C_19  and  C_23
REMARK    7  A    between atoms: C_19  and  C_24
REMARK                            x       y       z     vdW  Elec       q    Type
REMARK                         _______ _______ _______ _____ _____    ______ ____
ROOT
ATOM      1  O   UNL     1      11.848  10.312   6.470  0.00  0.00    -0.276 OA
ATOM      2  O   UNL     1       9.190   7.894   2.501  0.00  0.00    -0.266 OA
ATOM      4  N   UNL     1      10.754   8.415   7.246  0.00  0.00    -0.301 N 
ATOM      5  N   UNL     1       9.388   7.080   4.683  0.00  0.00    -0.310 N 
ATOM      8  C   UNL     1       8.322   8.244   6.698  0.00  0.00    +0.027 C 
ATOM      9  C   UNL     1       9.643   6.198   7.029  0.00  0.00    +0.054 C 
ATOM     10  C   UNL     1       8.293   6.850   7.312  0.00  0.00    +0.018 C 
ATOM     11  C   UNL     1       9.452   9.083   7.319  0.00  0.00    +0.113 C 
ATOM     12  C   UNL     1      10.764   7.017   7.701  0.00  0.00    +0.117 C 
ATOM     13  C   UNL     1       8.470   8.114   5.177  0.00  0.00    +0.130 C 
ATOM     14  C   UNL     1       9.902   6.100   5.537  0.00  0.00    +0.027 A 
ATOM     15  C   UNL     1      11.878   9.138   6.848  0.00  0.00    +0.216 C 
ATOM     16  C   UNL     1      10.645   5.095   5.043  0.00  0.00    +0.024 A 
ATOM     17  C   UNL     1       9.635   7.064   3.295  0.00  0.00    +0.273 A 
ATOM     20  C   UNL     1      10.487   5.942   2.789  0.00  0.00    +0.100 A 
ATOM     21  C   UNL     1      10.943   5.019   3.641  0.00  0.00    +0.030 A 
ENDROOT
BRANCH  20   6
ATOM      3  O   UNL     1       9.618   3.941   0.964  0.00  0.00    -0.252 OA
ATOM      6  N   UNL     1      10.761   5.898   1.452  0.00  0.00    -0.265 N 
ATOM      7  N   UNL     1      10.756   5.129  -0.709  0.00  0.00    -0.269 N 
ATOM     25  C   UNL     1      10.308   4.888   0.594  0.00  0.00    +0.308 C 
ATOM     32  H   UNL     1      11.522   6.484   1.120  0.00  0.00    +0.157 HD
ATOM     33  H   UNL     1      11.319   5.965  -0.851  0.00  0.00    +0.156 HD
BRANCH   7  26
ATOM     26  C   UNL     1      10.520   4.352  -1.868  0.00  0.00    +0.035 A 
ATOM     27  C   UNL     1      11.293   3.219  -2.117  0.00  0.00    +0.023 A 
ATOM     28  C   UNL     1       9.513   4.720  -2.761  0.00  0.00    +0.023 A 
ATOM     29  C   UNL     1      11.061   2.453  -3.259  0.00  0.00    +0.002 A 
ATOM     30  C   UNL     1       9.281   3.955  -3.903  0.00  0.00    +0.002 A 
ATOM     31  C   UNL     1      10.054   2.821  -4.153  0.00  0.00    +0.000 A 
ENDBRANCH   7  26
ENDBRANCH  20   6
BRANCH  15  18
ATOM     18  C   UNL     1      13.198   8.410   6.888  0.00  0.00    +0.102 C 
BRANCH  18  19
ATOM     19  C   UNL     1      13.932   8.430   5.535  0.00  0.00    -0.029 C 
ATOM     22  C   UNL     1      14.623   9.783   5.298  0.00  0.00    +0.011 C 
ATOM     23  C   UNL     1      12.966   8.139   4.374  0.00  0.00    +0.011 C 
ATOM     24  C   UNL     1      15.008   7.328   5.565  0.00  0.00    +0.011 C 
ENDBRANCH  18  19
ENDBRANCH  15  18
TORSDOF 4
ENDMDL
MODEL 7
REMARK VINA RESULT:      -6.2     12.022     14.226
REMARK  Name = 40586222
REMARK  7 active torsions:
REMARK  status: ('A' for Active; 'I' for Inactive)
REMARK    1  A    between atoms: N_6  and  C_20
REMARK    2  A    between atoms: N_7  and  C_26
REMARK    3  A    between atoms: C_15  and  C_18
REMARK    4  A    between atoms: C_18  and  C_19
REMARK    5  A    between atoms: C_19  and  C_22
REMARK    6  A    between atoms: C_19  and  C_23
REMARK    7  A    between atoms: C_19  and  C_24
REMARK                            x       y       z     vdW  Elec       q    Type
REMARK                         _______ _______ _______ _____ _____    ______ ____
ROOT
ATOM      1  O   UNL     1      11.191   4.220   3.235  0.00  0.00    -0.276 OA
ATOM      2  O   UNL     1      13.618   6.651   7.341  0.00  0.00    -0.266 OA
ATOM      4  N   UNL     1       9.793   5.807   4.196  0.00  0.00    -0.301 N 
ATOM      5  N   UNL     1      11.512   7.212   6.496  0.00  0.00    -0.310 N 
ATOM      8  C   UNL     1       9.489   5.653   6.671  0.00  0.00    +0.027 C 
ATOM      9  C   UNL     1       9.260   7.828   5.548  0.00  0.00    +0.054 C 
ATOM     10  C   UNL     1       8.671   6.939   6.640  0.00  0.00    +0.018 C 
ATOM     11  C   UNL     1       9.418   4.936   5.312  0.00  0.00    +0.113 C 
ATOM     12  C   UNL     1       9.135   7.123   4.183  0.00  0.00    +0.117 C 
ATOM     13  C   UNL     1      10.931   5.991   7.069  0.00  0.00    +0.130 C 
ATOM     14  C   UNL     1      10.717   8.149   5.829  0.00  0.00    +0.027 A 
ATOM     15  C   UNL     1      10.649   5.328   3.204  0.00  0.00    +0.216 C 
ATOM     16  C   UNL     1      11.247   9.312   5.416  0.00  0.00    +0.024 A 
ATOM     17  C   UNL     1      12.882   7.438   6.744  0.00  0.00    +0.273 A 
ATOM     20  C   UNL     1      13.438   8.735   6.245  0.00  0.00    +0.100 A 
ATOM     21  C   UNL     1      12.635   9.607   5.627  0.00  0.00    +0.030 A 
ENDROOT
BRANCH  20   6
ATOM      3  O   UNL     1      15.610   7.519   4.870  0.00  0.00    -0.252 OA
ATOM      6  N   UNL     1      14.763   8.986   6.453  0.00  0.00    -0.265 N 
ATOM      7  N   UNL     1      17.038   8.830   6.192  0.00  0.00    -0.269 N 
ATOM     25  C   UNL     1      15.798   8.358   5.748  0.00  0.00    +0.308 C 
ATOM     32  H   UNL     1      15.012   9.460   7.317  0.00  0.00    +0.157 HD
ATOM     33  H   UNL     1      17.021   9.531   6.929  0.00  0.00    +0.156 HD
BRANCH   7  26
ATOM     26  C   UNL     1      18.324   8.454   5.741  0.00  0.00    +0.035 A 
ATOM     27  C   UNL     1      18.515   8.083   4.410  0.00  0.00    +0.023 A 
ATOM     28  C   UNL     1      19.402   8.453   6.626  0.00  0.00    +0.023 A 
ATOM     29  C   UNL     1      19.784   7.711   3.964  0.00  0.00    +0.002 A 
ATOM     30  C   UNL     1      20.670   8.082   6.181  0.00  0.00    +0.002 A 
ATOM     31  C   UNL     1      20.862   7.711   4.850  0.00  0.00    +0.000 A 
ENDBRANCH   7  26
ENDBRANCH  20   6
BRANCH  15  18
ATOM     18  C   UNL     1      10.915   6.247   2.040  0.00  0.00    +0.102 C 
BRANCH  18  19
ATOM     19  C   UNL     1      12.353   6.797   2.029  0.00  0.00    -0.029 C 
ATOM     22  C   UNL     1      13.170   6.193   0.874  0.00  0.00    +0.011 C 
ATOM     23  C   UNL     1      13.066   6.515   3.362  0.00  0.00    +0.011 C 
ATOM     24  C   UNL     1      12.273   8.322   1.828  0.00  0.00    +0.011 C 
ENDBRANCH  18  19
ENDBRANCH  15  18
TORSDOF 4
ENDMDL
MODEL 8
REMARK VINA RESULT:      -6.2     28.010     30.641
REMARK  Name = 40586222
REMARK  7 active torsions:
REMARK  status: ('A' for Active; 'I' for Inactive)
REMARK    1  A    between atoms: N_6  and  C_20
REMARK    2  A    between atoms: N_7  and  C_26
REMARK    3  A    between atoms: C_15  and  C_18
REMARK    4  A    between atoms: C_18  and  C_19
REMARK    5  A    between atoms: C_19  and  C_22
REMARK    6  A    between atoms: C_19  and  C_23
REMARK    7  A    between atoms: C_19  and  C_24
REMARK                            x       y       z     vdW  Elec       q    Type
REMARK                         _______ _______ _______ _____ _____    ______ ____
ROOT
ATOM      1  O   UNL     1      -6.639 -14.054   8.474  0.00  0.00    -0.276 OA
ATOM      2  O   UNL     1      -8.559  -9.899  11.250  0.00  0.00    -0.266 OA
ATOM      4  N   UNL     1      -6.041 -12.046   7.471  0.00  0.00    -0.301 N 
ATOM      5  N   UNL     1      -7.160  -9.743   9.385  0.00  0.00    -0.310 N 
ATOM      8  C   UNL     1      -7.901 -10.436   7.035  0.00  0.00    +0.027 C 
ATOM      9  C   UNL     1      -5.619  -9.594   7.396  0.00  0.00    +0.054 C 
ATOM     10  C   UNL     1      -6.883  -9.406   6.561  0.00  0.00    +0.018 C 
ATOM     11  C   UNL     1      -7.353 -11.861   6.846  0.00  0.00    +0.113 C 
ATOM     12  C   UNL     1      -5.049 -11.006   7.159  0.00  0.00    +0.117 C 
ATOM     13  C   UNL     1      -8.258 -10.145   8.497  0.00  0.00    +0.130 C 
ATOM     14  C   UNL     1      -5.905  -9.397   8.874  0.00  0.00    +0.027 A 
ATOM     15  C   UNL     1      -5.792 -13.194   8.224  0.00  0.00    +0.216 C 
ATOM     16  C   UNL     1      -4.951  -8.920   9.691  0.00  0.00    +0.024 A 
ATOM     17  C   UNL     1      -7.465  -9.623  10.756  0.00  0.00    +0.273 A 
ATOM     20  C   UNL     1      -6.366  -9.112  11.635  0.00  0.00    +0.100 A 
ATOM     21  C   UNL     1      -5.189  -8.778  11.099  0.00  0.00    +0.030 A 
ENDROOT
BRANCH  20   6
ATOM      3  O   UNL     1      -5.504 -10.904  13.668  0.00  0.00    -0.252 OA
ATOM      6  N   UNL     1      -6.618  -8.994  12.972  0.00  0.00    -0.265 N 
ATOM      7  N   UNL     1      -6.591  -9.507  15.208  0.00  0.00    -0.269 N 
ATOM     25  C   UNL     1      -6.170  -9.907  13.935  0.00  0.00    +0.308 C 
ATOM     32  H   UNL     1      -7.363  -8.359  13.245  0.00  0.00    +0.157 HD
ATOM     33  H   UNL     1      -7.136  -8.650  15.259  0.00  0.00    +0.156 HD
BRANCH   7  26
ATOM     26  C   UNL     1      -6.349 -10.150  16.445  0.00  0.00    +0.035 A 
ATOM     27  C   UNL     1      -5.059 -10.182  16.974  0.00  0.00    +0.023 A 
ATOM     28  C   UNL     1      -7.402 -10.750  17.136  0.00  0.00    +0.023 A 
ATOM     29  C   UNL     1      -4.821 -10.816  18.193  0.00  0.00    +0.002 A 
ATOM     30  C   UNL     1      -7.164 -11.384  18.355  0.00  0.00    +0.002 A 
ATOM     31  C   UNL     1      -5.873 -11.417  18.884  0.00  0.00    +0.000 A 
ENDBRANCH   7  26
ENDBRANCH  20   6
BRANCH  15  18
ATOM     18  C   UNL     1      -4.391 -13.361   8.756  0.00  0.00    +0.102 C 
BRANCH  18  19
ATOM     19  C   UNL     1      -4.304 -13.163  10.281  0.00  0.00    -0.029 C 
ATOM     22  C   UNL     1      -3.737 -14.415  10.972  0.00  0.00    +0.011 C 
ATOM     23  C   UNL     1      -5.683 -12.831  10.877  0.00  0.00    +0.011 C 
ATOM     24  C   UNL     1      -3.355 -11.982  10.551  0.00  0.00    +0.011 C 
ENDBRANCH  18  19
ENDBRANCH  15  18
TORSDOF 4
ENDMDL
MODEL 9
REMARK VINA RESULT:      -6.2     28.699     31.878
REMARK  Name = 40586222
REMARK  7 active torsions:
REMARK  status: ('A' for Active; 'I' for Inactive)
REMARK    1  A    between atoms: N_6  and  C_20
REMARK    2  A    between atoms: N_7  and  C_26
REMARK    3  A    between atoms: C_15  and  C_18
REMARK    4  A    between atoms: C_18  and  C_19
REMARK    5  A    between atoms: C_19  and  C_22
REMARK    6  A    between atoms: C_19  and  C_23
REMARK    7  A    between atoms: C_19  and  C_24
REMARK                            x       y       z     vdW  Elec       q    Type
REMARK                         _______ _______ _______ _____ _____    ______ ____
ROOT
ATOM      1  O   UNL     1     -12.923  -7.374  10.594  0.00  0.00    -0.276 OA
ATOM      2  O   UNL     1     -10.687 -10.028  14.669  0.00  0.00    -0.266 OA
ATOM      4  N   UNL     1     -13.910  -6.772  12.609  0.00  0.00    -0.301 N 
ATOM      5  N   UNL     1     -12.309  -8.359  14.877  0.00  0.00    -0.310 N 
ATOM      8  C   UNL     1     -14.713  -8.651  14.046  0.00  0.00    +0.027 C 
ATOM      9  C   UNL     1     -14.030  -6.530  15.083  0.00  0.00    +0.054 C 
ATOM     10  C   UNL     1     -15.065  -7.650  15.140  0.00  0.00    +0.018 C 
ATOM     11  C   UNL     1     -14.744  -7.975  12.665  0.00  0.00    +0.113 C 
ATOM     12  C   UNL     1     -14.107  -5.823  13.715  0.00  0.00    +0.117 C 
ATOM     13  C   UNL     1     -13.341  -9.264  14.356  0.00  0.00    +0.130 C 
ATOM     14  C   UNL     1     -12.628  -7.067  15.306  0.00  0.00    +0.027 A 
ATOM     15  C   UNL     1     -13.074  -6.564  11.512  0.00  0.00    +0.216 C 
ATOM     16  C   UNL     1     -11.692  -6.298  15.887  0.00  0.00    +0.024 A 
ATOM     17  C   UNL     1     -11.012  -8.893  15.017  0.00  0.00    +0.273 A 
ATOM     20  C   UNL     1      -9.993  -7.994  15.646  0.00  0.00    +0.100 A 
ATOM     21  C   UNL     1     -10.348  -6.773  16.057  0.00  0.00    +0.030 A 
ENDROOT
BRANCH  20   6
ATOM      3  O   UNL     1      -9.013  -9.540  17.823  0.00  0.00    -0.252 OA
ATOM      6  N   UNL     1      -8.721  -8.468  15.788  0.00  0.00    -0.265 N 
ATOM      7  N   UNL     1      -6.936  -9.559  16.731  0.00  0.00    -0.269 N 
ATOM     25  C   UNL     1      -8.286  -9.227  16.882  0.00  0.00    +0.308 C 
ATOM     32  H   UNL     1      -8.005  -8.048  15.201  0.00  0.00    +0.157 HD
ATOM     33  H   UNL     1      -6.476  -9.224  15.888  0.00  0.00    +0.156 HD
BRANCH   7  26
ATOM     26  C   UNL     1      -6.122 -10.313  17.609  0.00  0.00    +0.035 A 
ATOM     27  C   UNL     1      -4.901 -10.821  17.166  0.00  0.00    +0.023 A 
ATOM     28  C   UNL     1      -6.541 -10.549  18.919  0.00  0.00    +0.023 A 
ATOM     29  C   UNL     1      -4.099 -11.564  18.031  0.00  0.00    +0.002 A 
ATOM     30  C   UNL     1      -5.740 -11.292  19.784  0.00  0.00    +0.002 A 
ATOM     31  C   UNL     1      -4.518 -11.800  19.341  0.00  0.00    +0.000 A 
ENDBRANCH   7  26
ENDBRANCH  20   6
BRANCH  15  18
ATOM     18  C   UNL     1     -12.316  -5.261  11.478  0.00  0.00    +0.102 C 
BRANCH  18  19
ATOM     19  C   UNL     1     -12.936  -4.235  10.511  0.00  0.00    -0.029 C 
ATOM     22  C   UNL     1     -13.964  -4.899   9.580  0.00  0.00    +0.011 C 
ATOM     23  C   UNL     1     -11.852  -3.543   9.666  0.00  0.00    +0.011 C 
ATOM     24  C   UNL     1     -13.656  -3.167  11.355  0.00  0.00    +0.011 C 
ENDBRANCH  18  19
ENDBRANCH  15  18
TORSDOF 4
ENDMDL
MODEL 10
REMARK VINA RESULT:      -6.1      3.889      8.545
REMARK  Name = 40586222
REMARK  7 active torsions:
REMARK  status: ('A' for Active; 'I' for Inactive)
REMARK    1  A    between atoms: N_6  and  C_20
REMARK    2  A    between atoms: N_7  and  C_26
REMARK    3  A    between atoms: C_15  and  C_18
REMARK    4  A    between atoms: C_18  and  C_19
REMARK    5  A    between atoms: C_19  and  C_22
REMARK    6  A    between atoms: C_19  and  C_23
REMARK    7  A    between atoms: C_19  and  C_24
REMARK                            x       y       z     vdW  Elec       q    Type
REMARK                         _______ _______ _______ _____ _____    ______ ____
ROOT
ATOM      1  O   UNL     1      14.619  10.672  16.729  0.00  0.00    -0.276 OA
ATOM      2  O   UNL     1      16.168   5.828  18.403  0.00  0.00    -0.266 OA
ATOM      4  N   UNL     1      13.866  10.266  18.889  0.00  0.00    -0.301 N 
ATOM      5  N   UNL     1      15.043   7.408  19.706  0.00  0.00    -0.310 N 
ATOM      8  C   UNL     1      12.629   8.124  19.240  0.00  0.00    +0.027 C 
ATOM      9  C   UNL     1      13.864   9.139  21.108  0.00  0.00    +0.054 C 
ATOM     10  C   UNL     1      12.574   8.414  20.735  0.00  0.00    +0.018 C 
ATOM     11  C   UNL     1      12.747   9.433  18.441  0.00  0.00    +0.113 C 
ATOM     12  C   UNL     1      13.946  10.474  20.343  0.00  0.00    +0.117 C 
ATOM     13  C   UNL     1      13.799   7.172  18.962  0.00  0.00    +0.130 C 
ATOM     14  C   UNL     1      15.081   8.289  20.791  0.00  0.00    +0.027 A 
ATOM     15  C   UNL     1      14.704  10.860  17.945  0.00  0.00    +0.216 C 
ATOM     16  C   UNL     1      16.198   8.403  21.530  0.00  0.00    +0.024 A 
ATOM     17  C   UNL     1      16.159   6.628  19.339  0.00  0.00    +0.273 A 
ATOM     20  C   UNL     1      17.390   6.804  20.173  0.00  0.00    +0.100 A 
ATOM     21  C   UNL     1      17.374   7.645  21.211  0.00  0.00    +0.030 A 
ENDROOT
BRANCH  20   6
ATOM      3  O   UNL     1      19.579   6.206  21.887  0.00  0.00    -0.252 OA
ATOM      6  N   UNL     1      18.496   6.076  19.841  0.00  0.00    -0.265 N 
ATOM      7  N   UNL     1      20.530   5.042  20.085  0.00  0.00    -0.269 N 
ATOM     25  C   UNL     1      19.551   5.809  20.724  0.00  0.00    +0.308 C 
ATOM     32  H   UNL     1      18.674   5.935  18.850  0.00  0.00    +0.157 HD
ATOM     33  H   UNL     1      20.352   4.792  19.115  0.00  0.00    +0.156 HD
BRANCH   7  26
ATOM     26  C   UNL     1      21.747   4.562  20.623  0.00  0.00    +0.035 A 
ATOM     27  C   UNL     1      21.797   3.304  21.221  0.00  0.00    +0.023 A 
ATOM     28  C   UNL     1      22.898   5.348  20.555  0.00  0.00    +0.023 A 
ATOM     29  C   UNL     1      22.997   2.831  21.752  0.00  0.00    +0.002 A 
ATOM     30  C   UNL     1      24.097   4.876  21.086  0.00  0.00    +0.002 A 
ATOM     31  C   UNL     1      24.148   3.617  21.685  0.00  0.00    +0.000 A 
ENDBRANCH   7  26
ENDBRANCH  20   6
BRANCH  15  18
ATOM     18  C   UNL     1      15.774  11.779  18.477  0.00  0.00    +0.102 C 
BRANCH  18  19
ATOM     19  C   UNL     1      15.381  13.265  18.393  0.00  0.00    -0.029 C 
ATOM     22  C   UNL     1      16.264  14.018  17.383  0.00  0.00    +0.011 C 
ATOM     23  C   UNL     1      15.485  13.945  19.769  0.00  0.00    +0.011 C 
ATOM     24  C   UNL     1      13.918  13.341  17.917  0.00  0.00    +0.011 C 
ENDBRANCH  18  19
ENDBRANCH  15  18
TORSDOF 4
ENDMDL
