MODEL 1
REMARK VINA RESULT:      -6.9      0.000      0.000
REMARK  Name = 51136661
REMARK  7 active torsions:
REMARK  status: ('A' for Active; 'I' for Inactive)
REMARK    1  A    between atoms: O_2  and  C_18
REMARK    2  A    between atoms: O_5  and  C_30
REMARK    3  A    between atoms: O_5  and  C_31
REMARK    4  A    between atoms: C_9  and  C_14
REMARK    5  A    between atoms: C_10  and  C_15
REMARK    6  A    between atoms: C_14  and  C_16
REMARK    7  A    between atoms: C_15  and  C_18
REMARK                            x       y       z     vdW  Elec       q    Type
REMARK                         _______ _______ _______ _____ _____    ______ ____
ROOT
ATOM      1  O   UNL     1      -7.781 -12.144  17.620  0.00  0.00    -0.252 OA
ATOM      3  O   UNL     1     -11.305  -9.192  17.104  0.00  0.00    -0.377 OA
ATOM      6  N   UNL     1      -6.442 -10.316  17.198  0.00  0.00    -0.285 N 
ATOM      7  N   UNL     1      -8.765 -10.313  16.630  0.00  0.00    -0.281 N 
ATOM      9  C   UNL     1      -4.684 -10.277  15.438  0.00  0.00    +0.016 C 
ATOM     10  C   UNL     1      -3.637 -10.606  16.534  0.00  0.00    +0.006 C 
ATOM     11  C   UNL     1      -4.272 -11.363  17.712  0.00  0.00    +0.023 C 
ATOM     12  C   UNL     1      -5.898  -9.557  16.062  0.00  0.00    +0.113 C 
ATOM     13  C   UNL     1      -5.477 -10.605  18.256  0.00  0.00    +0.109 C 
ATOM     17  C   UNL     1      -7.670 -10.994  17.175  0.00  0.00    +0.305 C 
ATOM     20  C   UNL     1      -9.983 -11.041  16.279  0.00  0.00    +0.137 C 
ATOM     21  C   UNL     1      -8.936  -8.854  16.661  0.00  0.00    +0.137 C 
ATOM     25  C   UNL     1     -11.126 -10.611  17.186  0.00  0.00    +0.179 C 
ATOM     26  C   UNL     1     -10.133  -8.498  17.541  0.00  0.00    +0.179 C 
ENDROOT
BRANCH   9  14
ATOM     14  C   UNL     1      -5.144 -11.500  14.634  0.00  0.00    +0.061 C 
BRANCH  14  16
ATOM      8  N   UNL     1      -3.520 -12.265  13.039  0.00  0.00    -0.287 NA
ATOM     16  C   UNL     1      -4.517 -11.475  13.261  0.00  0.00    +0.044 C 
ATOM     19  C   UNL     1      -5.066 -10.545  12.241  0.00  0.00    -0.001 A 
ATOM     22  C   UNL     1      -4.248 -10.262  11.140  0.00  0.00    -0.033 A 
ATOM     23  C   UNL     1      -2.889 -10.894  11.070  0.00  0.00    +0.059 C 
ATOM     24  C   UNL     1      -2.949 -12.285  11.688  0.00  0.00    +0.146 C 
ATOM     27  C   UNL     1      -6.326  -9.955  12.357  0.00  0.00    +0.013 A 
ATOM     28  C   UNL     1      -4.689  -9.364  10.164  0.00  0.00    +0.050 A 
ATOM     29  C   UNL     1      -6.765  -9.072  11.370  0.00  0.00    +0.046 A 
ATOM     30  C   UNL     1      -5.949  -8.774  10.278  0.00  0.00    +0.120 A 
BRANCH  30   5
ATOM      5  O   UNL     1      -6.380  -7.904   9.325  0.00  0.00    -0.495 OA
ATOM     31  C   UNL     1      -7.763  -7.956   8.976  0.00  0.00    +0.277 C 
ENDBRANCH  30   5
ENDBRANCH  14  16
ENDBRANCH   9  14
BRANCH  10  15
ATOM     15  C   UNL     1      -2.424 -11.364  15.996  0.00  0.00    +0.124 C 
BRANCH  15  18
ATOM      4  O   UNL     1      -1.464  -9.878  14.319  0.00  0.00    -0.251 OA
ATOM     18  C   UNL     1      -1.402 -10.430  15.407  0.00  0.00    +0.305 C 
BRANCH  18   2
ATOM      2  O   UNL     1      -0.367 -10.278  16.273  0.00  0.00    -0.481 OA
ATOM     32  H   UNL     1       0.211  -9.526  16.023  0.00  0.00    +0.295 HD
ENDBRANCH  18   2
ENDBRANCH  15  18
ENDBRANCH  10  15
TORSDOF 6
ENDMDL
MODEL 2
REMARK VINA RESULT:      -6.4     26.886     29.981
REMARK  Name = 51136661
REMARK  7 active torsions:
REMARK  status: ('A' for Active; 'I' for Inactive)
REMARK    1  A    between atoms: O_2  and  C_18
REMARK    2  A    between atoms: O_5  and  C_30
REMARK    3  A    between atoms: O_5  and  C_31
REMARK    4  A    between atoms: C_9  and  C_14
REMARK    5  A    between atoms: C_10  and  C_15
REMARK    6  A    between atoms: C_14  and  C_16
REMARK    7  A    between atoms: C_15  and  C_18
REMARK                            x       y       z     vdW  Elec       q    Type
REMARK                         _______ _______ _______ _____ _____    ______ ____
ROOT
ATOM      1  O   UNL     1      15.560   8.222  21.920  0.00  0.00    -0.252 OA
ATOM      3  O   UNL     1      19.749   6.446  21.089  0.00  0.00    -0.377 OA
ATOM      6  N   UNL     1      14.953   7.213  19.939  0.00  0.00    -0.285 N 
ATOM      7  N   UNL     1      17.249   7.594  20.487  0.00  0.00    -0.281 N 
ATOM      9  C   UNL     1      13.857   8.422  18.061  0.00  0.00    +0.016 C 
ATOM     10  C   UNL     1      12.490   7.900  18.575  0.00  0.00    +0.006 C 
ATOM     11  C   UNL     1      12.526   7.618  20.086  0.00  0.00    +0.023 C 
ATOM     12  C   UNL     1      14.988   7.464  18.491  0.00  0.00    +0.113 C 
ATOM     13  C   UNL     1      13.683   6.688  20.436  0.00  0.00    +0.109 C 
ATOM     17  C   UNL     1      15.901   7.708  20.847  0.00  0.00    +0.305 C 
ATOM     20  C   UNL     1      18.269   8.353  21.208  0.00  0.00    +0.137 C 
ATOM     21  C   UNL     1      17.795   6.525  19.640  0.00  0.00    +0.137 C 
ATOM     25  C   UNL     1      19.174   7.406  21.981  0.00  0.00    +0.179 C 
ATOM     26  C   UNL     1      18.737   5.650  20.464  0.00  0.00    +0.179 C 
ENDROOT
BRANCH   9  14
ATOM     14  C   UNL     1      14.177   9.857  18.500  0.00  0.00    +0.061 C 
BRANCH  14  16
ATOM      8  N   UNL     1      14.210  10.323  16.144  0.00  0.00    -0.287 NA
ATOM     16  C   UNL     1      14.645  10.663  17.312  0.00  0.00    +0.044 C 
ATOM     19  C   UNL     1      15.581  11.794  17.540  0.00  0.00    -0.001 A 
ATOM     22  C   UNL     1      16.287  12.262  16.425  0.00  0.00    -0.033 A 
ATOM     23  C   UNL     1      16.067  11.594  15.100  0.00  0.00    +0.059 C 
ATOM     24  C   UNL     1      14.617  11.143  14.998  0.00  0.00    +0.146 C 
ATOM     27  C   UNL     1      15.777  12.371  18.796  0.00  0.00    +0.013 A 
ATOM     28  C   UNL     1      17.213  13.298  16.579  0.00  0.00    +0.050 A 
ATOM     29  C   UNL     1      16.692  13.415  18.937  0.00  0.00    +0.046 A 
ATOM     30  C   UNL     1      17.410  13.876  17.833  0.00  0.00    +0.120 A 
BRANCH  30   5
ATOM      5  O   UNL     1      18.307  14.889  17.981  0.00  0.00    -0.495 OA
ATOM     31  C   UNL     1      19.189  15.140  16.887  0.00  0.00    +0.277 C 
ENDBRANCH  30   5
ENDBRANCH  14  16
ENDBRANCH   9  14
BRANCH  10  15
ATOM     15  C   UNL     1      11.325   8.825  18.227  0.00  0.00    +0.124 C 
BRANCH  15  18
ATOM      4  O   UNL     1      10.146   7.770  16.372  0.00  0.00    -0.251 OA
ATOM     18  C   UNL     1      10.882   8.647  16.800  0.00  0.00    +0.305 C 
BRANCH  18   2
ATOM      2  O   UNL     1      11.426   9.622  16.026  0.00  0.00    -0.481 OA
ATOM     32  H   UNL     1      10.990  10.489  16.171  0.00  0.00    +0.295 HD
ENDBRANCH  18   2
ENDBRANCH  15  18
ENDBRANCH  10  15
TORSDOF 6
ENDMDL
MODEL 3
REMARK VINA RESULT:      -6.3     24.083     26.816
REMARK  Name = 51136661
REMARK  7 active torsions:
REMARK  status: ('A' for Active; 'I' for Inactive)
REMARK    1  A    between atoms: O_2  and  C_18
REMARK    2  A    between atoms: O_5  and  C_30
REMARK    3  A    between atoms: O_5  and  C_31
REMARK    4  A    between atoms: C_9  and  C_14
REMARK    5  A    between atoms: C_10  and  C_15
REMARK    6  A    between atoms: C_14  and  C_16
REMARK    7  A    between atoms: C_15  and  C_18
REMARK                            x       y       z     vdW  Elec       q    Type
REMARK                         _______ _______ _______ _____ _____    ______ ____
ROOT
ATOM      1  O   UNL     1      10.603  10.100   4.924  0.00  0.00    -0.252 OA
ATOM      3  O   UNL     1      14.281  10.399   2.135  0.00  0.00    -0.377 OA
ATOM      6  N   UNL     1      11.775   8.413   5.968  0.00  0.00    -0.285 N 
ATOM      7  N   UNL     1      12.355   9.153   3.770  0.00  0.00    -0.281 N 
ATOM      9  C   UNL     1      10.851   6.136   6.360  0.00  0.00    +0.016 C 
ATOM     10  C   UNL     1      10.487   6.576   7.803  0.00  0.00    +0.006 C 
ATOM     11  C   UNL     1      10.266   8.095   7.890  0.00  0.00    +0.023 C 
ATOM     12  C   UNL     1      12.036   6.972   5.832  0.00  0.00    +0.113 C 
ATOM     13  C   UNL     1      11.465   8.850   7.327  0.00  0.00    +0.109 C 
ATOM     17  C   UNL     1      11.522   9.272   4.888  0.00  0.00    +0.305 C 
ATOM     20  C   UNL     1      11.975   9.771   2.501  0.00  0.00    +0.137 C 
ATOM     21  C   UNL     1      13.760   8.723   3.821  0.00  0.00    +0.137 C 
ATOM     25  C   UNL     1      12.939  10.898   2.161  0.00  0.00    +0.179 C 
ATOM     26  C   UNL     1      14.665   9.883   3.414  0.00  0.00    +0.179 C 
ENDROOT
BRANCH   9  14
ATOM     14  C   UNL     1       9.673   6.200   5.378  0.00  0.00    +0.061 C 
BRANCH  14  16
ATOM      8  N   UNL     1      10.713   4.560   3.965  0.00  0.00    -0.287 NA
ATOM     16  C   UNL     1      10.111   5.701   4.022  0.00  0.00    +0.044 C 
ATOM     19  C   UNL     1       9.837   6.542   2.829  0.00  0.00    -0.001 A 
ATOM     22  C   UNL     1      10.575   6.257   1.673  0.00  0.00    -0.033 A 
ATOM     23  C   UNL     1      11.586   5.150   1.719  0.00  0.00    +0.059 C 
ATOM     24  C   UNL     1      11.084   4.048   2.642  0.00  0.00    +0.146 C 
ATOM     27  C   UNL     1       8.905   7.582   2.835  0.00  0.00    +0.013 A 
ATOM     28  C   UNL     1      10.393   7.037   0.528  0.00  0.00    +0.050 A 
ATOM     29  C   UNL     1       8.719   8.345   1.682  0.00  0.00    +0.046 A 
ATOM     30  C   UNL     1       9.462   8.076   0.532  0.00  0.00    +0.120 A 
BRANCH  30   5
ATOM      5  O   UNL     1       9.282   8.831  -0.585  0.00  0.00    -0.495 OA
ATOM     31  C   UNL     1       9.081  10.232  -0.398  0.00  0.00    +0.277 C 
ENDBRANCH  30   5
ENDBRANCH  14  16
ENDBRANCH   9  14
BRANCH  10  15
ATOM     15  C   UNL     1       9.288   5.822   8.376  0.00  0.00    +0.124 C 
BRANCH  15  18
ATOM      4  O   UNL     1      10.152   4.748  10.386  0.00  0.00    -0.251 OA
ATOM     18  C   UNL     1       9.719   4.673   9.246  0.00  0.00    +0.305 C 
BRANCH  18   2
ATOM      2  O   UNL     1       9.557   3.504   8.575  0.00  0.00    -0.481 OA
ATOM     32  H   UNL     1       8.715   3.060   8.811  0.00  0.00    +0.295 HD
ENDBRANCH  18   2
ENDBRANCH  15  18
ENDBRANCH  10  15
TORSDOF 6
ENDMDL
MODEL 4
REMARK VINA RESULT:      -6.2     19.714     23.602
REMARK  Name = 51136661
REMARK  7 active torsions:
REMARK  status: ('A' for Active; 'I' for Inactive)
REMARK    1  A    between atoms: O_2  and  C_18
REMARK    2  A    between atoms: O_5  and  C_30
REMARK    3  A    between atoms: O_5  and  C_31
REMARK    4  A    between atoms: C_9  and  C_14
REMARK    5  A    between atoms: C_10  and  C_15
REMARK    6  A    between atoms: C_14  and  C_16
REMARK    7  A    between atoms: C_15  and  C_18
REMARK                            x       y       z     vdW  Elec       q    Type
REMARK                         _______ _______ _______ _____ _____    ______ ____
ROOT
ATOM      1  O   UNL     1      -9.688   9.509  18.987  0.00  0.00    -0.252 OA
ATOM      3  O   UNL     1     -10.537  12.304  15.401  0.00  0.00    -0.377 OA
ATOM      6  N   UNL     1     -11.825   8.724  18.632  0.00  0.00    -0.285 N 
ATOM      7  N   UNL     1     -11.102  10.814  17.723  0.00  0.00    -0.281 N 
ATOM      9  C   UNL     1     -13.565   8.623  20.407  0.00  0.00    +0.016 C 
ATOM     10  C   UNL     1     -13.209   7.128  20.615  0.00  0.00    +0.006 C 
ATOM     11  C   UNL     1     -11.755   6.833  20.210  0.00  0.00    +0.023 C 
ATOM     12  C   UNL     1     -13.218   9.057  18.967  0.00  0.00    +0.113 C 
ATOM     13  C   UNL     1     -11.481   7.313  18.789  0.00  0.00    +0.109 C 
ATOM     17  C   UNL     1     -10.804   9.674  18.478  0.00  0.00    +0.305 C 
ATOM     20  C   UNL     1     -10.223  11.981  17.776  0.00  0.00    +0.137 C 
ATOM     21  C   UNL     1     -12.064  10.848  16.613  0.00  0.00    +0.137 C 
ATOM     25  C   UNL     1      -9.547  12.186  16.428  0.00  0.00    +0.179 C 
ATOM     26  C   UNL     1     -11.325  11.114  15.303  0.00  0.00    +0.179 C 
ENDROOT
BRANCH   9  14
ATOM     14  C   UNL     1     -12.905   9.564  21.423  0.00  0.00    +0.061 C 
BRANCH  14  16
ATOM      8  N   UNL     1     -15.198  10.078  21.920  0.00  0.00    -0.287 NA
ATOM     16  C   UNL     1     -13.964  10.221  22.275  0.00  0.00    +0.044 C 
ATOM     19  C   UNL     1     -13.541  11.001  23.466  0.00  0.00    -0.001 A 
ATOM     22  C   UNL     1     -14.476  11.899  23.997  0.00  0.00    -0.033 A 
ATOM     23  C   UNL     1     -15.814  12.022  23.331  0.00  0.00    +0.059 C 
ATOM     24  C   UNL     1     -16.230  10.665  22.780  0.00  0.00    +0.146 C 
ATOM     27  C   UNL     1     -12.274  10.876  24.039  0.00  0.00    +0.013 A 
ATOM     28  C   UNL     1     -14.126  12.691  25.093  0.00  0.00    +0.050 A 
ATOM     29  C   UNL     1     -11.940  11.660  25.144  0.00  0.00    +0.046 A 
ATOM     30  C   UNL     1     -12.861  12.568  25.668  0.00  0.00    +0.120 A 
BRANCH  30   5
ATOM      5  O   UNL     1     -12.523  13.335  26.740  0.00  0.00    -0.495 OA
ATOM     31  C   UNL     1     -11.913  12.673  27.847  0.00  0.00    +0.277 C 
ENDBRANCH  30   5
ENDBRANCH  14  16
ENDBRANCH   9  14
BRANCH  10  15
ATOM     15  C   UNL     1     -13.483   6.637  22.036  0.00  0.00    +0.124 C 
BRANCH  15  18
ATOM      4  O   UNL     1     -14.790   4.619  21.635  0.00  0.00    -0.251 OA
ATOM     18  C   UNL     1     -13.785   5.164  22.066  0.00  0.00    +0.305 C 
BRANCH  18   2
ATOM      2  O   UNL     1     -12.759   4.498  22.656  0.00  0.00    -0.481 OA
ATOM     32  H   UNL     1     -12.456   3.739  22.114  0.00  0.00    +0.295 HD
ENDBRANCH  18   2
ENDBRANCH  15  18
ENDBRANCH  10  15
TORSDOF 6
ENDMDL
MODEL 5
REMARK VINA RESULT:      -6.2      2.542      5.697
REMARK  Name = 51136661
REMARK  7 active torsions:
REMARK  status: ('A' for Active; 'I' for Inactive)
REMARK    1  A    between atoms: O_2  and  C_18
REMARK    2  A    between atoms: O_5  and  C_30
REMARK    3  A    between atoms: O_5  and  C_31
REMARK    4  A    between atoms: C_9  and  C_14
REMARK    5  A    between atoms: C_10  and  C_15
REMARK    6  A    between atoms: C_14  and  C_16
REMARK    7  A    between atoms: C_15  and  C_18
REMARK                            x       y       z     vdW  Elec       q    Type
REMARK                         _______ _______ _______ _____ _____    ______ ____
ROOT
ATOM      1  O   UNL     1      -7.503 -12.330  13.835  0.00  0.00    -0.252 OA
ATOM      3  O   UNL     1      -6.093 -10.024  10.081  0.00  0.00    -0.377 OA
ATOM      6  N   UNL     1      -7.045 -10.377  14.969  0.00  0.00    -0.285 N 
ATOM      7  N   UNL     1      -6.147 -10.789  12.792  0.00  0.00    -0.281 N 
ATOM      9  C   UNL     1      -5.573 -10.262  16.971  0.00  0.00    +0.016 C 
ATOM     10  C   UNL     1      -6.843 -10.306  17.859  0.00  0.00    +0.006 C 
ATOM     11  C   UNL     1      -8.005 -11.018  17.146  0.00  0.00    +0.023 C 
ATOM     12  C   UNL     1      -5.912  -9.671  15.585  0.00  0.00    +0.113 C 
ATOM     13  C   UNL     1      -8.262 -10.398  15.777  0.00  0.00    +0.109 C 
ATOM     17  C   UNL     1      -6.932 -11.232  13.863  0.00  0.00    +0.305 C 
ATOM     20  C   UNL     1      -5.721 -11.729  11.755  0.00  0.00    +0.137 C 
ATOM     21  C   UNL     1      -5.961  -9.379  12.424  0.00  0.00    +0.137 C 
ATOM     25  C   UNL     1      -6.386 -11.382  10.432  0.00  0.00    +0.179 C 
ATOM     26  C   UNL     1      -6.602  -9.116  11.063  0.00  0.00    +0.179 C 
ENDROOT
BRANCH   9  14
ATOM     14  C   UNL     1      -4.877 -11.621  16.816  0.00  0.00    +0.061 C 
BRANCH  14  16
ATOM      8  N   UNL     1      -2.779 -10.537  16.381  0.00  0.00    -0.287 NA
ATOM     16  C   UNL     1      -3.608 -11.458  16.015  0.00  0.00    +0.044 C 
ATOM     19  C   UNL     1      -3.377 -12.351  14.851  0.00  0.00    -0.001 A 
ATOM     22  C   UNL     1      -2.418 -11.937  13.919  0.00  0.00    -0.033 A 
ATOM     23  C   UNL     1      -1.708 -10.635  14.145  0.00  0.00    +0.059 C 
ATOM     24  C   UNL     1      -1.519 -10.418  15.640  0.00  0.00    +0.146 C 
ATOM     27  C   UNL     1      -4.079 -13.543  14.663  0.00  0.00    +0.013 A 
ATOM     28  C   UNL     1      -2.182 -12.713  12.780  0.00  0.00    +0.050 A 
ATOM     29  C   UNL     1      -3.826 -14.319  13.532  0.00  0.00    +0.046 A 
ATOM     30  C   UNL     1      -2.882 -13.904  12.591  0.00  0.00    +0.120 A 
BRANCH  30   5
ATOM      5  O   UNL     1      -2.647 -14.662  11.485  0.00  0.00    -0.495 OA
ATOM     31  C   UNL     1      -1.925 -15.879  11.673  0.00  0.00    +0.277 C 
ENDBRANCH  30   5
ENDBRANCH  14  16
ENDBRANCH   9  14
BRANCH  10  15
ATOM     15  C   UNL     1      -6.594 -10.924  19.233  0.00  0.00    +0.124 C 
BRANCH  15  18
ATOM      4  O   UNL     1      -8.045 -12.774  19.877  0.00  0.00    -0.251 OA
ATOM     18  C   UNL     1      -7.834 -11.574  19.783  0.00  0.00    +0.305 C 
BRANCH  18   2
ATOM      2  O   UNL     1      -8.717 -10.619  20.174  0.00  0.00    -0.481 OA
ATOM     32  H   UNL     1      -8.265  -9.847  20.577  0.00  0.00    +0.295 HD
ENDBRANCH  18   2
ENDBRANCH  15  18
ENDBRANCH  10  15
TORSDOF 6
ENDMDL
MODEL 6
REMARK VINA RESULT:      -6.2     23.617     27.133
REMARK  Name = 51136661
REMARK  7 active torsions:
REMARK  status: ('A' for Active; 'I' for Inactive)
REMARK    1  A    between atoms: O_2  and  C_18
REMARK    2  A    between atoms: O_5  and  C_30
REMARK    3  A    between atoms: O_5  and  C_31
REMARK    4  A    between atoms: C_9  and  C_14
REMARK    5  A    between atoms: C_10  and  C_15
REMARK    6  A    between atoms: C_14  and  C_16
REMARK    7  A    between atoms: C_15  and  C_18
REMARK                            x       y       z     vdW  Elec       q    Type
REMARK                         _______ _______ _______ _____ _____    ______ ____
ROOT
ATOM      1  O   UNL     1      10.677   4.801   0.223  0.00  0.00    -0.252 OA
ATOM      3  O   UNL     1      15.005   3.967   1.624  0.00  0.00    -0.377 OA
ATOM      6  N   UNL     1      11.164   7.008   0.670  0.00  0.00    -0.285 N 
ATOM      7  N   UNL     1      12.491   5.236   1.572  0.00  0.00    -0.281 N 
ATOM      9  C   UNL     1       9.771   8.453   2.140  0.00  0.00    +0.016 C 
ATOM     10  C   UNL     1       9.083   9.016   0.868  0.00  0.00    +0.006 C 
ATOM     11  C   UNL     1       9.123   8.004  -0.288  0.00  0.00    +0.023 C 
ATOM     12  C   UNL     1      11.190   7.950   1.799  0.00  0.00    +0.113 C 
ATOM     13  C   UNL     1      10.550   7.533  -0.548  0.00  0.00    +0.109 C 
ATOM     17  C   UNL     1      11.400   5.631   0.788  0.00  0.00    +0.305 C 
ATOM     20  C   UNL     1      12.621   3.846   2.004  0.00  0.00    +0.137 C 
ATOM     21  C   UNL     1      13.716   6.028   1.750  0.00  0.00    +0.137 C 
ATOM     25  C   UNL     1      13.829   3.203   1.338  0.00  0.00    +0.179 C 
ATOM     26  C   UNL     1      14.895   5.298   1.110  0.00  0.00    +0.179 C 
ENDROOT
BRANCH   9  14
ATOM     14  C   UNL     1       8.968   7.351   2.842  0.00  0.00    +0.061 C 
BRANCH  14  16
ATOM      8  N   UNL     1       8.212   8.899   4.516  0.00  0.00    -0.287 NA
ATOM     16  C   UNL     1       8.722   7.735   4.282  0.00  0.00    +0.044 C 
ATOM     19  C   UNL     1       9.083   6.769   5.351  0.00  0.00    -0.001 A 
ATOM     22  C   UNL     1       9.211   7.283   6.648  0.00  0.00    -0.033 A 
ATOM     23  C   UNL     1       8.994   8.750   6.866  0.00  0.00    +0.059 C 
ATOM     24  C   UNL     1       7.918   9.248   5.910  0.00  0.00    +0.146 C 
ATOM     27  C   UNL     1       9.304   5.414   5.101  0.00  0.00    +0.013 A 
ATOM     28  C   UNL     1       9.587   6.433   7.692  0.00  0.00    +0.050 A 
ATOM     29  C   UNL     1       9.663   4.571   6.153  0.00  0.00    +0.046 A 
ATOM     30  C   UNL     1       9.808   5.078   7.445  0.00  0.00    +0.120 A 
BRANCH  30   5
ATOM      5  O   UNL     1      10.168   4.251   8.464  0.00  0.00    -0.495 OA
ATOM     31  C   UNL     1       9.418   4.347   9.674  0.00  0.00    +0.277 C 
ENDBRANCH  30   5
ENDBRANCH  14  16
ENDBRANCH   9  14
BRANCH  10  15
ATOM     15  C   UNL     1       7.653   9.491   1.120  0.00  0.00    +0.124 C 
BRANCH  15  18
ATOM      4  O   UNL     1       8.336  11.810   1.431  0.00  0.00    -0.251 OA
ATOM     18  C   UNL     1       7.624  10.864   1.733  0.00  0.00    +0.305 C 
BRANCH  18   2
ATOM      2  O   UNL     1       6.671  10.914   2.699  0.00  0.00    -0.481 OA
ATOM     32  H   UNL     1       6.513  11.832   3.009  0.00  0.00    +0.295 HD
ENDBRANCH  18   2
ENDBRANCH  15  18
ENDBRANCH  10  15
TORSDOF 6
ENDMDL
MODEL 7
REMARK VINA RESULT:      -6.1     24.040     26.677
REMARK  Name = 51136661
REMARK  7 active torsions:
REMARK  status: ('A' for Active; 'I' for Inactive)
REMARK    1  A    between atoms: O_2  and  C_18
REMARK    2  A    between atoms: O_5  and  C_30
REMARK    3  A    between atoms: O_5  and  C_31
REMARK    4  A    between atoms: C_9  and  C_14
REMARK    5  A    between atoms: C_10  and  C_15
REMARK    6  A    between atoms: C_14  and  C_16
REMARK    7  A    between atoms: C_15  and  C_18
REMARK                            x       y       z     vdW  Elec       q    Type
REMARK                         _______ _______ _______ _____ _____    ______ ____
ROOT
ATOM      1  O   UNL     1      11.359  12.576   7.224  0.00  0.00    -0.252 OA
ATOM      3  O   UNL     1      10.052  11.867  11.604  0.00  0.00    -0.377 OA
ATOM      6  N   UNL     1       9.385  11.525   6.669  0.00  0.00    -0.285 N 
ATOM      7  N   UNL     1      10.330  11.319   8.855  0.00  0.00    -0.281 N 
ATOM      9  C   UNL     1       9.251   9.574   5.132  0.00  0.00    +0.016 C 
ATOM     10  C   UNL     1       8.881  10.552   3.986  0.00  0.00    +0.006 C 
ATOM     11  C   UNL     1       9.442  11.960   4.244  0.00  0.00    +0.023 C 
ATOM     12  C   UNL     1       8.840  10.171   6.494  0.00  0.00    +0.113 C 
ATOM     13  C   UNL     1       9.017  12.470   5.616  0.00  0.00    +0.109 C 
ATOM     17  C   UNL     1      10.416  11.850   7.563  0.00  0.00    +0.305 C 
ATOM     20  C   UNL     1      11.496  11.340   9.737  0.00  0.00    +0.137 C 
ATOM     21  C   UNL     1       9.070  11.014   9.547  0.00  0.00    +0.137 C 
ATOM     25  C   UNL     1      11.241  12.270  10.914  0.00  0.00    +0.179 C 
ATOM     26  C   UNL     1       8.908  11.943  10.748  0.00  0.00    +0.179 C 
ENDROOT
BRANCH   9  14
ATOM     14  C   UNL     1      10.731   9.172   5.149  0.00  0.00    +0.061 C 
BRANCH  14  16
ATOM      8  N   UNL     1      11.261   7.293   3.750  0.00  0.00    -0.287 NA
ATOM     16  C   UNL     1      10.861   7.686   4.914  0.00  0.00    +0.044 C 
ATOM     19  C   UNL     1      10.519   6.755   6.019  0.00  0.00    -0.001 A 
ATOM     22  C   UNL     1      10.275   5.421   5.668  0.00  0.00    -0.033 A 
ATOM     23  C   UNL     1      10.360   5.030   4.222  0.00  0.00    +0.059 C 
ATOM     24  C   UNL     1      11.445   5.853   3.541  0.00  0.00    +0.146 C 
ATOM     27  C   UNL     1      10.424   7.165   7.350  0.00  0.00    +0.013 A 
ATOM     28  C   UNL     1       9.910   4.503   6.656  0.00  0.00    +0.050 A 
ATOM     29  C   UNL     1      10.074   6.238   8.332  0.00  0.00    +0.046 A 
ATOM     30  C   UNL     1       9.814   4.911   7.986  0.00  0.00    +0.120 A 
BRANCH  30   5
ATOM      5  O   UNL     1       9.464   4.014   8.948  0.00  0.00    -0.495 OA
ATOM     31  C   UNL     1       8.997   4.542  10.189  0.00  0.00    +0.277 C 
ENDBRANCH  30   5
ENDBRANCH  14  16
ENDBRANCH   9  14
BRANCH  10  15
ATOM     15  C   UNL     1       9.302  10.047   2.607  0.00  0.00    +0.124 C 
BRANCH  15  18
ATOM      4  O   UNL     1       7.178   9.323   1.654  0.00  0.00    -0.251 OA
ATOM     18  C   UNL     1       8.306   9.068   2.046  0.00  0.00    +0.305 C 
BRANCH  18   2
ATOM      2  O   UNL     1       8.847   7.822   2.034  0.00  0.00    -0.481 OA
ATOM     32  H   UNL     1       9.020   7.490   2.941  0.00  0.00    +0.295 HD
ENDBRANCH  18   2
ENDBRANCH  15  18
ENDBRANCH  10  15
TORSDOF 6
ENDMDL
MODEL 8
REMARK VINA RESULT:      -6.0      2.154      6.154
REMARK  Name = 51136661
REMARK  7 active torsions:
REMARK  status: ('A' for Active; 'I' for Inactive)
REMARK    1  A    between atoms: O_2  and  C_18
REMARK    2  A    between atoms: O_5  and  C_30
REMARK    3  A    between atoms: O_5  and  C_31
REMARK    4  A    between atoms: C_9  and  C_14
REMARK    5  A    between atoms: C_10  and  C_15
REMARK    6  A    between atoms: C_14  and  C_16
REMARK    7  A    between atoms: C_15  and  C_18
REMARK                            x       y       z     vdW  Elec       q    Type
REMARK                         _______ _______ _______ _____ _____    ______ ____
ROOT
ATOM      1  O   UNL     1      -2.805 -11.017  16.741  0.00  0.00    -0.252 OA
ATOM      3  O   UNL     1      -1.948 -13.672  13.052  0.00  0.00    -0.377 OA
ATOM      6  N   UNL     1      -4.638 -12.379  17.053  0.00  0.00    -0.285 N 
ATOM      7  N   UNL     1      -3.500 -12.289  14.952  0.00  0.00    -0.281 N 
ATOM      9  C   UNL     1      -6.961 -11.522  17.299  0.00  0.00    +0.016 C 
ATOM     10  C   UNL     1      -6.798 -11.638  18.837  0.00  0.00    +0.006 C 
ATOM     11  C   UNL     1      -5.324 -11.520  19.259  0.00  0.00    +0.023 C 
ATOM     12  C   UNL     1      -6.026 -12.523  16.588  0.00  0.00    +0.113 C 
ATOM     13  C   UNL     1      -4.461 -12.519  18.496  0.00  0.00    +0.109 C 
ATOM     17  C   UNL     1      -3.600 -11.844  16.276  0.00  0.00    +0.305 C 
ATOM     20  C   UNL     1      -2.666 -11.565  13.995  0.00  0.00    +0.137 C 
ATOM     21  C   UNL     1      -3.911 -13.621  14.489  0.00  0.00    +0.137 C 
ATOM     25  C   UNL     1      -1.482 -12.425  13.580  0.00  0.00    +0.179 C 
ATOM     26  C   UNL     1      -2.683 -14.407  14.036  0.00  0.00    +0.179 C 
ENDROOT
BRANCH   9  14
ATOM     14  C   UNL     1      -6.736 -10.105  16.757  0.00  0.00    +0.061 C 
BRANCH  14  16
ATOM      8  N   UNL     1      -8.952  -9.453  16.100  0.00  0.00    -0.287 NA
ATOM     16  C   UNL     1      -7.770  -9.790  15.703  0.00  0.00    +0.044 C 
ATOM     19  C   UNL     1      -7.385  -9.890  14.272  0.00  0.00    -0.001 A 
ATOM     22  C   UNL     1      -8.429  -9.976  13.342  0.00  0.00    -0.033 A 
ATOM     23  C   UNL     1      -9.842  -9.976  13.844  0.00  0.00    +0.059 C 
ATOM     24  C   UNL     1      -9.939  -9.089  15.077  0.00  0.00    +0.146 C 
ATOM     27  C   UNL     1      -6.055  -9.913  13.848  0.00  0.00    +0.013 A 
ATOM     28  C   UNL     1      -8.133 -10.112  11.983  0.00  0.00    +0.050 A 
ATOM     29  C   UNL     1      -5.770 -10.033  12.487  0.00  0.00    +0.046 A 
ATOM     30  C   UNL     1      -6.805 -10.136  11.557  0.00  0.00    +0.120 A 
BRANCH  30   5
ATOM      5  O   UNL     1      -6.518 -10.262  10.233  0.00  0.00    -0.495 OA
ATOM     31  C   UNL     1      -5.140 -10.354   9.872  0.00  0.00    +0.277 C 
ENDBRANCH  30   5
ENDBRANCH  14  16
ENDBRANCH   9  14
BRANCH  10  15
ATOM     15  C   UNL     1      -7.662 -10.641  19.609  0.00  0.00    +0.124 C 
BRANCH  15  18
ATOM      4  O   UNL     1      -9.676 -12.005  19.773  0.00  0.00    -0.251 OA
ATOM     18  C   UNL     1      -9.127 -10.955  19.474  0.00  0.00    +0.305 C 
BRANCH  18   2
ATOM      2  O   UNL     1      -9.779  -9.880  18.960  0.00  0.00    -0.481 OA
ATOM     32  H   UNL     1     -10.645  -9.735  19.398  0.00  0.00    +0.295 HD
ENDBRANCH  18   2
ENDBRANCH  15  18
ENDBRANCH  10  15
TORSDOF 6
ENDMDL
MODEL 9
REMARK VINA RESULT:      -6.0     24.992     26.889
REMARK  Name = 51136661
REMARK  7 active torsions:
REMARK  status: ('A' for Active; 'I' for Inactive)
REMARK    1  A    between atoms: O_2  and  C_18
REMARK    2  A    between atoms: O_5  and  C_30
REMARK    3  A    between atoms: O_5  and  C_31
REMARK    4  A    between atoms: C_9  and  C_14
REMARK    5  A    between atoms: C_10  and  C_15
REMARK    6  A    between atoms: C_14  and  C_16
REMARK    7  A    between atoms: C_15  and  C_18
REMARK                            x       y       z     vdW  Elec       q    Type
REMARK                         _______ _______ _______ _____ _____    ______ ____
ROOT
ATOM      1  O   UNL     1      11.085   9.729   5.562  0.00  0.00    -0.252 OA
ATOM      3  O   UNL     1      12.677   5.948   7.697  0.00  0.00    -0.377 OA
ATOM      6  N   UNL     1       9.220   8.453   5.111  0.00  0.00    -0.285 N 
ATOM      7  N   UNL     1      11.290   7.444   5.756  0.00  0.00    -0.281 N 
ATOM      9  C   UNL     1       8.289   8.138   2.825  0.00  0.00    +0.016 C 
ATOM     10  C   UNL     1       7.265   9.261   3.130  0.00  0.00    +0.006 C 
ATOM     11  C   UNL     1       7.803  10.243   4.184  0.00  0.00    +0.023 C 
ATOM     12  C   UNL     1       8.743   7.460   4.136  0.00  0.00    +0.113 C 
ATOM     13  C   UNL     1       8.255   9.500   5.437  0.00  0.00    +0.109 C 
ATOM     17  C   UNL     1      10.564   8.609   5.480  0.00  0.00    +0.305 C 
ATOM     20  C   UNL     1      12.749   7.488   5.836  0.00  0.00    +0.137 C 
ATOM     21  C   UNL     1      10.705   6.208   6.295  0.00  0.00    +0.137 C 
ATOM     25  C   UNL     1      13.202   7.207   7.261  0.00  0.00    +0.179 C 
ATOM     26  C   UNL     1      11.246   5.957   7.701  0.00  0.00    +0.179 C 
ENDROOT
BRANCH   9  14
ATOM     14  C   UNL     1       9.507   8.611   2.020  0.00  0.00    +0.061 C 
BRANCH  14  16
ATOM      8  N   UNL     1       9.183   7.849  -0.235  0.00  0.00    -0.287 NA
ATOM     16  C   UNL     1       9.781   7.646   0.892  0.00  0.00    +0.044 C 
ATOM     19  C   UNL     1      10.712   6.513   1.131  0.00  0.00    -0.001 A 
ATOM     22  C   UNL     1      10.647   5.443   0.229  0.00  0.00    -0.033 A 
ATOM     23  C   UNL     1       9.652   5.503  -0.891  0.00  0.00    +0.059 C 
ATOM     24  C   UNL     1       9.496   6.947  -1.348  0.00  0.00    +0.146 C 
ATOM     27  C   UNL     1      11.605   6.483   2.203  0.00  0.00    +0.013 A 
ATOM     28  C   UNL     1      11.469   4.329   0.421  0.00  0.00    +0.050 A 
ATOM     29  C   UNL     1      12.432   5.373   2.377  0.00  0.00    +0.046 A 
ATOM     30  C   UNL     1      12.363   4.297   1.492  0.00  0.00    +0.120 A 
BRANCH  30   5
ATOM      5  O   UNL     1      13.167   3.214   1.674  0.00  0.00    -0.495 OA
ATOM     31  C   UNL     1      14.575   3.445   1.688  0.00  0.00    +0.277 C 
ENDBRANCH  30   5
ENDBRANCH  14  16
ENDBRANCH   9  14
BRANCH  10  15
ATOM     15  C   UNL     1       6.805  10.010   1.881  0.00  0.00    +0.124 C 
BRANCH  15  18
ATOM      4  O   UNL     1       4.911   9.398   0.473  0.00  0.00    -0.251 OA
ATOM     18  C   UNL     1       5.363   9.724   1.561  0.00  0.00    +0.305 C 
BRANCH  18   2
ATOM      2  O   UNL     1       4.607   9.880   2.677  0.00  0.00    -0.481 OA
ATOM     32  H   UNL     1       4.897  10.652   3.210  0.00  0.00    +0.295 HD
ENDBRANCH  18   2
ENDBRANCH  15  18
ENDBRANCH  10  15
TORSDOF 6
ENDMDL
MODEL 10
REMARK VINA RESULT:      -6.0      2.694      7.107
REMARK  Name = 51136661
REMARK  7 active torsions:
REMARK  status: ('A' for Active; 'I' for Inactive)
REMARK    1  A    between atoms: O_2  and  C_18
REMARK    2  A    between atoms: O_5  and  C_30
REMARK    3  A    between atoms: O_5  and  C_31
REMARK    4  A    between atoms: C_9  and  C_14
REMARK    5  A    between atoms: C_10  and  C_15
REMARK    6  A    between atoms: C_14  and  C_16
REMARK    7  A    between atoms: C_15  and  C_18
REMARK                            x       y       z     vdW  Elec       q    Type
REMARK                         _______ _______ _______ _____ _____    ______ ____
ROOT
ATOM      1  O   UNL     1      -3.999 -10.602  13.446  0.00  0.00    -0.252 OA
ATOM      3  O   UNL     1      -3.347 -14.522  11.079  0.00  0.00    -0.377 OA
ATOM      6  N   UNL     1      -4.114 -11.968  15.298  0.00  0.00    -0.285 N 
ATOM      7  N   UNL     1      -4.383 -12.845  13.090  0.00  0.00    -0.281 N 
ATOM      9  C   UNL     1      -6.007 -11.938  16.912  0.00  0.00    +0.016 C 
ATOM     10  C   UNL     1      -5.160 -11.016  17.828  0.00  0.00    +0.006 C 
ATOM     11  C   UNL     1      -4.138 -10.202  17.017  0.00  0.00    +0.023 C 
ATOM     12  C   UNL     1      -5.085 -12.800  16.025  0.00  0.00    +0.113 C 
ATOM     13  C   UNL     1      -3.283 -11.118  16.147  0.00  0.00    +0.109 C 
ATOM     17  C   UNL     1      -4.157 -11.736  13.915  0.00  0.00    +0.305 C 
ATOM     20  C   UNL     1      -4.753 -12.653  11.689  0.00  0.00    +0.137 C 
ATOM     21  C   UNL     1      -3.972 -14.218  13.411  0.00  0.00    +0.137 C 
ATOM     25  C   UNL     1      -3.638 -13.153  10.782  0.00  0.00    +0.179 C 
ATOM     26  C   UNL     1      -2.895 -14.674  12.429  0.00  0.00    +0.179 C 
ENDROOT
BRANCH   9  14
ATOM     14  C   UNL     1      -7.027 -11.185  16.049  0.00  0.00    +0.061 C 
BRANCH  14  16
ATOM      8  N   UNL     1      -8.727 -12.440  17.189  0.00  0.00    -0.287 NA
ATOM     16  C   UNL     1      -8.404 -11.309  16.657  0.00  0.00    +0.044 C 
ATOM     19  C   UNL     1      -9.315 -10.137  16.608  0.00  0.00    -0.001 A 
ATOM     22  C   UNL     1     -10.677 -10.389  16.816  0.00  0.00    -0.033 A 
ATOM     23  C   UNL     1     -11.121 -11.801  17.056  0.00  0.00    +0.059 C 
ATOM     24  C   UNL     1     -10.041 -12.542  17.833  0.00  0.00    +0.146 C 
ATOM     27  C   UNL     1      -8.865  -8.840  16.354  0.00  0.00    +0.013 A 
ATOM     28  C   UNL     1     -11.592  -9.335  16.743  0.00  0.00    +0.050 A 
ATOM     29  C   UNL     1      -9.784  -7.792  16.299  0.00  0.00    +0.046 A 
ATOM     30  C   UNL     1     -11.145  -8.038  16.490  0.00  0.00    +0.120 A 
BRANCH  30   5
ATOM      5  O   UNL     1     -12.036  -7.012  16.426  0.00  0.00    -0.495 OA
ATOM     31  C   UNL     1     -13.355  -7.324  15.980  0.00  0.00    +0.277 C 
ENDBRANCH  30   5
ENDBRANCH  14  16
ENDBRANCH   9  14
BRANCH  10  15
ATOM     15  C   UNL     1      -6.009 -10.096  18.704  0.00  0.00    +0.124 C 
BRANCH  15  18
ATOM      4  O   UNL     1      -5.851 -11.376  20.772  0.00  0.00    -0.251 OA
ATOM     18  C   UNL     1      -6.523 -10.810  19.924  0.00  0.00    +0.305 C 
BRANCH  18   2
ATOM      2  O   UNL     1      -7.879 -10.740  19.957  0.00  0.00    -0.481 OA
ATOM     32  H   UNL     1      -8.228 -10.835  20.869  0.00  0.00    +0.295 HD
ENDBRANCH  18   2
ENDBRANCH  15  18
ENDBRANCH  10  15
TORSDOF 6
ENDMDL
