MODEL 1
REMARK VINA RESULT:      -6.6      0.000      0.000
REMARK  Name = 11883039
REMARK  9 active torsions:
REMARK  status: ('A' for Active; 'I' for Inactive)
REMARK    1  A    between atoms: O_4  and  C_16
REMARK    2  A    between atoms: O_5  and  C_21
REMARK    3  A    between atoms: N_9  and  C_27
REMARK    4  A    between atoms: C_11  and  C_19
REMARK    5  A    between atoms: C_13  and  C_21
REMARK    6  A    between atoms: C_13  and  C_22
REMARK    7  A    between atoms: C_14  and  C_24
REMARK    8  A    between atoms: C_24  and  C_25
REMARK    9  A    between atoms: C_30  and  C_31
REMARK                            x       y       z     vdW  Elec       q    Type
REMARK                         _______ _______ _______ _____ _____    ______ ____
ROOT
ATOM      1  S   UNL     1      -7.501 -11.089  12.536  0.00  0.00    -0.057 S 
ATOM      7  O   UNL     1      -3.542 -11.379  10.102  0.00  0.00    -0.270 OA
ATOM      8  N   UNL     1      -4.928 -11.306  12.714  0.00  0.00    -0.229 NA
ATOM     10  N   UNL     1      -5.859 -11.191  10.493  0.00  0.00    -0.261 N 
ATOM     11  C   UNL     1      -5.292 -10.937  16.535  0.00  0.00    -0.019 C 
ATOM     12  C   UNL     1      -6.726 -11.628  16.544  0.00  0.00    +0.011 C 
ATOM     13  C   UNL     1      -7.494 -11.664  17.921  0.00  0.00    +0.021 C 
ATOM     14  C   UNL     1      -4.534 -11.393  15.204  0.00  0.00    +0.054 C 
ATOM     15  C   UNL     1      -4.474 -11.430  17.757  0.00  0.00    +0.010 C 
ATOM     16  C   UNL     1      -6.521 -12.134  19.038  0.00  0.00    +0.123 C 
ATOM     17  C   UNL     1      -7.600 -11.141  15.352  0.00  0.00    +0.049 C 
ATOM     18  C   UNL     1      -5.222 -11.336  19.078  0.00  0.00    +0.032 C 
ATOM     19  C   UNL     1      -5.369  -9.390  16.579  0.00  0.00    +0.012 C 
ATOM     20  C   UNL     1      -5.434 -11.275  14.001  0.00  0.00    +0.058 A 
ATOM     22  C   UNL     1      -8.640 -12.713  17.836  0.00  0.00    +0.016 C 
ATOM     23  C   UNL     1      -6.808 -11.182  14.089  0.00  0.00    +0.015 A 
ATOM     26  C   UNL     1      -5.925 -11.207  11.862  0.00  0.00    +0.165 A 
ATOM     30  C   UNL     1      -4.699 -11.275   9.707  0.00  0.00    +0.255 C 
ATOM     40  H   UNL     1      -6.763 -11.126  10.033  0.00  0.00    +0.157 HD
ENDROOT
BRANCH  30  31
ATOM      2  F   UNL     1      -4.070 -13.470   8.049  0.00  0.00    -0.205 F 
ATOM      3  F   UNL     1      -5.790  -9.053   8.352  0.00  0.00    -0.205 F 
ATOM     31  C   UNL     1      -4.924 -11.262   8.237  0.00  0.00    +0.107 A 
ATOM     32  C   UNL     1      -4.592 -12.379   7.471  0.00  0.00    +0.138 A 
ATOM     33  C   UNL     1      -5.467 -10.133   7.625  0.00  0.00    +0.138 A 
ATOM     34  C   UNL     1      -4.803 -12.366   6.092  0.00  0.00    +0.039 A 
ATOM     35  C   UNL     1      -5.678 -10.120   6.246  0.00  0.00    +0.039 A 
ATOM     36  C   UNL     1      -5.345 -11.237   5.480  0.00  0.00    +0.006 A 
ENDBRANCH  30  31
BRANCH  16   4
ATOM      4  O   UNL     1      -7.148 -12.055  20.319  0.00  0.00    -0.391 OA
ATOM     37  H   UNL     1      -8.099 -11.920  20.174  0.00  0.00    +0.210 HD
ENDBRANCH  16   4
BRANCH  13  21
ATOM     21  C   UNL     1      -8.178 -10.334  18.309  0.00  0.00    +0.165 C 
BRANCH  21   5
ATOM      5  O   UNL     1      -9.180 -10.624  19.257  0.00  0.00    -0.394 OA
ATOM     38  H   UNL     1      -8.805 -11.258  19.892  0.00  0.00    +0.209 HD
ENDBRANCH  21   5
ENDBRANCH  13  21
BRANCH  14  24
ATOM     24  C   UNL     1      -3.186 -10.697  14.968  0.00  0.00    +0.106 C 
BRANCH  24  25
ATOM      6  O   UNL     1      -0.931 -11.536  15.246  0.00  0.00    -0.276 OA
ATOM      9  N   UNL     1      -2.477 -12.788  14.050  0.00  0.00    -0.312 N 
ATOM     25  C   UNL     1      -2.061 -11.691  14.790  0.00  0.00    +0.214 C 
ATOM     39  H   UNL     1      -3.433 -12.832  13.704  0.00  0.00    +0.149 HD
BRANCH   9  27
ATOM     27  C   UNL     1      -1.604 -13.882  13.734  0.00  0.00    +0.073 C 
ATOM     28  C   UNL     1      -1.932 -15.284  14.153  0.00  0.00    +0.024 C 
ATOM     29  C   UNL     1      -1.983 -14.903  12.703  0.00  0.00    +0.024 C 
ENDBRANCH   9  27
ENDBRANCH  24  25
ENDBRANCH  14  24
TORSDOF 7
ENDMDL
MODEL 2
REMARK VINA RESULT:      -6.6     28.209     30.671
REMARK  Name = 11883039
REMARK  9 active torsions:
REMARK  status: ('A' for Active; 'I' for Inactive)
REMARK    1  A    between atoms: O_4  and  C_16
REMARK    2  A    between atoms: O_5  and  C_21
REMARK    3  A    between atoms: N_9  and  C_27
REMARK    4  A    between atoms: C_11  and  C_19
REMARK    5  A    between atoms: C_13  and  C_21
REMARK    6  A    between atoms: C_13  and  C_22
REMARK    7  A    between atoms: C_14  and  C_24
REMARK    8  A    between atoms: C_24  and  C_25
REMARK    9  A    between atoms: C_30  and  C_31
REMARK                            x       y       z     vdW  Elec       q    Type
REMARK                         _______ _______ _______ _____ _____    ______ ____
ROOT
ATOM      1  S   UNL     1      15.082   8.399   6.249  0.00  0.00    -0.057 S 
ATOM      7  O   UNL     1      12.226   6.844   2.917  0.00  0.00    -0.270 OA
ATOM      8  N   UNL     1      14.940   7.649   3.777  0.00  0.00    -0.229 NA
ATOM     10  N   UNL     1      12.891   7.604   5.047  0.00  0.00    -0.261 N 
ATOM     11  C   UNL     1      18.626   8.708   3.379  0.00  0.00    -0.019 C 
ATOM     12  C   UNL     1      18.970   8.363   4.895  0.00  0.00    +0.011 C 
ATOM     13  C   UNL     1      20.420   8.724   5.398  0.00  0.00    +0.021 C 
ATOM     14  C   UNL     1      17.319   7.884   2.971  0.00  0.00    +0.054 C 
ATOM     15  C   UNL     1      19.795   8.252   2.467  0.00  0.00    +0.010 C 
ATOM     16  C   UNL     1      21.462   8.239   4.351  0.00  0.00    +0.123 C 
ATOM     17  C   UNL     1      17.839   8.832   5.855  0.00  0.00    +0.049 C 
ATOM     18  C   UNL     1      21.163   8.724   2.937  0.00  0.00    +0.032 C 
ATOM     19  C   UNL     1      18.375  10.219   3.147  0.00  0.00    +0.012 C 
ATOM     20  C   UNL     1      16.253   8.000   4.030  0.00  0.00    +0.058 A 
ATOM     22  C   UNL     1      20.704   7.956   6.721  0.00  0.00    +0.016 C 
ATOM     23  C   UNL     1      16.511   8.410   5.323  0.00  0.00    +0.015 A 
ATOM     26  C   UNL     1      14.232   7.826   4.871  0.00  0.00    +0.165 A 
ATOM     30  C   UNL     1      11.984   7.136   4.083  0.00  0.00    +0.255 C 
ATOM     40  H   UNL     1      12.557   7.791   5.988  0.00  0.00    +0.157 HD
ENDROOT
BRANCH  30  31
ATOM      2  F   UNL     1      10.209   9.300   4.445  0.00  0.00    -0.205 F 
ATOM      3  F   UNL     1      10.893   4.607   4.695  0.00  0.00    -0.205 F 
ATOM     31  C   UNL     1      10.586   6.958   4.558  0.00  0.00    +0.107 A 
ATOM     32  C   UNL     1       9.757   8.068   4.718  0.00  0.00    +0.138 A 
ATOM     33  C   UNL     1      10.104   5.681   4.845  0.00  0.00    +0.138 A 
ATOM     34  C   UNL     1       8.446   7.900   5.165  0.00  0.00    +0.039 A 
ATOM     35  C   UNL     1       8.794   5.513   5.291  0.00  0.00    +0.039 A 
ATOM     36  C   UNL     1       7.964   6.623   5.452  0.00  0.00    +0.006 A 
ENDBRANCH  30  31
BRANCH  16   4
ATOM      4  O   UNL     1      22.776   8.663   4.714  0.00  0.00    -0.391 OA
ATOM     37  H   UNL     1      23.338   7.872   4.765  0.00  0.00    +0.210 HD
ENDBRANCH  16   4
BRANCH  13  21
ATOM     21  C   UNL     1      20.630  10.218   5.732  0.00  0.00    +0.165 C 
BRANCH  21   5
ATOM      5  O   UNL     1      21.477  10.294   6.857  0.00  0.00    -0.394 OA
ATOM     38  H   UNL     1      21.791   9.394   7.046  0.00  0.00    +0.209 HD
ENDBRANCH  21   5
ENDBRANCH  13  21
BRANCH  14  24
ATOM     24  C   UNL     1      16.765   8.215   1.578  0.00  0.00    +0.106 C 
BRANCH  24  25
ATOM      6  O   UNL     1      17.365   6.828  -0.314  0.00  0.00    -0.276 OA
ATOM      9  N   UNL     1      15.752   6.086   1.181  0.00  0.00    -0.312 N 
ATOM     25  C   UNL     1      16.686   6.990   0.696  0.00  0.00    +0.214 C 
ATOM     39  H   UNL     1      15.227   6.304   2.024  0.00  0.00    +0.149 HD
BRANCH   9  27
ATOM     27  C   UNL     1      15.479   4.836   0.530  0.00  0.00    +0.073 C 
ATOM     28  C   UNL     1      15.091   3.620   1.317  0.00  0.00    +0.024 C 
ATOM     29  C   UNL     1      14.081   4.299   0.440  0.00  0.00    +0.024 C 
ENDBRANCH   9  27
ENDBRANCH  24  25
ENDBRANCH  14  24
TORSDOF 7
ENDMDL
MODEL 3
REMARK VINA RESULT:      -6.6     28.163     30.600
REMARK  Name = 11883039
REMARK  9 active torsions:
REMARK  status: ('A' for Active; 'I' for Inactive)
REMARK    1  A    between atoms: O_4  and  C_16
REMARK    2  A    between atoms: O_5  and  C_21
REMARK    3  A    between atoms: N_9  and  C_27
REMARK    4  A    between atoms: C_11  and  C_19
REMARK    5  A    between atoms: C_13  and  C_21
REMARK    6  A    between atoms: C_13  and  C_22
REMARK    7  A    between atoms: C_14  and  C_24
REMARK    8  A    between atoms: C_24  and  C_25
REMARK    9  A    between atoms: C_30  and  C_31
REMARK                            x       y       z     vdW  Elec       q    Type
REMARK                         _______ _______ _______ _____ _____    ______ ____
ROOT
ATOM      1  S   UNL     1      15.040   8.384   6.224  0.00  0.00    -0.057 S 
ATOM      7  O   UNL     1      12.181   6.791   2.913  0.00  0.00    -0.270 OA
ATOM      8  N   UNL     1      14.892   7.619   3.757  0.00  0.00    -0.229 NA
ATOM     10  N   UNL     1      12.849   7.567   5.036  0.00  0.00    -0.261 N 
ATOM     11  C   UNL     1      18.570   8.700   3.338  0.00  0.00    -0.019 C 
ATOM     12  C   UNL     1      18.923   8.367   4.854  0.00  0.00    +0.011 C 
ATOM     13  C   UNL     1      20.373   8.740   5.350  0.00  0.00    +0.021 C 
ATOM     14  C   UNL     1      17.266   7.866   2.940  0.00  0.00    +0.054 C 
ATOM     15  C   UNL     1      19.738   8.247   2.424  0.00  0.00    +0.010 C 
ATOM     16  C   UNL     1      21.413   8.256   4.301  0.00  0.00    +0.123 C 
ATOM     17  C   UNL     1      17.792   8.833   5.817  0.00  0.00    +0.049 C 
ATOM     18  C   UNL     1      21.105   8.731   2.885  0.00  0.00    +0.032 C 
ATOM     19  C   UNL     1      18.308  10.209   3.098  0.00  0.00    +0.012 C 
ATOM     20  C   UNL     1      16.204   7.981   4.003  0.00  0.00    +0.058 A 
ATOM     22  C   UNL     1      20.666   7.982   6.676  0.00  0.00    +0.016 C 
ATOM     23  C   UNL     1      16.465   8.399   5.292  0.00  0.00    +0.015 A 
ATOM     26  C   UNL     1      14.188   7.797   4.853  0.00  0.00    +0.165 A 
ATOM     30  C   UNL     1      11.941   7.088   4.078  0.00  0.00    +0.255 C 
ATOM     40  H   UNL     1      12.518   7.758   5.977  0.00  0.00    +0.157 HD
ENDROOT
BRANCH  30  31
ATOM      2  F   UNL     1      10.870   4.556   4.715  0.00  0.00    -0.205 F 
ATOM      3  F   UNL     1      10.153   9.243   4.430  0.00  0.00    -0.205 F 
ATOM     31  C   UNL     1      10.547   6.904   4.560  0.00  0.00    +0.107 A 
ATOM     32  C   UNL     1      10.075   5.626   4.859  0.00  0.00    +0.138 A 
ATOM     33  C   UNL     1       9.710   8.010   4.714  0.00  0.00    +0.138 A 
ATOM     34  C   UNL     1       8.766   5.454   5.311  0.00  0.00    +0.039 A 
ATOM     35  C   UNL     1       8.402   7.837   5.165  0.00  0.00    +0.039 A 
ATOM     36  C   UNL     1       7.930   6.558   5.464  0.00  0.00    +0.006 A 
ENDBRANCH  30  31
BRANCH  16   4
ATOM      4  O   UNL     1      22.726   8.691   4.656  0.00  0.00    -0.391 OA
ATOM     37  H   UNL     1      23.226   8.823   3.833  0.00  0.00    +0.210 HD
ENDBRANCH  16   4
BRANCH  13  21
ATOM     21  C   UNL     1      20.574  10.237   5.675  0.00  0.00    +0.165 C 
BRANCH  21   5
ATOM      5  O   UNL     1      21.443  10.326   6.781  0.00  0.00    -0.394 OA
ATOM     38  H   UNL     1      20.898  10.273   7.584  0.00  0.00    +0.209 HD
ENDBRANCH  21   5
ENDBRANCH  13  21
BRANCH  14  24
ATOM     24  C   UNL     1      16.705   8.185   1.548  0.00  0.00    +0.106 C 
BRANCH  24  25
ATOM      6  O   UNL     1      17.256   6.784  -0.350  0.00  0.00    -0.276 OA
ATOM      9  N   UNL     1      15.699   6.043   1.204  0.00  0.00    -0.312 N 
ATOM     25  C   UNL     1      16.609   6.951   0.681  0.00  0.00    +0.214 C 
ATOM     39  H   UNL     1      15.200   6.265   2.062  0.00  0.00    +0.149 HD
BRANCH   9  27
ATOM     27  C   UNL     1      15.417   4.784   0.575  0.00  0.00    +0.073 C 
ATOM     28  C   UNL     1      15.043   3.578   1.384  0.00  0.00    +0.024 C 
ATOM     29  C   UNL     1      14.018   4.245   0.514  0.00  0.00    +0.024 C 
ENDBRANCH   9  27
ENDBRANCH  24  25
ENDBRANCH  14  24
TORSDOF 7
ENDMDL
MODEL 4
REMARK VINA RESULT:      -6.6     29.406     31.817
REMARK  Name = 11883039
REMARK  9 active torsions:
REMARK  status: ('A' for Active; 'I' for Inactive)
REMARK    1  A    between atoms: O_4  and  C_16
REMARK    2  A    between atoms: O_5  and  C_21
REMARK    3  A    between atoms: N_9  and  C_27
REMARK    4  A    between atoms: C_11  and  C_19
REMARK    5  A    between atoms: C_13  and  C_21
REMARK    6  A    between atoms: C_13  and  C_22
REMARK    7  A    between atoms: C_14  and  C_24
REMARK    8  A    between atoms: C_24  and  C_25
REMARK    9  A    between atoms: C_30  and  C_31
REMARK                            x       y       z     vdW  Elec       q    Type
REMARK                         _______ _______ _______ _____ _____    ______ ____
ROOT
ATOM      1  S   UNL     1      17.748   5.466  19.714  0.00  0.00    -0.057 S 
ATOM      7  O   UNL     1      21.787   6.906  21.526  0.00  0.00    -0.270 OA
ATOM      8  N   UNL     1      18.910   7.371  21.022  0.00  0.00    -0.229 NA
ATOM     10  N   UNL     1      20.283   5.494  20.386  0.00  0.00    -0.261 N 
ATOM     11  C   UNL     1      15.626   9.376  20.763  0.00  0.00    -0.019 C 
ATOM     12  C   UNL     1      14.730   8.060  20.772  0.00  0.00    +0.011 C 
ATOM     13  C   UNL     1      13.179   8.249  20.558  0.00  0.00    +0.021 C 
ATOM     14  C   UNL     1      17.038   9.015  21.419  0.00  0.00    +0.054 C 
ATOM     15  C   UNL     1      14.948  10.467  21.632  0.00  0.00    +0.010 C 
ATOM     16  C   UNL     1      12.674   9.405  21.466  0.00  0.00    +0.123 C 
ATOM     17  C   UNL     1      15.353   6.942  19.886  0.00  0.00    +0.049 C 
ATOM     18  C   UNL     1      13.479  10.690  21.306  0.00  0.00    +0.032 C 
ATOM     19  C   UNL     1      15.850   9.942  19.339  0.00  0.00    +0.012 C 
ATOM     20  C   UNL     1      17.584   7.729  20.855  0.00  0.00    +0.058 A 
ATOM     22  C   UNL     1      12.443   6.953  21.007  0.00  0.00    +0.016 C 
ATOM     23  C   UNL     1      16.807   6.804  20.187  0.00  0.00    +0.015 A 
ATOM     26  C   UNL     1      19.111   6.202  20.455  0.00  0.00    +0.165 A 
ATOM     30  C   UNL     1      21.527   5.877  20.913  0.00  0.00    +0.255 C 
ATOM     40  H   UNL     1      20.201   4.599  19.913  0.00  0.00    +0.157 HD
ENDROOT
BRANCH  30  31
ATOM      2  F   UNL     1      21.246   3.129  21.494  0.00  0.00    -0.205 F 
ATOM      3  F   UNL     1      24.066   6.616  19.929  0.00  0.00    -0.205 F 
ATOM     31  C   UNL     1      22.628   4.897  20.716  0.00  0.00    +0.107 A 
ATOM     32  C   UNL     1      22.428   3.551  21.023  0.00  0.00    +0.138 A 
ATOM     33  C   UNL     1      23.863   5.325  20.226  0.00  0.00    +0.138 A 
ATOM     34  C   UNL     1      23.462   2.633  20.839  0.00  0.00    +0.039 A 
ATOM     35  C   UNL     1      24.896   4.407  20.043  0.00  0.00    +0.039 A 
ATOM     36  C   UNL     1      24.696   3.061  20.350  0.00  0.00    +0.006 A 
ENDBRANCH  30  31
BRANCH  16   4
ATOM      4  O   UNL     1      11.300   9.688  21.202  0.00  0.00    -0.391 OA
ATOM     37  H   UNL     1      11.263  10.301  20.448  0.00  0.00    +0.210 HD
ENDBRANCH  16   4
BRANCH  13  21
ATOM     21  C   UNL     1      12.758   8.477  19.089  0.00  0.00    +0.165 C 
BRANCH  21   5
ATOM      5  O   UNL     1      11.523   7.827  18.888  0.00  0.00    -0.394 OA
ATOM     38  H   UNL     1      10.823   8.437  19.175  0.00  0.00    +0.209 HD
ENDBRANCH  21   5
ENDBRANCH  13  21
BRANCH  14  24
ATOM     24  C   UNL     1      18.077  10.143  21.356  0.00  0.00    +0.106 C 
BRANCH  24  25
ATOM      6  O   UNL     1      18.452  11.411  23.385  0.00  0.00    -0.276 OA
ATOM      9  N   UNL     1      19.570   9.401  23.071  0.00  0.00    -0.312 N 
ATOM     25  C   UNL     1      18.696  10.417  22.707  0.00  0.00    +0.214 C 
ATOM     39  H   UNL     1      19.719   8.614  22.445  0.00  0.00    +0.149 HD
BRANCH   9  27
ATOM     27  C   UNL     1      20.293   9.413  24.310  0.00  0.00    +0.073 C 
ATOM     28  C   UNL     1      20.756   8.139  24.951  0.00  0.00    +0.024 C 
ATOM     29  C   UNL     1      21.756   9.086  24.356  0.00  0.00    +0.024 C 
ENDBRANCH   9  27
ENDBRANCH  24  25
ENDBRANCH  14  24
TORSDOF 7
ENDMDL
MODEL 5
REMARK VINA RESULT:      -6.5     28.582     30.346
REMARK  Name = 11883039
REMARK  9 active torsions:
REMARK  status: ('A' for Active; 'I' for Inactive)
REMARK    1  A    between atoms: O_4  and  C_16
REMARK    2  A    between atoms: O_5  and  C_21
REMARK    3  A    between atoms: N_9  and  C_27
REMARK    4  A    between atoms: C_11  and  C_19
REMARK    5  A    between atoms: C_13  and  C_21
REMARK    6  A    between atoms: C_13  and  C_22
REMARK    7  A    between atoms: C_14  and  C_24
REMARK    8  A    between atoms: C_24  and  C_25
REMARK    9  A    between atoms: C_30  and  C_31
REMARK                            x       y       z     vdW  Elec       q    Type
REMARK                         _______ _______ _______ _____ _____    ______ ____
ROOT
ATOM      1  S   UNL     1      14.241  13.973  18.821  0.00  0.00    -0.057 S 
ATOM      7  O   UNL     1      14.211  10.508  15.712  0.00  0.00    -0.270 OA
ATOM      8  N   UNL     1      13.506  11.529  18.398  0.00  0.00    -0.229 NA
ATOM     10  N   UNL     1      14.650  12.649  16.595  0.00  0.00    -0.261 N 
ATOM     11  C   UNL     1      12.408  11.357  22.090  0.00  0.00    -0.019 C 
ATOM     12  C   UNL     1      12.043  12.906  22.135  0.00  0.00    +0.011 C 
ATOM     13  C   UNL     1      11.611  13.498  23.531  0.00  0.00    +0.021 C 
ATOM     14  C   UNL     1      12.380  10.888  20.562  0.00  0.00    +0.054 C 
ATOM     15  C   UNL     1      11.335  10.550  22.868  0.00  0.00    +0.010 C 
ATOM     16  C   UNL     1      10.572  12.549  24.192  0.00  0.00    +0.123 C 
ATOM     17  C   UNL     1      13.109  13.763  21.394  0.00  0.00    +0.049 C 
ATOM     18  C   UNL     1      11.038  11.098  24.256  0.00  0.00    +0.032 C 
ATOM     19  C   UNL     1      13.799  11.048  22.697  0.00  0.00    +0.012 C 
ATOM     20  C   UNL     1      13.122  11.862  19.683  0.00  0.00    +0.058 A 
ATOM     22  C   UNL     1      10.908  14.867  23.306  0.00  0.00    +0.016 C 
ATOM     23  C   UNL     1      13.422  13.153  20.069  0.00  0.00    +0.015 A 
ATOM     26  C   UNL     1      14.111  12.562  17.852  0.00  0.00    +0.165 A 
ATOM     30  C   UNL     1      14.670  11.641  15.618  0.00  0.00    +0.255 C 
ATOM     40  H   UNL     1      15.054  13.555  16.377  0.00  0.00    +0.157 HD
ENDROOT
BRANCH  30  31
ATOM      2  F   UNL     1      17.466  11.803  15.270  0.00  0.00    -0.205 F 
ATOM      3  F   UNL     1      13.162  12.258  13.314  0.00  0.00    -0.205 F 
ATOM     31  C   UNL     1      15.299  12.021  14.325  0.00  0.00    +0.107 A 
ATOM     32  C   UNL     1      16.687  12.084  14.216  0.00  0.00    +0.138 A 
ATOM     33  C   UNL     1      14.498  12.315  13.220  0.00  0.00    +0.138 A 
ATOM     34  C   UNL     1      17.276  12.441  13.002  0.00  0.00    +0.039 A 
ATOM     35  C   UNL     1      15.087  12.672  12.008  0.00  0.00    +0.039 A 
ATOM     36  C   UNL     1      16.476  12.736  11.899  0.00  0.00    +0.006 A 
ENDBRANCH  30  31
BRANCH  16   4
ATOM      4  O   UNL     1      10.256  12.988  25.513  0.00  0.00    -0.391 OA
ATOM     37  H   UNL     1      10.367  12.230  26.111  0.00  0.00    +0.210 HD
ENDBRANCH  16   4
BRANCH  13  21
ATOM     21  C   UNL     1      12.783  13.787  24.496  0.00  0.00    +0.165 C 
BRANCH  21   5
ATOM      5  O   UNL     1      12.447  14.927  25.255  0.00  0.00    -0.394 OA
ATOM     38  H   UNL     1      13.078  14.981  25.992  0.00  0.00    +0.209 HD
ENDBRANCH  21   5
ENDBRANCH  13  21
BRANCH  14  24
ATOM     24  C   UNL     1      12.854   9.447  20.328  0.00  0.00    +0.106 C 
BRANCH  24  25
ATOM      6  O   UNL     1      10.993   8.013  19.737  0.00  0.00    -0.276 OA
ATOM      9  N   UNL     1      12.331   8.899  18.059  0.00  0.00    -0.312 N 
ATOM     25  C   UNL     1      11.945   8.702  19.378  0.00  0.00    +0.214 C 
ATOM     39  H   UNL     1      13.139   9.482  17.851  0.00  0.00    +0.149 HD
BRANCH   9  27
ATOM     27  C   UNL     1      11.637   8.303  16.954  0.00  0.00    +0.073 C 
ATOM     28  C   UNL     1      10.196   8.616  16.683  0.00  0.00    +0.024 C 
ATOM     29  C   UNL     1      11.260   9.113  15.749  0.00  0.00    +0.024 C 
ENDBRANCH   9  27
ENDBRANCH  24  25
ENDBRANCH  14  24
TORSDOF 7
ENDMDL
MODEL 6
REMARK VINA RESULT:      -6.4      3.636      6.475
REMARK  Name = 11883039
REMARK  9 active torsions:
REMARK  status: ('A' for Active; 'I' for Inactive)
REMARK    1  A    between atoms: O_4  and  C_16
REMARK    2  A    between atoms: O_5  and  C_21
REMARK    3  A    between atoms: N_9  and  C_27
REMARK    4  A    between atoms: C_11  and  C_19
REMARK    5  A    between atoms: C_13  and  C_21
REMARK    6  A    between atoms: C_13  and  C_22
REMARK    7  A    between atoms: C_14  and  C_24
REMARK    8  A    between atoms: C_24  and  C_25
REMARK    9  A    between atoms: C_30  and  C_31
REMARK                            x       y       z     vdW  Elec       q    Type
REMARK                         _______ _______ _______ _____ _____    ______ ____
ROOT
ATOM      1  S   UNL     1      -5.726  -9.988  10.362  0.00  0.00    -0.057 S 
ATOM      7  O   UNL     1     -10.140  -8.541  10.678  0.00  0.00    -0.270 OA
ATOM      8  N   UNL     1      -7.681  -9.529  11.993  0.00  0.00    -0.229 NA
ATOM     10  N   UNL     1      -8.093  -9.108   9.655  0.00  0.00    -0.261 N 
ATOM     11  C   UNL     1      -5.512 -11.024  14.809  0.00  0.00    -0.019 C 
ATOM     12  C   UNL     1      -4.156 -10.540  14.128  0.00  0.00    +0.011 C 
ATOM     13  C   UNL     1      -2.810 -10.994  14.814  0.00  0.00    +0.021 C 
ATOM     14  C   UNL     1      -6.699 -10.117  14.241  0.00  0.00    +0.054 C 
ATOM     15  C   UNL     1      -5.424 -10.811  16.343  0.00  0.00    +0.010 C 
ATOM     16  C   UNL     1      -2.909 -10.755  16.347  0.00  0.00    +0.123 C 
ATOM     17  C   UNL     1      -4.181 -10.763  12.588  0.00  0.00    +0.049 C 
ATOM     18  C   UNL     1      -4.157 -11.370  16.972  0.00  0.00    +0.032 C 
ATOM     19  C   UNL     1      -5.826 -12.516  14.531  0.00  0.00    +0.012 C 
ATOM     20  C   UNL     1      -6.613  -9.989  12.742  0.00  0.00    +0.058 A 
ATOM     22  C   UNL     1      -1.647 -10.109  14.282  0.00  0.00    +0.016 C 
ATOM     23  C   UNL     1      -5.468 -10.266  12.023  0.00  0.00    +0.015 A 
ATOM     26  C   UNL     1      -7.330  -9.495  10.726  0.00  0.00    +0.165 A 
ATOM     30  C   UNL     1      -9.425  -8.663   9.690  0.00  0.00    +0.255 C 
ATOM     40  H   UNL     1      -7.608  -9.144   8.764  0.00  0.00    +0.157 HD
ENDROOT
BRANCH  30  31
ATOM      2  F   UNL     1      -9.652  -5.978   8.852  0.00  0.00    -0.205 F 
ATOM      3  F   UNL     1     -10.378 -10.560   7.830  0.00  0.00    -0.205 F 
ATOM     31  C   UNL     1     -10.001  -8.278   8.374  0.00  0.00    +0.107 A 
ATOM     32  C   UNL     1     -10.086  -6.933   8.017  0.00  0.00    +0.138 A 
ATOM     33  C   UNL     1     -10.456  -9.263   7.497  0.00  0.00    +0.138 A 
ATOM     34  C   UNL     1     -10.627  -6.573   6.782  0.00  0.00    +0.039 A 
ATOM     35  C   UNL     1     -10.996  -8.903   6.263  0.00  0.00    +0.039 A 
ATOM     36  C   UNL     1     -11.083  -7.557   5.906  0.00  0.00    +0.006 A 
ENDBRANCH  30  31
BRANCH  16   4
ATOM      4  O   UNL     1      -1.758 -11.274  17.013  0.00  0.00    -0.391 OA
ATOM     37  H   UNL     1      -0.973 -10.954  16.538  0.00  0.00    +0.210 HD
ENDBRANCH  16   4
BRANCH  13  21
ATOM     21  C   UNL     1      -2.395 -12.451  14.510  0.00  0.00    +0.165 C 
BRANCH  21   5
ATOM      5  O   UNL     1      -1.005 -12.465  14.278  0.00  0.00    -0.394 OA
ATOM     38  H   UNL     1      -0.869 -12.693  13.342  0.00  0.00    +0.209 HD
ENDBRANCH  21   5
ENDBRANCH  13  21
BRANCH  14  24
ATOM     24  C   UNL     1      -8.102 -10.550  14.689  0.00  0.00    +0.106 C 
BRANCH  24  25
ATOM      6  O   UNL     1      -8.635  -9.921  16.966  0.00  0.00    -0.276 OA
ATOM      9  N   UNL     1      -9.179  -8.484  15.226  0.00  0.00    -0.312 N 
ATOM     25  C   UNL     1      -8.654  -9.648  15.769  0.00  0.00    +0.214 C 
ATOM     39  H   UNL     1      -9.159  -8.341  14.220  0.00  0.00    +0.149 HD
BRANCH   9  27
ATOM     27  C   UNL     1      -9.767  -7.454  16.033  0.00  0.00    +0.073 C 
ATOM     28  C   UNL     1     -10.668  -6.416  15.433  0.00  0.00    +0.024 C 
ATOM     29  C   UNL     1     -11.234  -7.461  16.349  0.00  0.00    +0.024 C 
ENDBRANCH   9  27
ENDBRANCH  24  25
ENDBRANCH  14  24
TORSDOF 7
ENDMDL
MODEL 7
REMARK VINA RESULT:      -6.3     25.820     28.774
REMARK  Name = 11883039
REMARK  9 active torsions:
REMARK  status: ('A' for Active; 'I' for Inactive)
REMARK    1  A    between atoms: O_4  and  C_16
REMARK    2  A    between atoms: O_5  and  C_21
REMARK    3  A    between atoms: N_9  and  C_27
REMARK    4  A    between atoms: C_11  and  C_19
REMARK    5  A    between atoms: C_13  and  C_21
REMARK    6  A    between atoms: C_13  and  C_22
REMARK    7  A    between atoms: C_14  and  C_24
REMARK    8  A    between atoms: C_24  and  C_25
REMARK    9  A    between atoms: C_30  and  C_31
REMARK                            x       y       z     vdW  Elec       q    Type
REMARK                         _______ _______ _______ _____ _____    ______ ____
ROOT
ATOM      1  S   UNL     1      19.132  -4.629  -1.992  0.00  0.00    -0.057 S 
ATOM      7  O   UNL     1      16.092  -7.796  -3.546  0.00  0.00    -0.270 OA
ATOM      8  N   UNL     1      18.342  -7.083  -1.762  0.00  0.00    -0.229 NA
ATOM     10  N   UNL     1      17.177  -5.711  -3.366  0.00  0.00    -0.261 N 
ATOM     11  C   UNL     1      21.309  -7.677   0.627  0.00  0.00    -0.019 C 
ATOM     12  C   UNL     1      21.283  -6.177   1.159  0.00  0.00    +0.011 C 
ATOM     13  C   UNL     1      22.430  -5.751   2.154  0.00  0.00    +0.021 C 
ATOM     14  C   UNL     1      19.869  -8.009   0.019  0.00  0.00    +0.054 C 
ATOM     15  C   UNL     1      21.573  -8.641   1.814  0.00  0.00    +0.010 C 
ATOM     16  C   UNL     1      22.592  -6.843   3.248  0.00  0.00    +0.123 C 
ATOM     17  C   UNL     1      21.054  -5.166  -0.002  0.00  0.00    +0.049 C 
ATOM     18  C   UNL     1      22.763  -8.246   2.676  0.00  0.00    +0.032 C 
ATOM     19  C   UNL     1      22.392  -7.914  -0.455  0.00  0.00    +0.012 C 
ATOM     20  C   UNL     1      19.393  -6.899  -0.883  0.00  0.00    +0.058 A 
ATOM     22  C   UNL     1      22.016  -4.434   2.872  0.00  0.00    +0.016 C 
ATOM     23  C   UNL     1      19.926  -5.626  -0.862  0.00  0.00    +0.015 A 
ATOM     26  C   UNL     1      18.122  -5.956  -2.405  0.00  0.00    +0.165 A 
ATOM     30  C   UNL     1      16.237  -6.623  -3.872  0.00  0.00    +0.255 C 
ATOM     40  H   UNL     1      17.175  -4.757  -3.714  0.00  0.00    +0.157 HD
ENDROOT
BRANCH  30  31
ATOM      2  F   UNL     1      16.969  -6.293  -6.577  0.00  0.00    -0.205 F 
ATOM      3  F   UNL     1      13.597  -5.831  -3.264  0.00  0.00    -0.205 F 
ATOM     31  C   UNL     1      15.307  -6.076  -4.895  0.00  0.00    +0.107 A 
ATOM     32  C   UNL     1      15.728  -5.936  -6.217  0.00  0.00    +0.138 A 
ATOM     33  C   UNL     1      14.013  -5.702  -4.533  0.00  0.00    +0.138 A 
ATOM     34  C   UNL     1      14.855  -5.422  -7.177  0.00  0.00    +0.039 A 
ATOM     35  C   UNL     1      13.140  -5.188  -5.491  0.00  0.00    +0.039 A 
ATOM     36  C   UNL     1      13.562  -5.048  -6.814  0.00  0.00    +0.006 A 
ENDBRANCH  30  31
BRANCH  16   4
ATOM      4  O   UNL     1      23.708  -6.551   4.090  0.00  0.00    -0.391 OA
ATOM     37  H   UNL     1      24.498  -6.502   3.526  0.00  0.00    +0.210 HD
ENDBRANCH  16   4
BRANCH  13  21
ATOM     21  C   UNL     1      23.786  -5.444   1.477  0.00  0.00    +0.165 C 
BRANCH  21   5
ATOM      5  O   UNL     1      24.350  -4.327   2.126  0.00  0.00    -0.394 OA
ATOM     38  H   UNL     1      24.848  -4.658   2.892  0.00  0.00    +0.209 HD
ENDBRANCH  21   5
ENDBRANCH  13  21
BRANCH  14  24
ATOM     24  C   UNL     1      19.768  -9.376  -0.672  0.00  0.00    +0.106 C 
BRANCH  24  25
ATOM      6  O   UNL     1      19.607 -11.623   0.217  0.00  0.00    -0.276 OA
ATOM      9  N   UNL     1      18.355  -9.921   1.178  0.00  0.00    -0.312 N 
ATOM     25  C   UNL     1      19.259 -10.446   0.266  0.00  0.00    +0.214 C 
ATOM     39  H   UNL     1      18.118  -8.933   1.143  0.00  0.00    +0.149 HD
BRANCH   9  27
ATOM     27  C   UNL     1      17.719 -10.724   2.183  0.00  0.00    +0.073 C 
ATOM     28  C   UNL     1      16.460 -10.270   2.859  0.00  0.00    +0.024 C 
ATOM     29  C   UNL     1      16.424 -11.429   1.907  0.00  0.00    +0.024 C 
ENDBRANCH   9  27
ENDBRANCH  24  25
ENDBRANCH  14  24
TORSDOF 7
ENDMDL
MODEL 8
REMARK VINA RESULT:      -6.3      2.095      2.867
REMARK  Name = 11883039
REMARK  9 active torsions:
REMARK  status: ('A' for Active; 'I' for Inactive)
REMARK    1  A    between atoms: O_4  and  C_16
REMARK    2  A    between atoms: O_5  and  C_21
REMARK    3  A    between atoms: N_9  and  C_27
REMARK    4  A    between atoms: C_11  and  C_19
REMARK    5  A    between atoms: C_13  and  C_21
REMARK    6  A    between atoms: C_13  and  C_22
REMARK    7  A    between atoms: C_14  and  C_24
REMARK    8  A    between atoms: C_24  and  C_25
REMARK    9  A    between atoms: C_30  and  C_31
REMARK                            x       y       z     vdW  Elec       q    Type
REMARK                         _______ _______ _______ _____ _____    ______ ____
ROOT
ATOM      1  S   UNL     1      -9.063 -11.242  12.890  0.00  0.00    -0.057 S 
ATOM      7  O   UNL     1      -4.604 -10.586  11.721  0.00  0.00    -0.270 OA
ATOM      8  N   UNL     1      -6.685 -10.804  13.812  0.00  0.00    -0.229 NA
ATOM     10  N   UNL     1      -6.909 -10.974  11.417  0.00  0.00    -0.261 N 
ATOM     11  C   UNL     1      -8.250 -10.455  17.318  0.00  0.00    -0.019 C 
ATOM     12  C   UNL     1      -9.420 -11.482  16.985  0.00  0.00    +0.011 C 
ATOM     13  C   UNL     1     -10.534 -11.679  18.083  0.00  0.00    +0.021 C 
ATOM     14  C   UNL     1      -7.045 -10.736  16.308  0.00  0.00    +0.054 C 
ATOM     15  C   UNL     1      -7.744 -10.701  18.764  0.00  0.00    +0.010 C 
ATOM     16  C   UNL     1      -9.858 -11.866  19.471  0.00  0.00    +0.123 C 
ATOM     17  C   UNL     1      -9.985 -11.255  15.553  0.00  0.00    +0.049 C 
ATOM     18  C   UNL     1      -8.853 -10.769  19.803  0.00  0.00    +0.032 C 
ATOM     19  C   UNL     1      -8.694  -8.976  17.192  0.00  0.00    +0.012 C 
ATOM     20  C   UNL     1      -7.545 -10.873  14.893  0.00  0.00    +0.058 A 
ATOM     22  C   UNL     1     -11.325 -12.983  17.776  0.00  0.00    +0.016 C 
ATOM     23  C   UNL     1      -8.865 -11.124  14.577  0.00  0.00    +0.015 A 
ATOM     26  C   UNL     1      -7.376 -10.977  12.706  0.00  0.00    +0.165 A 
ATOM     30  C   UNL     1      -5.581 -10.783  11.006  0.00  0.00    +0.255 C 
ATOM     40  H   UNL     1      -7.623 -11.147  10.715  0.00  0.00    +0.157 HD
ENDROOT
BRANCH  30  31
ATOM      2  F   UNL     1      -4.370 -13.009   9.764  0.00  0.00    -0.205 F 
ATOM      3  F   UNL     1      -6.324  -8.712   9.238  0.00  0.00    -0.205 F 
ATOM     31  C   UNL     1      -5.352 -10.859   9.538  0.00  0.00    +0.107 A 
ATOM     32  C   UNL     1      -4.748 -11.987   8.983  0.00  0.00    +0.138 A 
ATOM     33  C   UNL     1      -5.742  -9.801   8.716  0.00  0.00    +0.138 A 
ATOM     34  C   UNL     1      -4.534 -12.057   7.607  0.00  0.00    +0.039 A 
ATOM     35  C   UNL     1      -5.528  -9.871   7.340  0.00  0.00    +0.039 A 
ATOM     36  C   UNL     1      -4.923 -11.000   6.785  0.00  0.00    +0.006 A 
ENDBRANCH  30  31
BRANCH  16   4
ATOM      4  O   UNL     1     -10.839 -11.918  20.506  0.00  0.00    -0.391 OA
ATOM     37  H   UNL     1     -11.621 -11.429  20.198  0.00  0.00    +0.210 HD
ENDBRANCH  16   4
BRANCH  13  21
ATOM     21  C   UNL     1     -11.591 -10.554  18.133  0.00  0.00    +0.165 C 
BRANCH  21   5
ATOM      5  O   UNL     1     -12.824 -11.135  18.495  0.00  0.00    -0.394 OA
ATOM     38  H   UNL     1     -12.738 -12.096  18.375  0.00  0.00    +0.209 HD
ENDBRANCH  21   5
ENDBRANCH  13  21
BRANCH  14  24
ATOM     24  C   UNL     1      -5.888  -9.731  16.399  0.00  0.00    +0.106 C 
BRANCH  24  25
ATOM      6  O   UNL     1      -4.134 -11.015  17.467  0.00  0.00    -0.276 OA
ATOM      9  N   UNL     1      -3.849 -10.289  15.281  0.00  0.00    -0.312 N 
ATOM     25  C   UNL     1      -4.545 -10.420  16.475  0.00  0.00    +0.214 C 
ATOM     39  H   UNL     1      -4.263  -9.772  14.509  0.00  0.00    +0.149 HD
BRANCH   9  27
ATOM     27  C   UNL     1      -2.544 -10.851  15.083  0.00  0.00    +0.073 C 
ATOM     28  C   UNL     1      -1.575 -10.243  14.114  0.00  0.00    +0.024 C 
ATOM     29  C   UNL     1      -1.316 -10.154  15.589  0.00  0.00    +0.024 C 
ENDBRANCH   9  27
ENDBRANCH  24  25
ENDBRANCH  14  24
TORSDOF 7
ENDMDL
MODEL 9
REMARK VINA RESULT:      -6.2     25.296     28.271
REMARK  Name = 11883039
REMARK  9 active torsions:
REMARK  status: ('A' for Active; 'I' for Inactive)
REMARK    1  A    between atoms: O_4  and  C_16
REMARK    2  A    between atoms: O_5  and  C_21
REMARK    3  A    between atoms: N_9  and  C_27
REMARK    4  A    between atoms: C_11  and  C_19
REMARK    5  A    between atoms: C_13  and  C_21
REMARK    6  A    between atoms: C_13  and  C_22
REMARK    7  A    between atoms: C_14  and  C_24
REMARK    8  A    between atoms: C_24  and  C_25
REMARK    9  A    between atoms: C_30  and  C_31
REMARK                            x       y       z     vdW  Elec       q    Type
REMARK                         _______ _______ _______ _____ _____    ______ ____
ROOT
ATOM      1  S   UNL     1      20.175  -7.329  -0.861  0.00  0.00    -0.057 S 
ATOM      7  O   UNL     1      17.050 -10.581  -2.014  0.00  0.00    -0.270 OA
ATOM      8  N   UNL     1      19.130  -9.590  -0.159  0.00  0.00    -0.229 NA
ATOM     10  N   UNL     1      18.302  -8.593  -2.193  0.00  0.00    -0.261 N 
ATOM     11  C   UNL     1      21.720  -9.755   2.692  0.00  0.00    -0.019 C 
ATOM     12  C   UNL     1      21.777  -8.171   2.838  0.00  0.00    +0.011 C 
ATOM     13  C   UNL     1      22.833  -7.583   3.851  0.00  0.00    +0.021 C 
ATOM     14  C   UNL     1      20.337 -10.135   1.987  0.00  0.00    +0.054 C 
ATOM     15  C   UNL     1      21.746 -10.404   4.100  0.00  0.00    +0.010 C 
ATOM     16  C   UNL     1      22.756  -8.373   5.187  0.00  0.00    +0.123 C 
ATOM     17  C   UNL     1      21.786  -7.471   1.448  0.00  0.00    +0.049 C 
ATOM     18  C   UNL     1      22.857  -9.883   4.999  0.00  0.00    +0.032 C 
ATOM     19  C   UNL     1      22.896 -10.325   1.860  0.00  0.00    +0.012 C 
ATOM     20  C   UNL     1      20.081  -9.259   0.788  0.00  0.00    +0.058 A 
ATOM     22  C   UNL     1      22.466  -6.105   4.166  0.00  0.00    +0.016 C 
ATOM     23  C   UNL     1      20.729  -8.059   0.575  0.00  0.00    +0.015 A 
ATOM     26  C   UNL     1      19.098  -8.649  -1.078  0.00  0.00    +0.165 A 
ATOM     30  C   UNL     1      17.345  -9.540  -2.590  0.00  0.00    +0.255 C 
ATOM     40  H   UNL     1      18.434  -7.759  -2.757  0.00  0.00    +0.157 HD
ENDROOT
BRANCH  30  31
ATOM      2  F   UNL     1      18.390 -10.023  -5.167  0.00  0.00    -0.205 F 
ATOM      3  F   UNL     1      14.774  -8.378  -2.564  0.00  0.00    -0.205 F 
ATOM     31  C   UNL     1      16.601  -9.209  -3.834  0.00  0.00    +0.107 A 
ATOM     32  C   UNL     1      17.172  -9.471  -5.079  0.00  0.00    +0.138 A 
ATOM     33  C   UNL     1      15.332  -8.635  -3.756  0.00  0.00    +0.138 A 
ATOM     34  C   UNL     1      16.473  -9.160  -6.246  0.00  0.00    +0.039 A 
ATOM     35  C   UNL     1      14.634  -8.323  -4.922  0.00  0.00    +0.039 A 
ATOM     36  C   UNL     1      15.205  -8.586  -6.168  0.00  0.00    +0.006 A 
ENDBRANCH  30  31
BRANCH  16   4
ATOM      4  O   UNL     1      23.787  -7.952   6.081  0.00  0.00    -0.391 OA
ATOM     37  H   UNL     1      23.373  -7.760   6.939  0.00  0.00    +0.210 HD
ENDBRANCH  16   4
BRANCH  13  21
ATOM     21  C   UNL     1      24.283  -7.545   3.316  0.00  0.00    +0.165 C 
BRANCH  21   5
ATOM      5  O   UNL     1      24.860  -6.323   3.718  0.00  0.00    -0.394 OA
ATOM     38  H   UNL     1      24.998  -5.790   2.917  0.00  0.00    +0.209 HD
ENDBRANCH  21   5
ENDBRANCH  13  21
BRANCH  14  24
ATOM     24  C   UNL     1      20.187 -11.623   1.638  0.00  0.00    +0.106 C 
BRANCH  24  25
ATOM      6  O   UNL     1      18.995 -12.773   3.405  0.00  0.00    -0.276 OA
ATOM      9  N   UNL     1      17.852 -12.117   1.495  0.00  0.00    -0.312 N 
ATOM     25  C   UNL     1      18.975 -12.238   2.300  0.00  0.00    +0.214 C 
ATOM     39  H   UNL     1      17.927 -11.663   0.588  0.00  0.00    +0.149 HD
BRANCH   9  27
ATOM     27  C   UNL     1      16.565 -12.618   1.885  0.00  0.00    +0.073 C 
ATOM     28  C   UNL     1      15.638 -11.801   2.733  0.00  0.00    +0.024 C 
ATOM     29  C   UNL     1      15.305 -12.060   1.294  0.00  0.00    +0.024 C 
ENDBRANCH   9  27
ENDBRANCH  24  25
ENDBRANCH  14  24
TORSDOF 7
ENDMDL
MODEL 10
REMARK VINA RESULT:      -6.2      5.665      8.979
REMARK  Name = 11883039
REMARK  9 active torsions:
REMARK  status: ('A' for Active; 'I' for Inactive)
REMARK    1  A    between atoms: O_4  and  C_16
REMARK    2  A    between atoms: O_5  and  C_21
REMARK    3  A    between atoms: N_9  and  C_27
REMARK    4  A    between atoms: C_11  and  C_19
REMARK    5  A    between atoms: C_13  and  C_21
REMARK    6  A    between atoms: C_13  and  C_22
REMARK    7  A    between atoms: C_14  and  C_24
REMARK    8  A    between atoms: C_24  and  C_25
REMARK    9  A    between atoms: C_30  and  C_31
REMARK                            x       y       z     vdW  Elec       q    Type
REMARK                         _______ _______ _______ _____ _____    ______ ____
ROOT
ATOM      1  S   UNL     1      -9.160  -9.186  14.324  0.00  0.00    -0.057 S 
ATOM      7  O   UNL     1     -13.256  -8.634  16.467  0.00  0.00    -0.270 OA
ATOM      8  N   UNL     1     -10.464  -9.611  16.518  0.00  0.00    -0.229 NA
ATOM     10  N   UNL     1     -11.656  -8.499  14.741  0.00  0.00    -0.261 N 
ATOM     11  C   UNL     1      -7.420 -11.607  17.789  0.00  0.00    -0.019 C 
ATOM     12  C   UNL     1      -6.392 -10.718  16.959  0.00  0.00    +0.011 C 
ATOM     13  C   UNL     1      -4.878 -11.161  16.988  0.00  0.00    +0.021 C 
ATOM     14  C   UNL     1      -8.760 -10.759  17.981  0.00  0.00    +0.054 C 
ATOM     15  C   UNL     1      -6.827 -11.910  19.189  0.00  0.00    +0.010 C 
ATOM     16  C   UNL     1      -4.462 -11.468  18.454  0.00  0.00    +0.123 C 
ATOM     17  C   UNL     1      -6.928 -10.413  15.530  0.00  0.00    +0.049 C 
ATOM     18  C   UNL     1      -5.403 -12.443  19.154  0.00  0.00    +0.032 C 
ATOM     19  C   UNL     1      -7.756 -12.949  17.090  0.00  0.00    +0.012 C 
ATOM     20  C   UNL     1      -9.191 -10.123  16.685  0.00  0.00    +0.058 A 
ATOM     22  C   UNL     1      -3.995  -9.979  16.495  0.00  0.00    +0.016 C 
ATOM     23  C   UNL     1      -8.347  -9.961  15.604  0.00  0.00    +0.015 A 
ATOM     26  C   UNL     1     -10.563  -9.100  15.310  0.00  0.00    +0.165 A 
ATOM     30  C   UNL     1     -12.913  -8.305  15.337  0.00  0.00    +0.255 C 
ATOM     40  H   UNL     1     -11.500  -8.158  13.797  0.00  0.00    +0.157 HD
ENDROOT
BRANCH  30  31
ATOM      2  F   UNL     1     -14.914  -9.658  13.878  0.00  0.00    -0.205 F 
ATOM      3  F   UNL     1     -12.961  -5.496  15.071  0.00  0.00    -0.205 F 
ATOM     31  C   UNL     1     -13.912  -7.595  14.495  0.00  0.00    +0.107 A 
ATOM     32  C   UNL     1     -14.878  -8.320  13.797  0.00  0.00    +0.138 A 
ATOM     33  C   UNL     1     -13.884  -6.203  14.404  0.00  0.00    +0.138 A 
ATOM     34  C   UNL     1     -15.815  -7.653  13.008  0.00  0.00    +0.039 A 
ATOM     35  C   UNL     1     -14.821  -5.537  13.615  0.00  0.00    +0.039 A 
ATOM     36  C   UNL     1     -15.787  -6.263  12.916  0.00  0.00    +0.006 A 
ENDBRANCH  30  31
BRANCH  16   4
ATOM      4  O   UNL     1      -3.136 -11.995  18.502  0.00  0.00    -0.391 OA
ATOM     37  H   UNL     1      -2.626 -11.455  19.128  0.00  0.00    +0.210 HD
ENDBRANCH  16   4
BRANCH  13  21
ATOM     21  C   UNL     1      -4.539 -12.348  16.059  0.00  0.00    +0.165 C 
BRANCH  21   5
ATOM      5  O   UNL     1      -3.186 -12.229  15.682  0.00  0.00    -0.394 OA
ATOM     38  H   UNL     1      -2.750 -11.662  16.341  0.00  0.00    +0.209 HD
ENDBRANCH  21   5
ENDBRANCH  13  21
BRANCH  14  24
ATOM     24  C   UNL     1      -9.914 -11.529  18.639  0.00  0.00    +0.106 C 
BRANCH  24  25
ATOM      6  O   UNL     1     -10.157 -10.267  20.692  0.00  0.00    -0.276 OA
ATOM      9  N   UNL     1     -11.959 -10.445  19.239  0.00  0.00    -0.312 N 
ATOM     25  C   UNL     1     -10.654 -10.683  19.649  0.00  0.00    +0.214 C 
ATOM     39  H   UNL     1     -12.292 -10.835  18.361  0.00  0.00    +0.149 HD
BRANCH   9  27
ATOM     27  C   UNL     1     -12.882  -9.667  20.015  0.00  0.00    +0.073 C 
ATOM     28  C   UNL     1     -14.352  -9.687  19.723  0.00  0.00    +0.024 C 
ATOM     29  C   UNL     1     -13.828 -10.321  20.978  0.00  0.00    +0.024 C 
ENDBRANCH   9  27
ENDBRANCH  24  25
ENDBRANCH  14  24
TORSDOF 7
ENDMDL
