MODEL 1
REMARK VINA RESULT:      -7.1      0.000      0.000
REMARK  Name = 45783467
REMARK  11 active torsions:
REMARK  status: ('A' for Active; 'I' for Inactive)
REMARK    1  A    between atoms: S_1  and  C_23
REMARK    2  A    between atoms: S_1  and  C_25
REMARK    3  A    between atoms: O_5  and  C_27
REMARK    4  A    between atoms: O_5  and  C_30
REMARK    5  A    between atoms: O_6  and  C_31
REMARK    6  A    between atoms: O_6  and  C_32
REMARK    7  A    between atoms: N_7  and  C_15
REMARK    8  A    between atoms: C_11  and  C_16
REMARK    9  A    between atoms: C_15  and  C_17
REMARK   10  A    between atoms: C_20  and  C_24
REMARK   11  A    between atoms: C_30  and  C_31
REMARK                            x       y       z     vdW  Elec       q    Type
REMARK                         _______ _______ _______ _____ _____    ______ ____
ROOT
ATOM      7  N   UNL     1      12.597   8.671  18.658  0.00  0.00    -0.287 NA
ATOM     11  C   UNL     1      13.404   7.485  18.312  0.00  0.00    +0.146 C 
ATOM     12  C   UNL     1      13.935   7.773  16.895  0.00  0.00    +0.030 C 
ATOM     13  C   UNL     1      13.325   9.112  16.507  0.00  0.00    +0.017 C 
ATOM     14  C   UNL     1      12.102   9.218  17.395  0.00  0.00    +0.085 C 
ENDROOT
BRANCH  11  16
ATOM      2  O   UNL     1      14.147   6.651  20.486  0.00  0.00    -0.336 OA
ATOM      8  N   UNL     1      15.795   7.471  19.211  0.00  0.00    -0.189 NA
ATOM      9  N   UNL     1      15.324   6.512  21.234  0.00  0.00    -0.054 NA
ATOM     16  C   UNL     1      14.513   7.223  19.310  0.00  0.00    +0.245 A 
ATOM     20  C   UNL     1      16.251   7.017  20.414  0.00  0.00    +0.221 A 
BRANCH  20  24
ATOM     10  N   UNL     1      18.020   8.188  21.444  0.00  0.00    -0.252 NA
ATOM     24  C   UNL     1      17.639   7.082  20.767  0.00  0.00    +0.115 A 
ATOM     26  C   UNL     1      18.499   6.053  20.416  0.00  0.00    +0.077 A 
ATOM     27  C   UNL     1      19.835   6.167  20.783  0.00  0.00    +0.124 A 
ATOM     28  C   UNL     1      19.326   8.265  21.785  0.00  0.00    +0.115 A 
ATOM     29  C   UNL     1      20.265   7.291  21.481  0.00  0.00    +0.065 A 
BRANCH  27   5
ATOM      5  O   UNL     1      20.718   5.183  20.463  0.00  0.00    -0.490 OA
BRANCH   5  30
ATOM     30  C   UNL     1      22.100   5.536  20.434  0.00  0.00    +0.257 C 
BRANCH  30  31
ATOM     31  C   UNL     1      22.865   4.619  21.370  0.00  0.00    +0.200 C 
BRANCH  31   6
ATOM      6  O   UNL     1      21.938   3.886  22.161  0.00  0.00    -0.380 OA
ATOM     32  C   UNL     1      22.597   2.948  23.000  0.00  0.00    +0.194 C 
ENDBRANCH  31   6
ENDBRANCH  30  31
ENDBRANCH   5  30
ENDBRANCH  27   5
ENDBRANCH  20  24
ENDBRANCH  11  16
BRANCH   7  15
ATOM     15  C   UNL     1      11.516   8.378  19.590  0.00  0.00    +0.120 C 
BRANCH  15  17
ATOM     17  C   UNL     1      11.528   9.308  20.774  0.00  0.00    -0.033 A 
ATOM     18  C   UNL     1      12.340  10.442  20.763  0.00  0.00    +0.007 A 
ATOM     19  C   UNL     1      10.724   9.038  21.882  0.00  0.00    +0.007 A 
ATOM     21  C   UNL     1      12.351  11.305  21.859  0.00  0.00    +0.027 A 
ATOM     22  C   UNL     1      10.734   9.900  22.979  0.00  0.00    +0.027 A 
ATOM     23  C   UNL     1      11.547  11.033  22.967  0.00  0.00    +0.088 A 
BRANCH  23   1
ATOM      1  S   UNL     1      11.558  12.115  24.337  0.00  0.00    -0.006 S 
ATOM      3  O   UNL     1      10.183  12.409  24.718  0.00  0.00    -0.170 OA
ATOM      4  O   UNL     1      12.482  11.578  25.326  0.00  0.00    -0.170 OA
ATOM     25  C   UNL     1      12.252  13.625  23.703  0.00  0.00    +0.200 C 
ENDBRANCH  23   1
ENDBRANCH  15  17
ENDBRANCH   7  15
TORSDOF 9
ENDMDL
MODEL 2
REMARK VINA RESULT:      -6.5     27.231     31.353
REMARK  Name = 45783467
REMARK  11 active torsions:
REMARK  status: ('A' for Active; 'I' for Inactive)
REMARK    1  A    between atoms: S_1  and  C_23
REMARK    2  A    between atoms: S_1  and  C_25
REMARK    3  A    between atoms: O_5  and  C_27
REMARK    4  A    between atoms: O_5  and  C_30
REMARK    5  A    between atoms: O_6  and  C_31
REMARK    6  A    between atoms: O_6  and  C_32
REMARK    7  A    between atoms: N_7  and  C_15
REMARK    8  A    between atoms: C_11  and  C_16
REMARK    9  A    between atoms: C_15  and  C_17
REMARK   10  A    between atoms: C_20  and  C_24
REMARK   11  A    between atoms: C_30  and  C_31
REMARK                            x       y       z     vdW  Elec       q    Type
REMARK                         _______ _______ _______ _____ _____    ______ ____
ROOT
ATOM      7  N   UNL     1     -15.465   5.560  21.755  0.00  0.00    -0.287 NA
ATOM     11  C   UNL     1     -16.735   5.297  22.458  0.00  0.00    +0.146 C 
ATOM     12  C   UNL     1     -17.687   4.774  21.366  0.00  0.00    +0.030 C 
ATOM     13  C   UNL     1     -16.883   4.836  20.075  0.00  0.00    +0.017 C 
ATOM     14  C   UNL     1     -15.816   5.872  20.369  0.00  0.00    +0.085 C 
ENDROOT
BRANCH  11  16
ATOM      2  O   UNL     1     -16.135   3.079  23.289  0.00  0.00    -0.336 OA
ATOM      8  N   UNL     1     -16.800   4.503  24.885  0.00  0.00    -0.189 NA
ATOM      9  N   UNL     1     -16.068   2.370  24.496  0.00  0.00    -0.054 NA
ATOM     16  C   UNL     1     -16.574   4.324  23.608  0.00  0.00    +0.245 A 
ATOM     20  C   UNL     1     -16.475   3.277  25.389  0.00  0.00    +0.221 A 
BRANCH  20  24
ATOM     10  N   UNL     1     -16.885   4.039  27.584  0.00  0.00    -0.252 NA
ATOM     24  C   UNL     1     -16.567   2.991  26.792  0.00  0.00    +0.115 A 
ATOM     26  C   UNL     1     -16.336   1.707  27.260  0.00  0.00    +0.077 A 
ATOM     27  C   UNL     1     -16.439   1.485  28.628  0.00  0.00    +0.124 A 
ATOM     28  C   UNL     1     -16.975   3.786  28.908  0.00  0.00    +0.115 A 
ATOM     29  C   UNL     1     -16.764   2.539  29.476  0.00  0.00    +0.065 A 
BRANCH  27   5
ATOM      5  O   UNL     1     -16.223   0.242  29.137  0.00  0.00    -0.490 OA
BRANCH   5  30
ATOM     30  C   UNL     1     -15.507   0.160  30.368  0.00  0.00    +0.257 C 
BRANCH  30  31
ATOM     31  C   UNL     1     -14.020   0.115  30.074  0.00  0.00    +0.200 C 
BRANCH  31   6
ATOM      6  O   UNL     1     -13.417   1.314  30.545  0.00  0.00    -0.380 OA
ATOM     32  C   UNL     1     -13.979   1.728  31.783  0.00  0.00    +0.194 C 
ENDBRANCH  31   6
ENDBRANCH  30  31
ENDBRANCH   5  30
ENDBRANCH  27   5
ENDBRANCH  20  24
ENDBRANCH  11  16
BRANCH   7  15
ATOM     15  C   UNL     1     -14.675   6.617  22.371  0.00  0.00    +0.120 C 
BRANCH  15  17
ATOM     17  C   UNL     1     -13.751   7.277  21.382  0.00  0.00    -0.033 A 
ATOM     18  C   UNL     1     -14.080   8.521  20.842  0.00  0.00    +0.007 A 
ATOM     19  C   UNL     1     -12.565   6.647  21.007  0.00  0.00    +0.007 A 
ATOM     21  C   UNL     1     -13.224   9.133  19.926  0.00  0.00    +0.027 A 
ATOM     22  C   UNL     1     -11.709   7.257  20.090  0.00  0.00    +0.027 A 
ATOM     23  C   UNL     1     -12.038   8.501  19.551  0.00  0.00    +0.088 A 
BRANCH  23   1
ATOM      1  S   UNL     1     -10.966   9.269  18.407  0.00  0.00    -0.006 S 
ATOM      3  O   UNL     1     -11.692  10.324  17.714  0.00  0.00    -0.170 OA
ATOM      4  O   UNL     1      -9.723   9.582  19.098  0.00  0.00    -0.170 OA
ATOM     25  C   UNL     1     -10.621   8.004  17.205  0.00  0.00    +0.200 C 
ENDBRANCH  23   1
ENDBRANCH  15  17
ENDBRANCH   7  15
TORSDOF 9
ENDMDL
MODEL 3
REMARK VINA RESULT:      -6.5      4.031      7.632
REMARK  Name = 45783467
REMARK  11 active torsions:
REMARK  status: ('A' for Active; 'I' for Inactive)
REMARK    1  A    between atoms: S_1  and  C_23
REMARK    2  A    between atoms: S_1  and  C_25
REMARK    3  A    between atoms: O_5  and  C_27
REMARK    4  A    between atoms: O_5  and  C_30
REMARK    5  A    between atoms: O_6  and  C_31
REMARK    6  A    between atoms: O_6  and  C_32
REMARK    7  A    between atoms: N_7  and  C_15
REMARK    8  A    between atoms: C_11  and  C_16
REMARK    9  A    between atoms: C_15  and  C_17
REMARK   10  A    between atoms: C_20  and  C_24
REMARK   11  A    between atoms: C_30  and  C_31
REMARK                            x       y       z     vdW  Elec       q    Type
REMARK                         _______ _______ _______ _____ _____    ______ ____
ROOT
ATOM      7  N   UNL     1      13.495   7.825  20.082  0.00  0.00    -0.287 NA
ATOM     11  C   UNL     1      12.573   7.903  18.932  0.00  0.00    +0.146 C 
ATOM     12  C   UNL     1      11.387   8.744  19.438  0.00  0.00    +0.030 C 
ATOM     13  C   UNL     1      11.702   9.039  20.898  0.00  0.00    +0.017 C 
ATOM     14  C   UNL     1      12.667   7.936  21.284  0.00  0.00    +0.085 C 
ENDROOT
BRANCH  11  16
ATOM      2  O   UNL     1      13.167   7.753  16.566  0.00  0.00    -0.336 OA
ATOM      8  N   UNL     1      13.854   9.637  17.563  0.00  0.00    -0.189 NA
ATOM      9  N   UNL     1      13.831   8.496  15.580  0.00  0.00    -0.054 NA
ATOM     16  C   UNL     1      13.227   8.497  17.701  0.00  0.00    +0.245 A 
ATOM     20  C   UNL     1      14.206   9.593  16.245  0.00  0.00    +0.221 A 
BRANCH  20  24
ATOM     10  N   UNL     1      15.040  10.590  14.277  0.00  0.00    -0.252 NA
ATOM     24  C   UNL     1      14.932  10.662  15.622  0.00  0.00    +0.115 A 
ATOM     26  C   UNL     1      15.471  11.682  16.391  0.00  0.00    +0.077 A 
ATOM     27  C   UNL     1      16.165  12.693  15.736  0.00  0.00    +0.124 A 
ATOM     28  C   UNL     1      15.722  11.590  13.675  0.00  0.00    +0.115 A 
ATOM     29  C   UNL     1      16.297  12.654  14.353  0.00  0.00    +0.065 A 
BRANCH  27   5
ATOM      5  O   UNL     1      16.711  13.717  16.446  0.00  0.00    -0.490 OA
BRANCH   5  30
ATOM     30  C   UNL     1      18.072  13.574  16.849  0.00  0.00    +0.257 C 
BRANCH  30  31
ATOM     31  C   UNL     1      18.151  13.650  18.362  0.00  0.00    +0.200 C 
BRANCH  31   6
ATOM      6  O   UNL     1      18.076  12.334  18.898  0.00  0.00    -0.380 OA
ATOM     32  C   UNL     1      17.054  12.229  19.878  0.00  0.00    +0.194 C 
ENDBRANCH  31   6
ENDBRANCH  30  31
ENDBRANCH   5  30
ENDBRANCH  27   5
ENDBRANCH  20  24
ENDBRANCH  11  16
BRANCH   7  15
ATOM     15  C   UNL     1      14.306   6.614  20.086  0.00  0.00    +0.120 C 
BRANCH  15  17
ATOM     17  C   UNL     1      15.753   6.909  20.381  0.00  0.00    -0.033 A 
ATOM     18  C   UNL     1      16.091   7.949  21.248  0.00  0.00    +0.007 A 
ATOM     19  C   UNL     1      16.756   6.142  19.789  0.00  0.00    +0.007 A 
ATOM     21  C   UNL     1      17.430   8.222  21.522  0.00  0.00    +0.027 A 
ATOM     22  C   UNL     1      18.097   6.415  20.062  0.00  0.00    +0.027 A 
ATOM     23  C   UNL     1      18.433   7.454  20.930  0.00  0.00    +0.088 A 
BRANCH  23   1
ATOM      1  S   UNL     1      20.110   7.794  21.276  0.00  0.00    -0.006 S 
ATOM      3  O   UNL     1      20.947   6.932  20.451  0.00  0.00    -0.170 OA
ATOM      4  O   UNL     1      20.295   9.238  21.229  0.00  0.00    -0.170 OA
ATOM     25  C   UNL     1      20.330   7.268  22.961  0.00  0.00    +0.200 C 
ENDBRANCH  23   1
ENDBRANCH  15  17
ENDBRANCH   7  15
TORSDOF 9
ENDMDL
MODEL 4
REMARK VINA RESULT:      -6.4      4.758      7.898
REMARK  Name = 45783467
REMARK  11 active torsions:
REMARK  status: ('A' for Active; 'I' for Inactive)
REMARK    1  A    between atoms: S_1  and  C_23
REMARK    2  A    between atoms: S_1  and  C_25
REMARK    3  A    between atoms: O_5  and  C_27
REMARK    4  A    between atoms: O_5  and  C_30
REMARK    5  A    between atoms: O_6  and  C_31
REMARK    6  A    between atoms: O_6  and  C_32
REMARK    7  A    between atoms: N_7  and  C_15
REMARK    8  A    between atoms: C_11  and  C_16
REMARK    9  A    between atoms: C_15  and  C_17
REMARK   10  A    between atoms: C_20  and  C_24
REMARK   11  A    between atoms: C_30  and  C_31
REMARK                            x       y       z     vdW  Elec       q    Type
REMARK                         _______ _______ _______ _____ _____    ______ ____
ROOT
ATOM      7  N   UNL     1      13.850   7.752  19.114  0.00  0.00    -0.287 NA
ATOM     11  C   UNL     1      13.000   8.235  18.008  0.00  0.00    +0.146 C 
ATOM     12  C   UNL     1      11.648   8.564  18.670  0.00  0.00    +0.030 C 
ATOM     13  C   UNL     1      11.816   8.176  20.132  0.00  0.00    +0.017 C 
ATOM     14  C   UNL     1      12.947   7.168  20.106  0.00  0.00    +0.085 C 
ENDROOT
BRANCH  11  16
ATOM      2  O   UNL     1      13.369  10.644  17.834  0.00  0.00    -0.336 OA
ATOM      8  N   UNL     1      14.323   9.452  16.195  0.00  0.00    -0.189 NA
ATOM      9  N   UNL     1      14.013  11.571  17.003  0.00  0.00    -0.054 NA
ATOM     16  C   UNL     1      13.601   9.423  17.287  0.00  0.00    +0.245 A 
ATOM     20  C   UNL     1      14.552  10.791  16.060  0.00  0.00    +0.221 A 
BRANCH  20  24
ATOM     10  N   UNL     1      14.668  11.453  13.800  0.00  0.00    -0.252 NA
ATOM     24  C   UNL     1      15.325  11.318  14.973  0.00  0.00    +0.115 A 
ATOM     26  C   UNL     1      16.656  11.653  15.160  0.00  0.00    +0.077 A 
ATOM     27  C   UNL     1      17.359  12.159  14.072  0.00  0.00    +0.124 A 
ATOM     28  C   UNL     1      15.383  11.948  12.764  0.00  0.00    +0.115 A 
ATOM     29  C   UNL     1      16.717  12.313  12.848  0.00  0.00    +0.065 A 
BRANCH  27   5
ATOM      5  O   UNL     1      18.668  12.505  14.205  0.00  0.00    -0.490 OA
BRANCH   5  30
ATOM     30  C   UNL     1      19.593  11.452  14.475  0.00  0.00    +0.257 C 
BRANCH  30  31
ATOM     31  C   UNL     1      20.646  11.426  13.383  0.00  0.00    +0.200 C 
BRANCH  31   6
ATOM      6  O   UNL     1      21.899  11.072  13.956  0.00  0.00    -0.380 OA
ATOM     32  C   UNL     1      22.706  12.217  14.191  0.00  0.00    +0.194 C 
ENDBRANCH  31   6
ENDBRANCH  30  31
ENDBRANCH   5  30
ENDBRANCH  27   5
ENDBRANCH  20  24
ENDBRANCH  11  16
BRANCH   7  15
ATOM     15  C   UNL     1      14.873   6.808  18.681  0.00  0.00    +0.120 C 
BRANCH  15  17
ATOM     17  C   UNL     1      16.133   6.933  19.497  0.00  0.00    -0.033 A 
ATOM     18  C   UNL     1      17.172   6.020  19.320  0.00  0.00    +0.007 A 
ATOM     19  C   UNL     1      16.261   7.964  20.428  0.00  0.00    +0.007 A 
ATOM     21  C   UNL     1      18.339   6.136  20.074  0.00  0.00    +0.027 A 
ATOM     22  C   UNL     1      17.428   8.080  21.184  0.00  0.00    +0.027 A 
ATOM     23  C   UNL     1      18.467   7.167  21.006  0.00  0.00    +0.088 A 
BRANCH  23   1
ATOM      1  S   UNL     1      19.930   7.314  21.948  0.00  0.00    -0.006 S 
ATOM      3  O   UNL     1      20.061   8.691  22.404  0.00  0.00    -0.170 OA
ATOM      4  O   UNL     1      19.951   6.227  22.917  0.00  0.00    -0.170 OA
ATOM     25  C   UNL     1      21.239   7.030  20.778  0.00  0.00    +0.200 C 
ENDBRANCH  23   1
ENDBRANCH  15  17
ENDBRANCH   7  15
TORSDOF 9
ENDMDL
MODEL 5
REMARK VINA RESULT:      -6.4      4.403      9.306
REMARK  Name = 45783467
REMARK  11 active torsions:
REMARK  status: ('A' for Active; 'I' for Inactive)
REMARK    1  A    between atoms: S_1  and  C_23
REMARK    2  A    between atoms: S_1  and  C_25
REMARK    3  A    between atoms: O_5  and  C_27
REMARK    4  A    between atoms: O_5  and  C_30
REMARK    5  A    between atoms: O_6  and  C_31
REMARK    6  A    between atoms: O_6  and  C_32
REMARK    7  A    between atoms: N_7  and  C_15
REMARK    8  A    between atoms: C_11  and  C_16
REMARK    9  A    between atoms: C_15  and  C_17
REMARK   10  A    between atoms: C_20  and  C_24
REMARK   11  A    between atoms: C_30  and  C_31
REMARK                            x       y       z     vdW  Elec       q    Type
REMARK                         _______ _______ _______ _____ _____    ______ ____
ROOT
ATOM      7  N   UNL     1      13.360   7.791  20.214  0.00  0.00    -0.287 NA
ATOM     11  C   UNL     1      12.412   8.422  19.275  0.00  0.00    +0.146 C 
ATOM     12  C   UNL     1      11.219   8.848  20.152  0.00  0.00    +0.030 C 
ATOM     13  C   UNL     1      11.561   8.360  21.552  0.00  0.00    +0.017 C 
ATOM     14  C   UNL     1      12.557   7.245  21.308  0.00  0.00    +0.085 C 
ENDROOT
BRANCH  11  16
ATOM      2  O   UNL     1      13.132  10.756  19.196  0.00  0.00    -0.336 OA
ATOM      8  N   UNL     1      13.475   9.629  17.291  0.00  0.00    -0.189 NA
ATOM      9  N   UNL     1      13.717  11.666  18.305  0.00  0.00    -0.054 NA
ATOM     16  C   UNL     1      13.025   9.583  18.520  0.00  0.00    +0.245 A 
ATOM     20  C   UNL     1      13.890  10.926  17.205  0.00  0.00    +0.221 A 
BRANCH  20  24
ATOM     10  N   UNL     1      15.755  11.868  16.111  0.00  0.00    -0.252 NA
ATOM     24  C   UNL     1      14.473  11.453  16.005  0.00  0.00    +0.115 A 
ATOM     26  C   UNL     1      13.732  11.512  14.836  0.00  0.00    +0.077 A 
ATOM     27  C   UNL     1      14.347  12.031  13.702  0.00  0.00    +0.124 A 
ATOM     28  C   UNL     1      16.319  12.368  14.989  0.00  0.00    +0.115 A 
ATOM     29  C   UNL     1      15.665  12.470  13.771  0.00  0.00    +0.065 A 
BRANCH  27   5
ATOM      5  O   UNL     1      13.662  12.109  12.529  0.00  0.00    -0.490 OA
BRANCH   5  30
ATOM     30  C   UNL     1      12.305  12.545  12.597  0.00  0.00    +0.257 C 
BRANCH  30  31
ATOM     31  C   UNL     1      11.570  12.071  11.358  0.00  0.00    +0.200 C 
BRANCH  31   6
ATOM      6  O   UNL     1      10.229  11.750  11.708  0.00  0.00    -0.380 OA
ATOM     32  C   UNL     1       9.401  11.647  10.558  0.00  0.00    +0.194 C 
ENDBRANCH  31   6
ENDBRANCH  30  31
ENDBRANCH   5  30
ENDBRANCH  27   5
ENDBRANCH  20  24
ENDBRANCH  11  16
BRANCH   7  15
ATOM     15  C   UNL     1      14.196   6.775  19.588  0.00  0.00    +0.120 C 
BRANCH  15  17
ATOM     17  C   UNL     1      15.641   6.911  19.991  0.00  0.00    -0.033 A 
ATOM     18  C   UNL     1      16.015   7.867  20.935  0.00  0.00    +0.007 A 
ATOM     19  C   UNL     1      16.605   6.080  19.421  0.00  0.00    +0.007 A 
ATOM     21  C   UNL     1      17.353   7.993  21.309  0.00  0.00    +0.027 A 
ATOM     22  C   UNL     1      17.944   6.206  19.794  0.00  0.00    +0.027 A 
ATOM     23  C   UNL     1      18.317   7.162  20.738  0.00  0.00    +0.088 A 
BRANCH  23   1
ATOM      1  S   UNL     1      19.991   7.318  21.209  0.00  0.00    -0.006 S 
ATOM      3  O   UNL     1      20.788   6.374  20.438  0.00  0.00    -0.170 OA
ATOM      4  O   UNL     1      20.332   8.733  21.193  0.00  0.00    -0.170 OA
ATOM     25  C   UNL     1      20.028   6.765  22.899  0.00  0.00    +0.200 C 
ENDBRANCH  23   1
ENDBRANCH  15  17
ENDBRANCH   7  15
TORSDOF 9
ENDMDL
MODEL 6
REMARK VINA RESULT:      -6.3      3.190      8.885
REMARK  Name = 45783467
REMARK  11 active torsions:
REMARK  status: ('A' for Active; 'I' for Inactive)
REMARK    1  A    between atoms: S_1  and  C_23
REMARK    2  A    between atoms: S_1  and  C_25
REMARK    3  A    between atoms: O_5  and  C_27
REMARK    4  A    between atoms: O_5  and  C_30
REMARK    5  A    between atoms: O_6  and  C_31
REMARK    6  A    between atoms: O_6  and  C_32
REMARK    7  A    between atoms: N_7  and  C_15
REMARK    8  A    between atoms: C_11  and  C_16
REMARK    9  A    between atoms: C_15  and  C_17
REMARK   10  A    between atoms: C_20  and  C_24
REMARK   11  A    between atoms: C_30  and  C_31
REMARK                            x       y       z     vdW  Elec       q    Type
REMARK                         _______ _______ _______ _____ _____    ______ ____
ROOT
ATOM      7  N   UNL     1      13.093   8.043  20.576  0.00  0.00    -0.287 NA
ATOM     11  C   UNL     1      11.830   8.764  20.328  0.00  0.00    +0.146 C 
ATOM     12  C   UNL     1      10.745   7.888  20.983  0.00  0.00    +0.030 C 
ATOM     13  C   UNL     1      11.486   6.671  21.518  0.00  0.00    +0.017 C 
ATOM     14  C   UNL     1      12.747   6.625  20.680  0.00  0.00    +0.085 C 
ENDROOT
BRANCH  11  16
ATOM      2  O   UNL     1      12.531  11.098  20.144  0.00  0.00    -0.336 OA
ATOM      8  N   UNL     1      11.298  10.654  21.960  0.00  0.00    -0.189 NA
ATOM      9  N   UNL     1      12.409  12.309  20.838  0.00  0.00    -0.054 NA
ATOM     16  C   UNL     1      11.848  10.177  20.873  0.00  0.00    +0.245 A 
ATOM     20  C   UNL     1      11.669  11.966  21.896  0.00  0.00    +0.221 A 
BRANCH  20  24
ATOM     10  N   UNL     1      10.253  13.722  22.584  0.00  0.00    -0.252 NA
ATOM     24  C   UNL     1      11.283  12.909  22.906  0.00  0.00    +0.115 A 
ATOM     26  C   UNL     1      11.953  12.947  24.118  0.00  0.00    +0.077 A 
ATOM     27  C   UNL     1      11.537  13.880  25.061  0.00  0.00    +0.124 A 
ATOM     28  C   UNL     1       9.877  14.616  23.525  0.00  0.00    +0.115 A 
ATOM     29  C   UNL     1      10.480  14.735  24.767  0.00  0.00    +0.065 A 
BRANCH  27   5
ATOM      5  O   UNL     1      12.162  13.957  26.268  0.00  0.00    -0.490 OA
BRANCH   5  30
ATOM     30  C   UNL     1      13.582  14.092  26.256  0.00  0.00    +0.257 C 
BRANCH  30  31
ATOM     31  C   UNL     1      14.159  13.369  27.459  0.00  0.00    +0.200 C 
BRANCH  31   6
ATOM      6  O   UNL     1      15.240  12.549  27.033  0.00  0.00    -0.380 OA
ATOM     32  C   UNL     1      14.808  11.552  26.118  0.00  0.00    +0.194 C 
ENDBRANCH  31   6
ENDBRANCH  30  31
ENDBRANCH   5  30
ENDBRANCH  27   5
ENDBRANCH  20  24
ENDBRANCH  11  16
BRANCH   7  15
ATOM     15  C   UNL     1      14.103   8.287  19.554  0.00  0.00    +0.120 C 
BRANCH  15  17
ATOM     17  C   UNL     1      15.473   7.853  20.004  0.00  0.00    -0.033 A 
ATOM     18  C   UNL     1      16.092   8.496  21.077  0.00  0.00    +0.007 A 
ATOM     19  C   UNL     1      16.123   6.807  19.351  0.00  0.00    +0.007 A 
ATOM     21  C   UNL     1      17.360   8.094  21.494  0.00  0.00    +0.027 A 
ATOM     22  C   UNL     1      17.393   6.404  19.767  0.00  0.00    +0.027 A 
ATOM     23  C   UNL     1      18.010   7.048  20.840  0.00  0.00    +0.088 A 
BRANCH  23   1
ATOM      1  S   UNL     1      19.597   6.542  21.365  0.00  0.00    -0.006 S 
ATOM      3  O   UNL     1      19.563   6.299  22.802  0.00  0.00    -0.170 OA
ATOM      4  O   UNL     1      20.055   5.493  20.466  0.00  0.00    -0.170 OA
ATOM     25  C   UNL     1      20.624   7.971  21.108  0.00  0.00    +0.200 C 
ENDBRANCH  23   1
ENDBRANCH  15  17
ENDBRANCH   7  15
TORSDOF 9
ENDMDL
MODEL 7
REMARK VINA RESULT:      -6.3      3.018      8.593
REMARK  Name = 45783467
REMARK  11 active torsions:
REMARK  status: ('A' for Active; 'I' for Inactive)
REMARK    1  A    between atoms: S_1  and  C_23
REMARK    2  A    between atoms: S_1  and  C_25
REMARK    3  A    between atoms: O_5  and  C_27
REMARK    4  A    between atoms: O_5  and  C_30
REMARK    5  A    between atoms: O_6  and  C_31
REMARK    6  A    between atoms: O_6  and  C_32
REMARK    7  A    between atoms: N_7  and  C_15
REMARK    8  A    between atoms: C_11  and  C_16
REMARK    9  A    between atoms: C_15  and  C_17
REMARK   10  A    between atoms: C_20  and  C_24
REMARK   11  A    between atoms: C_30  and  C_31
REMARK                            x       y       z     vdW  Elec       q    Type
REMARK                         _______ _______ _______ _____ _____    ______ ____
ROOT
ATOM      7  N   UNL     1      13.372   7.611  19.849  0.00  0.00    -0.287 NA
ATOM     11  C   UNL     1      12.550   8.748  19.391  0.00  0.00    +0.146 C 
ATOM     12  C   UNL     1      11.187   8.548  20.080  0.00  0.00    +0.030 C 
ATOM     13  C   UNL     1      11.320   7.243  20.853  0.00  0.00    +0.017 C 
ATOM     14  C   UNL     1      12.443   6.518  20.138  0.00  0.00    +0.085 C 
ENDROOT
BRANCH  11  16
ATOM      2  O   UNL     1      14.020  10.603  18.784  0.00  0.00    -0.336 OA
ATOM      8  N   UNL     1      13.029  10.838  20.778  0.00  0.00    -0.189 NA
ATOM      9  N   UNL     1      14.470  11.826  19.300  0.00  0.00    -0.054 NA
ATOM     16  C   UNL     1      13.177  10.088  19.716  0.00  0.00    +0.245 A 
ATOM     20  C   UNL     1      13.841  11.893  20.478  0.00  0.00    +0.221 A 
BRANCH  20  24
ATOM     10  N   UNL     1      15.072  13.792  21.143  0.00  0.00    -0.252 NA
ATOM     24  C   UNL     1      14.001  13.000  21.375  0.00  0.00    +0.115 A 
ATOM     26  C   UNL     1      13.092  13.206  22.401  0.00  0.00    +0.077 A 
ATOM     27  C   UNL     1      13.295  14.295  23.241  0.00  0.00    +0.124 A 
ATOM     28  C   UNL     1      15.237  14.840  21.981  0.00  0.00    +0.115 A 
ATOM     29  C   UNL     1      14.385  15.132  23.035  0.00  0.00    +0.065 A 
BRANCH  27   5
ATOM      5  O   UNL     1      12.429  14.540  24.262  0.00  0.00    -0.490 OA
BRANCH   5  30
ATOM     30  C   UNL     1      11.205  13.806  24.266  0.00  0.00    +0.257 C 
BRANCH  30  31
ATOM     31  C   UNL     1      11.048  13.113  25.606  0.00  0.00    +0.200 C 
BRANCH  31   6
ATOM      6  O   UNL     1      11.439  11.752  25.472  0.00  0.00    -0.380 OA
ATOM     32  C   UNL     1      10.935  11.181  24.273  0.00  0.00    +0.194 C 
ENDBRANCH  31   6
ENDBRANCH  30  31
ENDBRANCH   5  30
ENDBRANCH  27   5
ENDBRANCH  20  24
ENDBRANCH  11  16
BRANCH   7  15
ATOM     15  C   UNL     1      14.396   7.220  18.889  0.00  0.00    +0.120 C 
BRANCH  15  17
ATOM     17  C   UNL     1      15.750   7.089  19.535  0.00  0.00    -0.033 A 
ATOM     18  C   UNL     1      16.663   6.147  19.058  0.00  0.00    +0.007 A 
ATOM     19  C   UNL     1      16.093   7.910  20.609  0.00  0.00    +0.007 A 
ATOM     21  C   UNL     1      17.917   6.026  19.656  0.00  0.00    +0.027 A 
ATOM     22  C   UNL     1      17.347   7.789  21.208  0.00  0.00    +0.027 A 
ATOM     23  C   UNL     1      18.259   6.847  20.731  0.00  0.00    +0.088 A 
BRANCH  23   1
ATOM      1  S   UNL     1      19.830   6.698  21.477  0.00  0.00    -0.006 S 
ATOM      3  O   UNL     1      19.660   6.253  22.853  0.00  0.00    -0.170 OA
ATOM      4  O   UNL     1      20.685   5.940  20.574  0.00  0.00    -0.170 OA
ATOM     25  C   UNL     1      20.448   8.364  21.546  0.00  0.00    +0.200 C 
ENDBRANCH  23   1
ENDBRANCH  15  17
ENDBRANCH   7  15
TORSDOF 9
ENDMDL
MODEL 8
REMARK VINA RESULT:      -6.3     27.108     29.964
REMARK  Name = 45783467
REMARK  11 active torsions:
REMARK  status: ('A' for Active; 'I' for Inactive)
REMARK    1  A    between atoms: S_1  and  C_23
REMARK    2  A    between atoms: S_1  and  C_25
REMARK    3  A    between atoms: O_5  and  C_27
REMARK    4  A    between atoms: O_5  and  C_30
REMARK    5  A    between atoms: O_6  and  C_31
REMARK    6  A    between atoms: O_6  and  C_32
REMARK    7  A    between atoms: N_7  and  C_15
REMARK    8  A    between atoms: C_11  and  C_16
REMARK    9  A    between atoms: C_15  and  C_17
REMARK   10  A    between atoms: C_20  and  C_24
REMARK   11  A    between atoms: C_30  and  C_31
REMARK                            x       y       z     vdW  Elec       q    Type
REMARK                         _______ _______ _______ _____ _____    ______ ____
ROOT
ATOM      7  N   UNL     1     -12.333   9.279  20.697  0.00  0.00    -0.287 NA
ATOM     11  C   UNL     1     -12.945   8.159  19.956  0.00  0.00    +0.146 C 
ATOM     12  C   UNL     1     -11.907   7.787  18.881  0.00  0.00    +0.030 C 
ATOM     13  C   UNL     1     -10.775   8.790  19.057  0.00  0.00    +0.017 C 
ATOM     14  C   UNL     1     -11.440   9.958  19.757  0.00  0.00    +0.085 C 
ENDROOT
BRANCH  11  16
ATOM      2  O   UNL     1     -12.273   6.196  21.248  0.00  0.00    -0.336 OA
ATOM      8  N   UNL     1     -14.470   6.625  21.314  0.00  0.00    -0.189 NA
ATOM      9  N   UNL     1     -12.839   5.201  22.055  0.00  0.00    -0.054 NA
ATOM     16  C   UNL     1     -13.301   6.992  20.853  0.00  0.00    +0.245 A 
ATOM     20  C   UNL     1     -14.137   5.523  22.046  0.00  0.00    +0.221 A 
BRANCH  20  24
ATOM     10  N   UNL     1     -16.235   4.447  22.058  0.00  0.00    -0.252 NA
ATOM     24  C   UNL     1     -15.124   4.764  22.758  0.00  0.00    +0.115 A 
ATOM     26  C   UNL     1     -14.909   4.402  24.079  0.00  0.00    +0.077 A 
ATOM     27  C   UNL     1     -15.898   3.667  24.721  0.00  0.00    +0.124 A 
ATOM     28  C   UNL     1     -17.176   3.732  22.716  0.00  0.00    +0.115 A 
ATOM     29  C   UNL     1     -17.056   3.321  24.034  0.00  0.00    +0.065 A 
BRANCH  27   5
ATOM      5  O   UNL     1     -15.733   3.286  26.017  0.00  0.00    -0.490 OA
BRANCH   5  30
ATOM     30  C   UNL     1     -16.758   3.659  26.938  0.00  0.00    +0.257 C 
BRANCH  30  31
ATOM     31  C   UNL     1     -16.565   2.889  28.231  0.00  0.00    +0.200 C 
BRANCH  31   6
ATOM      6  O   UNL     1     -15.302   3.229  28.790  0.00  0.00    -0.380 OA
ATOM     32  C   UNL     1     -14.780   2.169  29.578  0.00  0.00    +0.194 C 
ENDBRANCH  31   6
ENDBRANCH  30  31
ENDBRANCH   5  30
ENDBRANCH  27   5
ENDBRANCH  20  24
ENDBRANCH  11  16
BRANCH   7  15
ATOM     15  C   UNL     1     -13.312  10.188  21.276  0.00  0.00    +0.120 C 
BRANCH  15  17
ATOM     17  C   UNL     1     -13.092  10.384  22.753  0.00  0.00    -0.033 A 
ATOM     18  C   UNL     1     -13.998   9.850  23.671  0.00  0.00    +0.007 A 
ATOM     19  C   UNL     1     -11.982  11.097  23.205  0.00  0.00    +0.007 A 
ATOM     21  C   UNL     1     -13.794  10.031  25.038  0.00  0.00    +0.027 A 
ATOM     22  C   UNL     1     -11.777  11.278  24.573  0.00  0.00    +0.027 A 
ATOM     23  C   UNL     1     -12.683  10.744  25.489  0.00  0.00    +0.088 A 
BRANCH  23   1
ATOM      1  S   UNL     1     -12.426  10.967  27.202  0.00  0.00    -0.006 S 
ATOM      3  O   UNL     1     -11.977  12.332  27.439  0.00  0.00    -0.170 OA
ATOM      4  O   UNL     1     -13.599  10.461  27.901  0.00  0.00    -0.170 OA
ATOM     25  C   UNL     1     -11.058   9.898  27.586  0.00  0.00    +0.200 C 
ENDBRANCH  23   1
ENDBRANCH  15  17
ENDBRANCH   7  15
TORSDOF 9
ENDMDL
MODEL 9
REMARK VINA RESULT:      -6.2     27.089     29.949
REMARK  Name = 45783467
REMARK  11 active torsions:
REMARK  status: ('A' for Active; 'I' for Inactive)
REMARK    1  A    between atoms: S_1  and  C_23
REMARK    2  A    between atoms: S_1  and  C_25
REMARK    3  A    between atoms: O_5  and  C_27
REMARK    4  A    between atoms: O_5  and  C_30
REMARK    5  A    between atoms: O_6  and  C_31
REMARK    6  A    between atoms: O_6  and  C_32
REMARK    7  A    between atoms: N_7  and  C_15
REMARK    8  A    between atoms: C_11  and  C_16
REMARK    9  A    between atoms: C_15  and  C_17
REMARK   10  A    between atoms: C_20  and  C_24
REMARK   11  A    between atoms: C_30  and  C_31
REMARK                            x       y       z     vdW  Elec       q    Type
REMARK                         _______ _______ _______ _____ _____    ______ ____
ROOT
ATOM      7  N   UNL     1      -3.918  -9.932  11.519  0.00  0.00    -0.287 NA
ATOM     11  C   UNL     1      -2.981 -10.759  12.304  0.00  0.00    +0.146 C 
ATOM     12  C   UNL     1      -1.583 -10.242  11.915  0.00  0.00    +0.030 C 
ATOM     13  C   UNL     1      -1.833  -9.170  10.864  0.00  0.00    +0.017 C 
ATOM     14  C   UNL     1      -3.199  -9.525  10.311  0.00  0.00    +0.085 C 
ENDROOT
BRANCH  11  16
ATOM      2  O   UNL     1      -2.146 -10.576  14.594  0.00  0.00    -0.336 OA
ATOM      8  N   UNL     1      -4.378 -10.693  14.441  0.00  0.00    -0.189 NA
ATOM      9  N   UNL     1      -2.631 -10.519  15.908  0.00  0.00    -0.054 NA
ATOM     16  C   UNL     1      -3.240 -10.678  13.794  0.00  0.00    +0.245 A 
ATOM     20  C   UNL     1      -3.954 -10.592  15.734  0.00  0.00    +0.221 A 
BRANCH  20  24
ATOM     10  N   UNL     1      -4.494 -11.246  17.935  0.00  0.00    -0.252 NA
ATOM     24  C   UNL     1      -4.878 -10.568  16.830  0.00  0.00    +0.115 A 
ATOM     26  C   UNL     1      -6.076  -9.880  16.719  0.00  0.00    +0.077 A 
ATOM     27  C   UNL     1      -6.935  -9.888  17.812  0.00  0.00    +0.124 A 
ATOM     28  C   UNL     1      -5.355 -11.232  18.977  0.00  0.00    +0.115 A 
ATOM     29  C   UNL     1      -6.575 -10.575  18.967  0.00  0.00    +0.065 A 
BRANCH  27   5
ATOM      5  O   UNL     1      -8.122  -9.226  17.754  0.00  0.00    -0.490 OA
BRANCH   5  30
ATOM     30  C   UNL     1      -8.668  -8.986  16.457  0.00  0.00    +0.257 C 
BRANCH  30  31
ATOM     31  C   UNL     1      -9.902  -8.115  16.593  0.00  0.00    +0.200 C 
BRANCH  31   6
ATOM      6  O   UNL     1     -10.054  -7.338  15.411  0.00  0.00    -0.380 OA
ATOM     32  C   UNL     1     -10.751  -6.128  15.670  0.00  0.00    +0.194 C 
ENDBRANCH  31   6
ENDBRANCH  30  31
ENDBRANCH   5  30
ENDBRANCH  27   5
ENDBRANCH  20  24
ENDBRANCH  11  16
BRANCH   7  15
ATOM     15  C   UNL     1      -5.166 -10.616  11.209  0.00  0.00    +0.120 C 
BRANCH  15  17
ATOM     17  C   UNL     1      -5.866  -9.999  10.026  0.00  0.00    -0.033 A 
ATOM     18  C   UNL     1      -6.461  -8.743  10.144  0.00  0.00    +0.007 A 
ATOM     19  C   UNL     1      -5.917 -10.683   8.812  0.00  0.00    +0.007 A 
ATOM     21  C   UNL     1      -7.109  -8.172   9.049  0.00  0.00    +0.027 A 
ATOM     22  C   UNL     1      -6.564 -10.113   7.716  0.00  0.00    +0.027 A 
ATOM     23  C   UNL     1      -7.160  -8.857   7.835  0.00  0.00    +0.088 A 
BRANCH  23   1
ATOM      1  S   UNL     1      -7.967  -8.140   6.463  0.00  0.00    -0.006 S 
ATOM      3  O   UNL     1      -8.357  -6.778   6.804  0.00  0.00    -0.170 OA
ATOM      4  O   UNL     1      -7.148  -8.382   5.283  0.00  0.00    -0.170 OA
ATOM     25  C   UNL     1      -9.467  -9.079   6.291  0.00  0.00    +0.200 C 
ENDBRANCH  23   1
ENDBRANCH  15  17
ENDBRANCH   7  15
TORSDOF 9
ENDMDL
MODEL 10
REMARK VINA RESULT:      -6.2      3.631     10.694
REMARK  Name = 45783467
REMARK  11 active torsions:
REMARK  status: ('A' for Active; 'I' for Inactive)
REMARK    1  A    between atoms: S_1  and  C_23
REMARK    2  A    between atoms: S_1  and  C_25
REMARK    3  A    between atoms: O_5  and  C_27
REMARK    4  A    between atoms: O_5  and  C_30
REMARK    5  A    between atoms: O_6  and  C_31
REMARK    6  A    between atoms: O_6  and  C_32
REMARK    7  A    between atoms: N_7  and  C_15
REMARK    8  A    between atoms: C_11  and  C_16
REMARK    9  A    between atoms: C_15  and  C_17
REMARK   10  A    between atoms: C_20  and  C_24
REMARK   11  A    between atoms: C_30  and  C_31
REMARK                            x       y       z     vdW  Elec       q    Type
REMARK                         _______ _______ _______ _____ _____    ______ ____
ROOT
ATOM      7  N   UNL     1      20.247   6.295  20.553  0.00  0.00    -0.287 NA
ATOM     11  C   UNL     1      18.985   6.537  21.278  0.00  0.00    +0.146 C 
ATOM     12  C   UNL     1      19.171   7.916  21.938  0.00  0.00    +0.030 C 
ATOM     13  C   UNL     1      20.588   8.341  21.578  0.00  0.00    +0.017 C 
ATOM     14  C   UNL     1      21.286   7.031  21.273  0.00  0.00    +0.085 C 
ENDROOT
BRANCH  11  16
ATOM      2  O   UNL     1      17.830   5.603  19.337  0.00  0.00    -0.336 OA
ATOM      8  N   UNL     1      16.659   7.166  20.433  0.00  0.00    -0.189 NA
ATOM      9  N   UNL     1      16.615   5.733  18.650  0.00  0.00    -0.054 NA
ATOM     16  C   UNL     1      17.773   6.482  20.372  0.00  0.00    +0.245 A 
ATOM     20  C   UNL     1      15.980   6.672  19.358  0.00  0.00    +0.221 A 
BRANCH  20  24
ATOM     10  N   UNL     1      14.572   7.826  17.857  0.00  0.00    -0.252 NA
ATOM     24  C   UNL     1      14.667   7.138  19.016  0.00  0.00    +0.115 A 
ATOM     26  C   UNL     1      13.593   6.874  19.852  0.00  0.00    +0.077 A 
ATOM     27  C   UNL     1      12.342   7.349  19.473  0.00  0.00    +0.124 A 
ATOM     28  C   UNL     1      13.341   8.272  17.521  0.00  0.00    +0.115 A 
ATOM     29  C   UNL     1      12.205   8.062  18.287  0.00  0.00    +0.065 A 
BRANCH  27   5
ATOM      5  O   UNL     1      11.256   7.115  20.258  0.00  0.00    -0.490 OA
BRANCH   5  30
ATOM     30  C   UNL     1      11.482   7.010  21.664  0.00  0.00    +0.257 C 
BRANCH  30  31
ATOM     31  C   UNL     1      10.689   8.090  22.375  0.00  0.00    +0.200 C 
BRANCH  31   6
ATOM      6  O   UNL     1      11.225   9.362  22.031  0.00  0.00    -0.380 OA
ATOM     32  C   UNL     1      10.931  10.336  23.022  0.00  0.00    +0.194 C 
ENDBRANCH  31   6
ENDBRANCH  30  31
ENDBRANCH   5  30
ENDBRANCH  27   5
ENDBRANCH  20  24
ENDBRANCH  11  16
BRANCH   7  15
ATOM     15  C   UNL     1      20.570   4.880  20.419  0.00  0.00    +0.120 C 
BRANCH  15  17
ATOM     17  C   UNL     1      21.890   4.542  21.061  0.00  0.00    -0.033 A 
ATOM     18  C   UNL     1      23.083   4.811  20.389  0.00  0.00    +0.007 A 
ATOM     19  C   UNL     1      21.921   3.963  22.330  0.00  0.00    +0.007 A 
ATOM     21  C   UNL     1      24.305   4.499  20.983  0.00  0.00    +0.027 A 
ATOM     22  C   UNL     1      23.143   3.650  22.925  0.00  0.00    +0.027 A 
ATOM     23  C   UNL     1      24.334   3.919  22.252  0.00  0.00    +0.088 A 
BRANCH  23   1
ATOM      1  S   UNL     1      25.865   3.532  22.998  0.00  0.00    -0.006 S 
ATOM      3  O   UNL     1      26.672   2.771  22.053  0.00  0.00    -0.170 OA
ATOM      4  O   UNL     1      26.400   4.753  23.584  0.00  0.00    -0.170 OA
ATOM     25  C   UNL     1      25.444   2.426  24.325  0.00  0.00    +0.200 C 
ENDBRANCH  23   1
ENDBRANCH  15  17
ENDBRANCH   7  15
TORSDOF 9
ENDMDL
