MODEL 1
REMARK VINA RESULT:      -8.7      0.000      0.000
REMARK  Name = 11866214
REMARK  4 active torsions:
REMARK  status: ('A' for Active; 'I' for Inactive)
REMARK    1  A    between atoms: C_10  and  C_18
REMARK    2  A    between atoms: C_15  and  C_22
REMARK    3  A    between atoms: C_17  and  C_23
REMARK    4  A    between atoms: C_25  and  C_26
REMARK                            x       y       z     vdW  Elec       q    Type
REMARK                         _______ _______ _______ _____ _____    ______ ____
ROOT
ATOM      2  S   UNL     1      17.412   5.837  19.009  0.00  0.00    -0.057 S 
ATOM      4  O   UNL     1      14.721  11.392  22.108  0.00  0.00    -0.461 OA
ATOM      5  O   UNL     1      13.871  13.394  22.857  0.00  0.00    -0.251 OA
ATOM      6  O   UNL     1      20.884   6.386  22.061  0.00  0.00    -0.270 OA
ATOM      7  N   UNL     1      18.219   7.189  21.061  0.00  0.00    -0.229 NA
ATOM      8  N   UNL     1      19.705   5.483  20.231  0.00  0.00    -0.261 N 
ATOM      9  C   UNL     1      15.041   9.304  20.733  0.00  0.00    +0.045 C 
ATOM     10  C   UNL     1      14.175   8.123  20.111  0.00  0.00    -0.021 C 
ATOM     11  C   UNL     1      14.127  10.202  21.586  0.00  0.00    +0.184 C 
ATOM     12  C   UNL     1      13.002  10.763  20.738  0.00  0.00    +0.044 C 
ATOM     13  C   UNL     1      12.918   8.688  19.381  0.00  0.00    +0.008 C 
ATOM     14  C   UNL     1      12.090   9.665  20.228  0.00  0.00    +0.008 C 
ATOM     15  C   UNL     1      16.317   8.785  21.490  0.00  0.00    +0.043 C 
ATOM     16  C   UNL     1      15.040   7.354  19.065  0.00  0.00    +0.051 C 
ATOM     17  C   UNL     1      12.431  11.801  21.684  0.00  0.00    +0.101 C 
ATOM     18  C   UNL     1      13.692   7.119  21.192  0.00  0.00    +0.012 C 
ATOM     19  C   UNL     1      16.976   7.679  20.704  0.00  0.00    +0.057 A 
ATOM     20  C   UNL     1      16.385   7.045  19.628  0.00  0.00    +0.015 A 
ATOM     21  C   UNL     1      13.721  12.323  22.289  0.00  0.00    +0.311 C 
ATOM     22  C   UNL     1      17.323   9.908  21.777  0.00  0.00    +0.014 C 
ATOM     23  C   UNL     1      11.637  12.884  20.978  0.00  0.00    +0.019 C 
ATOM     24  C   UNL     1      18.553   6.223  20.233  0.00  0.00    +0.165 A 
ATOM     25  C   UNL     1      20.782   5.602  21.124  0.00  0.00    +0.250 C 
ATOM     32  H   UNL     1      19.716   4.759  19.520  0.00  0.00    +0.157 HD
ENDROOT
BRANCH  25  26
ATOM      1 CL   UNL     1      25.599   4.754  19.463  0.00  0.00    -0.081 Cl
ATOM      3  F   UNL     1      24.962   1.988  20.322  0.00  0.00    -0.204 F 
ATOM     26  C   UNL     1      21.898   4.643  20.907  0.00  0.00    +0.039 A 
ATOM     27  C   UNL     1      23.074   5.105  20.354  0.00  0.00    +0.036 A 
ATOM     28  C   UNL     1      21.720   3.325  21.270  0.00  0.00    +0.016 A 
ATOM     29  C   UNL     1      24.120   4.205  20.153  0.00  0.00    +0.077 A 
ATOM     30  C   UNL     1      22.767   2.425  21.069  0.00  0.00    +0.040 A 
ATOM     31  C   UNL     1      23.967   2.865  20.510  0.00  0.00    +0.142 A 
ENDBRANCH  25  26
TORSDOF 1
ENDMDL
MODEL 2
REMARK VINA RESULT:      -7.8     30.016     32.777
REMARK  Name = 11866214
REMARK  4 active torsions:
REMARK  status: ('A' for Active; 'I' for Inactive)
REMARK    1  A    between atoms: C_10  and  C_18
REMARK    2  A    between atoms: C_15  and  C_22
REMARK    3  A    between atoms: C_17  and  C_23
REMARK    4  A    between atoms: C_25  and  C_26
REMARK                            x       y       z     vdW  Elec       q    Type
REMARK                         _______ _______ _______ _____ _____    ______ ____
ROOT
ATOM      2  S   UNL     1      -6.764 -10.762  19.015  0.00  0.00    -0.057 S 
ATOM      4  O   UNL     1      -4.850 -10.209  12.402  0.00  0.00    -0.461 OA
ATOM      5  O   UNL     1      -4.126  -9.721  10.274  0.00  0.00    -0.251 OA
ATOM      6  O   UNL     1     -11.059 -11.146  17.261  0.00  0.00    -0.270 OA
ATOM      7  N   UNL     1      -8.139 -10.948  16.833  0.00  0.00    -0.229 NA
ATOM      8  N   UNL     1      -9.377 -10.954  18.900  0.00  0.00    -0.261 N 
ATOM      9  C   UNL     1      -4.857 -10.534  14.901  0.00  0.00    +0.045 C 
ATOM     10  C   UNL     1      -3.966 -11.208  16.034  0.00  0.00    -0.021 C 
ATOM     11  C   UNL     1      -4.248 -10.855  13.525  0.00  0.00    +0.184 C 
ATOM     12  C   UNL     1      -2.822 -10.345  13.448  0.00  0.00    +0.044 C 
ATOM     13  C   UNL     1      -2.465 -10.822  15.856  0.00  0.00    +0.008 C 
ATOM     14  C   UNL     1      -1.923 -11.057  14.439  0.00  0.00    +0.008 C 
ATOM     15  C   UNL     1      -6.379 -10.901  15.030  0.00  0.00    +0.043 C 
ATOM     16  C   UNL     1      -4.438 -10.692  17.428  0.00  0.00    +0.051 C 
ATOM     17  C   UNL     1      -2.545 -10.510  11.966  0.00  0.00    +0.101 C 
ATOM     18  C   UNL     1      -4.068 -12.757  16.015  0.00  0.00    +0.012 C 
ATOM     19  C   UNL     1      -6.806 -10.853  16.476  0.00  0.00    +0.057 A 
ATOM     20  C   UNL     1      -5.923 -10.769  17.535  0.00  0.00    +0.015 A 
ATOM     21  C   UNL     1      -3.897 -10.095  11.414  0.00  0.00    +0.311 C 
ATOM     22  C   UNL     1      -7.274  -9.989  14.179  0.00  0.00    +0.014 C 
ATOM     23  C   UNL     1      -1.414  -9.632  11.465  0.00  0.00    +0.019 C 
ATOM     24  C   UNL     1      -8.237 -10.902  18.144  0.00  0.00    +0.165 A 
ATOM     25  C   UNL     1     -10.694 -11.071  18.429  0.00  0.00    +0.250 C 
ATOM     32  H   UNL     1      -9.197 -10.948  19.899  0.00  0.00    +0.157 HD
ENDROOT
BRANCH  25  26
ATOM      1 CL   UNL     1     -14.716  -8.841  20.782  0.00  0.00    -0.081 Cl
ATOM      3  F   UNL     1     -14.630 -11.337  22.382  0.00  0.00    -0.204 F 
ATOM     26  C   UNL     1     -11.744 -11.136  19.481  0.00  0.00    +0.039 A 
ATOM     27  C   UNL     1     -12.622 -10.082  19.611  0.00  0.00    +0.036 A 
ATOM     28  C   UNL     1     -11.804 -12.252  20.289  0.00  0.00    +0.016 A 
ATOM     29  C   UNL     1     -13.607 -10.145  20.597  0.00  0.00    +0.077 A 
ATOM     30  C   UNL     1     -12.789 -12.315  21.276  0.00  0.00    +0.040 A 
ATOM     31  C   UNL     1     -13.690 -11.261  21.429  0.00  0.00    +0.142 A 
ENDBRANCH  25  26
TORSDOF 1
ENDMDL
MODEL 3
REMARK VINA RESULT:      -7.7     30.264     32.928
REMARK  Name = 11866214
REMARK  4 active torsions:
REMARK  status: ('A' for Active; 'I' for Inactive)
REMARK    1  A    between atoms: C_10  and  C_18
REMARK    2  A    between atoms: C_15  and  C_22
REMARK    3  A    between atoms: C_17  and  C_23
REMARK    4  A    between atoms: C_25  and  C_26
REMARK                            x       y       z     vdW  Elec       q    Type
REMARK                         _______ _______ _______ _____ _____    ______ ____
ROOT
ATOM      2  S   UNL     1      -5.345 -10.699   7.025  0.00  0.00    -0.057 S 
ATOM      4  O   UNL     1      -5.879  -9.770  13.849  0.00  0.00    -0.461 OA
ATOM      5  O   UNL     1      -6.175  -9.764  16.130  0.00  0.00    -0.251 OA
ATOM      6  O   UNL     1      -8.614  -7.394   6.783  0.00  0.00    -0.270 OA
ATOM      7  N   UNL     1      -6.733  -9.005   8.400  0.00  0.00    -0.229 NA
ATOM      8  N   UNL     1      -7.136  -9.066   6.025  0.00  0.00    -0.261 N 
ATOM      9  C   UNL     1      -5.084 -10.432  11.550  0.00  0.00    +0.045 C 
ATOM     10  C   UNL     1      -3.735 -10.832  10.808  0.00  0.00    -0.021 C 
ATOM     11  C   UNL     1      -4.760 -10.029  13.000  0.00  0.00    +0.184 C 
ATOM     12  C   UNL     1      -4.079 -11.173  13.724  0.00  0.00    +0.044 C 
ATOM     13  C   UNL     1      -2.942 -11.888  11.638  0.00  0.00    +0.008 C 
ATOM     14  C   UNL     1      -2.733 -11.498  13.108  0.00  0.00    +0.008 C 
ATOM     15  C   UNL     1      -5.916  -9.360  10.758  0.00  0.00    +0.043 C 
ATOM     16  C   UNL     1      -4.083 -11.463   9.424  0.00  0.00    +0.051 C 
ATOM     17  C   UNL     1      -4.120 -10.664  15.152  0.00  0.00    +0.101 C 
ATOM     18  C   UNL     1      -2.808  -9.609  10.578  0.00  0.00    +0.012 C 
ATOM     19  C   UNL     1      -5.915  -9.685   9.285  0.00  0.00    +0.057 A 
ATOM     20  C   UNL     1      -5.081 -10.622   8.706  0.00  0.00    +0.015 A 
ATOM     21  C   UNL     1      -5.498 -10.026  15.148  0.00  0.00    +0.311 C 
ATOM     22  C   UNL     1      -7.356  -9.238  11.275  0.00  0.00    +0.014 C 
ATOM     23  C   UNL     1      -3.991 -11.766  16.187  0.00  0.00    +0.019 C 
ATOM     24  C   UNL     1      -6.525  -9.462   7.185  0.00  0.00    +0.165 A 
ATOM     25  C   UNL     1      -8.124  -8.077   5.891  0.00  0.00    +0.250 C 
ATOM     32  H   UNL     1      -6.774  -9.533   5.200  0.00  0.00    +0.157 HD
ENDROOT
BRANCH  25  26
ATOM      1 CL   UNL     1     -11.869  -6.440   2.732  0.00  0.00    -0.081 Cl
ATOM      3  F   UNL     1      -9.862  -7.148   0.666  0.00  0.00    -0.204 F 
ATOM     26  C   UNL     1      -8.592  -7.829   4.501  0.00  0.00    +0.039 A 
ATOM     27  C   UNL     1      -9.856  -7.314   4.307  0.00  0.00    +0.036 A 
ATOM     28  C   UNL     1      -7.744  -8.119   3.454  0.00  0.00    +0.016 A 
ATOM     29  C   UNL     1     -10.293  -7.080   3.003  0.00  0.00    +0.077 A 
ATOM     30  C   UNL     1      -8.181  -7.885   2.150  0.00  0.00    +0.040 A 
ATOM     31  C   UNL     1      -9.456  -7.365   1.925  0.00  0.00    +0.142 A 
ENDBRANCH  25  26
TORSDOF 1
ENDMDL
MODEL 4
REMARK VINA RESULT:      -7.5     30.523     32.669
REMARK  Name = 11866214
REMARK  4 active torsions:
REMARK  status: ('A' for Active; 'I' for Inactive)
REMARK    1  A    between atoms: C_10  and  C_18
REMARK    2  A    between atoms: C_15  and  C_22
REMARK    3  A    between atoms: C_17  and  C_23
REMARK    4  A    between atoms: C_25  and  C_26
REMARK                            x       y       z     vdW  Elec       q    Type
REMARK                         _______ _______ _______ _____ _____    ______ ____
ROOT
ATOM      2  S   UNL     1      -8.360  -9.148  16.956  0.00  0.00    -0.057 S 
ATOM      4  O   UNL     1     -11.128 -13.461  21.586  0.00  0.00    -0.461 OA
ATOM      5  O   UNL     1     -11.964 -14.678  23.350  0.00  0.00    -0.251 OA
ATOM      6  O   UNL     1      -5.238 -12.546  16.340  0.00  0.00    -0.270 OA
ATOM      7  N   UNL     1      -7.731 -11.573  17.599  0.00  0.00    -0.229 NA
ATOM      8  N   UNL     1      -6.241 -10.427  16.091  0.00  0.00    -0.261 N 
ATOM      9  C   UNL     1     -10.749 -11.574  19.959  0.00  0.00    +0.045 C 
ATOM     10  C   UNL     1     -11.592 -10.553  19.076  0.00  0.00    -0.021 C 
ATOM     11  C   UNL     1     -11.712 -12.560  20.645  0.00  0.00    +0.184 C 
ATOM     12  C   UNL     1     -12.706 -11.808  21.510  0.00  0.00    +0.044 C 
ATOM     13  C   UNL     1     -12.730  -9.903  19.922  0.00  0.00    +0.008 C 
ATOM     14  C   UNL     1     -13.603 -10.915  20.677  0.00  0.00    +0.008 C 
ATOM     15  C   UNL     1      -9.594 -12.265  19.149  0.00  0.00    +0.043 C 
ATOM     16  C   UNL     1     -10.650  -9.416  18.573  0.00  0.00    +0.051 C 
ATOM     17  C   UNL     1     -13.333 -12.958  22.276  0.00  0.00    +0.101 C 
ATOM     18  C   UNL     1     -12.242 -11.242  17.846  0.00  0.00    +0.012 C 
ATOM     19  C   UNL     1      -8.901 -11.257  18.266  0.00  0.00    +0.057 A 
ATOM     20  C   UNL     1      -9.394  -9.991  18.013  0.00  0.00    +0.015 A 
ATOM     21  C   UNL     1     -12.097 -13.809  22.501  0.00  0.00    +0.311 C 
ATOM     22  C   UNL     1      -8.576 -12.963  20.061  0.00  0.00    +0.014 C 
ATOM     23  C   UNL     1     -13.990 -12.526  23.574  0.00  0.00    +0.019 C 
ATOM     24  C   UNL     1      -7.350 -10.535  16.887  0.00  0.00    +0.165 A 
ATOM     25  C   UNL     1      -5.269 -11.416  15.866  0.00  0.00    +0.250 C 
ATOM     32  H   UNL     1      -6.181  -9.540  15.601  0.00  0.00    +0.157 HD
ENDROOT
BRANCH  25  26
ATOM      1 CL   UNL     1      -3.862  -9.996  11.103  0.00  0.00    -0.081 Cl
ATOM      3  F   UNL     1      -1.172  -9.990  12.350  0.00  0.00    -0.204 F 
ATOM     26  C   UNL     1      -4.181 -11.037  14.926  0.00  0.00    +0.039 A 
ATOM     27  C   UNL     1      -4.505 -10.734  13.620  0.00  0.00    +0.036 A 
ATOM     28  C   UNL     1      -2.884 -10.997  15.392  0.00  0.00    +0.016 A 
ATOM     29  C   UNL     1      -3.485 -10.377  12.739  0.00  0.00    +0.077 A 
ATOM     30  C   UNL     1      -1.863 -10.639  14.511  0.00  0.00    +0.040 A 
ATOM     31  C   UNL     1      -2.164 -10.330  13.185  0.00  0.00    +0.142 A 
ENDBRANCH  25  26
TORSDOF 1
ENDMDL
MODEL 5
REMARK VINA RESULT:      -7.4     29.703     32.225
REMARK  Name = 11866214
REMARK  4 active torsions:
REMARK  status: ('A' for Active; 'I' for Inactive)
REMARK    1  A    between atoms: C_10  and  C_18
REMARK    2  A    between atoms: C_15  and  C_22
REMARK    3  A    between atoms: C_17  and  C_23
REMARK    4  A    between atoms: C_25  and  C_26
REMARK                            x       y       z     vdW  Elec       q    Type
REMARK                         _______ _______ _______ _____ _____    ______ ____
ROOT
ATOM      2  S   UNL     1      -4.460 -11.810   8.505  0.00  0.00    -0.057 S 
ATOM      4  O   UNL     1      -5.538  -9.923  15.061  0.00  0.00    -0.461 OA
ATOM      5  O   UNL     1      -6.024  -9.590  17.285  0.00  0.00    -0.251 OA
ATOM      6  O   UNL     1      -7.592  -8.509   7.523  0.00  0.00    -0.270 OA
ATOM      7  N   UNL     1      -5.905  -9.913   9.506  0.00  0.00    -0.229 NA
ATOM      8  N   UNL     1      -6.109 -10.299   7.136  0.00  0.00    -0.261 N 
ATOM      9  C   UNL     1      -4.573 -10.916  12.955  0.00  0.00    +0.045 C 
ATOM     10  C   UNL     1      -3.180 -11.442  12.396  0.00  0.00    -0.021 C 
ATOM     11  C   UNL     1      -4.360 -10.319  14.358  0.00  0.00    +0.184 C 
ATOM     12  C   UNL     1      -3.778 -11.364  15.290  0.00  0.00    +0.044 C 
ATOM     13  C   UNL     1      -2.493 -12.386  13.431  0.00  0.00    +0.008 C 
ATOM     14  C   UNL     1      -2.396 -11.798  14.845  0.00  0.00    +0.008 C 
ATOM     15  C   UNL     1      -5.302  -9.950  11.952  0.00  0.00    +0.043 C 
ATOM     16  C   UNL     1      -3.429 -12.254  11.088  0.00  0.00    +0.051 C 
ATOM     17  C   UNL     1      -3.924 -10.659  16.625  0.00  0.00    +0.101 C 
ATOM     18  C   UNL     1      -2.198 -10.281  12.082  0.00  0.00    +0.012 C 
ATOM     19  C   UNL     1      -5.187 -10.478  10.544  0.00  0.00    +0.057 A 
ATOM     20  C   UNL     1      -4.337 -11.503  10.175  0.00  0.00    +0.015 A 
ATOM     21  C   UNL     1      -5.275 -10.001  16.411  0.00  0.00    +0.311 C 
ATOM     22  C   UNL     1      -6.775  -9.728  12.319  0.00  0.00    +0.014 C 
ATOM     23  C   UNL     1      -3.917 -11.607  17.809  0.00  0.00    +0.019 C 
ATOM     24  C   UNL     1      -5.610 -10.539   8.388  0.00  0.00    +0.165 A 
ATOM     25  C   UNL     1      -7.050  -9.319   6.780  0.00  0.00    +0.250 C 
ATOM     32  H   UNL     1      -5.693 -10.884   6.418  0.00  0.00    +0.157 HD
ENDROOT
BRANCH  25  26
ATOM      1 CL   UNL     1      -8.958  -6.615   2.813  0.00  0.00    -0.081 Cl
ATOM      3  F   UNL     1      -8.321  -9.112   1.346  0.00  0.00    -0.204 F 
ATOM     26  C   UNL     1      -7.392  -9.260   5.334  0.00  0.00    +0.039 A 
ATOM     27  C   UNL     1      -7.945  -8.102   4.828  0.00  0.00    +0.036 A 
ATOM     28  C   UNL     1      -7.139 -10.363   4.546  0.00  0.00    +0.016 A 
ATOM     29  C   UNL     1      -8.263  -8.047   3.471  0.00  0.00    +0.077 A 
ATOM     30  C   UNL     1      -7.457 -10.307   3.189  0.00  0.00    +0.040 A 
ATOM     31  C   UNL     1      -8.019  -9.149   2.652  0.00  0.00    +0.142 A 
ENDBRANCH  25  26
TORSDOF 1
ENDMDL
MODEL 6
REMARK VINA RESULT:      -7.3     30.134     32.353
REMARK  Name = 11866214
REMARK  4 active torsions:
REMARK  status: ('A' for Active; 'I' for Inactive)
REMARK    1  A    between atoms: C_10  and  C_18
REMARK    2  A    between atoms: C_15  and  C_22
REMARK    3  A    between atoms: C_17  and  C_23
REMARK    4  A    between atoms: C_25  and  C_26
REMARK                            x       y       z     vdW  Elec       q    Type
REMARK                         _______ _______ _______ _____ _____    ______ ____
ROOT
ATOM      2  S   UNL     1      -7.792  -9.121  11.024  0.00  0.00    -0.057 S 
ATOM      4  O   UNL     1      -7.511  -9.823   4.159  0.00  0.00    -0.461 OA
ATOM      5  O   UNL     1      -7.630 -10.299   1.912  0.00  0.00    -0.251 OA
ATOM      6  O   UNL     1      -3.348 -10.499  10.886  0.00  0.00    -0.270 OA
ATOM      7  N   UNL     1      -5.819  -9.715   9.462  0.00  0.00    -0.229 NA
ATOM      8  N   UNL     1      -5.414  -9.874  11.832  0.00  0.00    -0.261 N 
ATOM      9  C   UNL     1      -8.196  -9.200   6.503  0.00  0.00    +0.045 C 
ATOM     10  C   UNL     1      -9.086  -8.114   7.252  0.00  0.00    -0.021 C 
ATOM     11  C   UNL     1      -8.158  -8.867   5.000  0.00  0.00    +0.184 C 
ATOM     12  C   UNL     1      -9.562  -8.851   4.429  0.00  0.00    +0.044 C 
ATOM     13  C   UNL     1     -10.476  -7.969   6.560  0.00  0.00    +0.008 C 
ATOM     14  C   UNL     1     -10.398  -7.746   5.043  0.00  0.00    +0.008 C 
ATOM     15  C   UNL     1      -6.779  -9.376   7.156  0.00  0.00    +0.043 C 
ATOM     16  C   UNL     1      -9.322  -8.577   8.723  0.00  0.00    +0.051 C 
ATOM     17  C   UNL     1      -9.259  -8.793   2.944  0.00  0.00    +0.101 C 
ATOM     18  C   UNL     1      -8.412  -6.716   7.272  0.00  0.00    +0.012 C 
ATOM     19  C   UNL     1      -6.896  -9.382   8.661  0.00  0.00    +0.057 A 
ATOM     20  C   UNL     1      -8.039  -9.013   9.343  0.00  0.00    +0.015 A 
ATOM     21  C   UNL     1      -8.061  -9.724   2.899  0.00  0.00    +0.311 C 
ATOM     22  C   UNL     1      -6.066 -10.646   6.673  0.00  0.00    +0.014 C 
ATOM     23  C   UNL     1     -10.407  -9.276   2.078  0.00  0.00    +0.019 C 
ATOM     24  C   UNL     1      -6.177  -9.621  10.724  0.00  0.00    +0.165 A 
ATOM     25  C   UNL     1      -4.072 -10.289  11.852  0.00  0.00    +0.250 C 
ATOM     32  H   UNL     1      -5.897  -9.686  12.705  0.00  0.00    +0.157 HD
ENDROOT
BRANCH  25  26
ATOM      1 CL   UNL     1      -4.771 -11.265  16.876  0.00  0.00    -0.081 Cl
ATOM      3  F   UNL     1      -1.825 -10.929  16.924  0.00  0.00    -0.204 F 
ATOM     26  C   UNL     1      -3.478 -10.459  13.205  0.00  0.00    +0.039 A 
ATOM     27  C   UNL     1      -4.311 -10.747  14.266  0.00  0.00    +0.036 A 
ATOM     28  C   UNL     1      -2.114 -10.327  13.352  0.00  0.00    +0.016 A 
ATOM     29  C   UNL     1      -3.754 -10.908  15.534  0.00  0.00    +0.077 A 
ATOM     30  C   UNL     1      -1.556 -10.489  14.621  0.00  0.00    +0.040 A 
ATOM     31  C   UNL     1      -2.376 -10.779  15.711  0.00  0.00    +0.142 A 
ENDBRANCH  25  26
TORSDOF 1
ENDMDL
MODEL 7
REMARK VINA RESULT:      -7.2     29.702     31.974
REMARK  Name = 11866214
REMARK  4 active torsions:
REMARK  status: ('A' for Active; 'I' for Inactive)
REMARK    1  A    between atoms: C_10  and  C_18
REMARK    2  A    between atoms: C_15  and  C_22
REMARK    3  A    between atoms: C_17  and  C_23
REMARK    4  A    between atoms: C_25  and  C_26
REMARK                            x       y       z     vdW  Elec       q    Type
REMARK                         _______ _______ _______ _____ _____    ______ ____
ROOT
ATOM      2  S   UNL     1      -3.857 -11.432  10.840  0.00  0.00    -0.057 S 
ATOM      4  O   UNL     1      -8.330  -8.260   6.642  0.00  0.00    -0.461 OA
ATOM      5  O   UNL     1      -9.575  -7.003   5.172  0.00  0.00    -0.251 OA
ATOM      6  O   UNL     1      -6.645  -9.880  14.230  0.00  0.00    -0.270 OA
ATOM      7  N   UNL     1      -6.080 -10.212  11.346  0.00  0.00    -0.229 NA
ATOM      8  N   UNL     1      -4.768 -10.909  13.243  0.00  0.00    -0.261 N 
ATOM      9  C   UNL     1      -6.504  -9.729   7.569  0.00  0.00    +0.045 C 
ATOM     10  C   UNL     1      -5.712 -11.056   7.189  0.00  0.00    -0.021 C 
ATOM     11  C   UNL     1      -7.610  -9.488   6.526  0.00  0.00    +0.184 C 
ATOM     12  C   UNL     1      -7.008  -9.365   5.140  0.00  0.00    +0.044 C 
ATOM     13  C   UNL     1      -5.237 -11.007   5.704  0.00  0.00    +0.008 C 
ATOM     14  C   UNL     1      -6.348 -10.657   4.704  0.00  0.00    +0.008 C 
ATOM     15  C   UNL     1      -7.015  -9.733   9.055  0.00  0.00    +0.043 C 
ATOM     16  C   UNL     1      -4.451 -11.175   8.100  0.00  0.00    +0.051 C 
ATOM     17  C   UNL     1      -8.206  -8.861   4.359  0.00  0.00    +0.101 C 
ATOM     18  C   UNL     1      -6.581 -12.329   7.373  0.00  0.00    +0.012 C 
ATOM     19  C   UNL     1      -5.949 -10.282   9.971  0.00  0.00    +0.057 A 
ATOM     20  C   UNL     1      -4.815 -10.932   9.525  0.00  0.00    +0.015 A 
ATOM     21  C   UNL     1      -8.798  -7.920   5.391  0.00  0.00    +0.311 C 
ATOM     22  C   UNL     1      -7.456  -8.340   9.525  0.00  0.00    +0.014 C 
ATOM     23  C   UNL     1      -7.829  -8.153   3.071  0.00  0.00    +0.019 C 
ATOM     24  C   UNL     1      -5.033 -10.777  11.906  0.00  0.00    +0.165 A 
ATOM     25  C   UNL     1      -5.570 -10.464  14.307  0.00  0.00    +0.250 C 
ATOM     32  H   UNL     1      -3.916 -11.426  13.435  0.00  0.00    +0.157 HD
ENDROOT
BRANCH  25  26
ATOM      1 CL   UNL     1      -6.560 -11.711  19.221  0.00  0.00    -0.081 Cl
ATOM      3  F   UNL     1      -3.601 -11.615  19.404  0.00  0.00    -0.204 F 
ATOM     26  C   UNL     1      -5.050 -10.770  15.666  0.00  0.00    +0.039 A 
ATOM     27  C   UNL     1      -5.948 -11.059  16.672  0.00  0.00    +0.036 A 
ATOM     28  C   UNL     1      -3.688 -10.757  15.875  0.00  0.00    +0.016 A 
ATOM     29  C   UNL     1      -5.460 -11.348  17.946  0.00  0.00    +0.077 A 
ATOM     30  C   UNL     1      -3.199 -11.046  17.150  0.00  0.00    +0.040 A 
ATOM     31  C   UNL     1      -4.086 -11.341  18.185  0.00  0.00    +0.142 A 
ENDBRANCH  25  26
TORSDOF 1
ENDMDL
MODEL 8
REMARK VINA RESULT:      -7.1     30.212     32.487
REMARK  Name = 11866214
REMARK  4 active torsions:
REMARK  status: ('A' for Active; 'I' for Inactive)
REMARK    1  A    between atoms: C_10  and  C_18
REMARK    2  A    between atoms: C_15  and  C_22
REMARK    3  A    between atoms: C_17  and  C_23
REMARK    4  A    between atoms: C_25  and  C_26
REMARK                            x       y       z     vdW  Elec       q    Type
REMARK                         _______ _______ _______ _____ _____    ______ ____
ROOT
ATOM      2  S   UNL     1      -4.429 -11.420   9.077  0.00  0.00    -0.057 S 
ATOM      4  O   UNL     1      -8.871  -7.957   5.080  0.00  0.00    -0.461 OA
ATOM      5  O   UNL     1     -10.090  -6.648   3.634  0.00  0.00    -0.251 OA
ATOM      6  O   UNL     1      -6.573  -9.221  12.575  0.00  0.00    -0.270 OA
ATOM      7  N   UNL     1      -6.391  -9.852   9.691  0.00  0.00    -0.229 NA
ATOM      8  N   UNL     1      -4.980 -10.586  11.501  0.00  0.00    -0.261 N 
ATOM      9  C   UNL     1      -7.171  -9.603   5.948  0.00  0.00    +0.045 C 
ATOM     10  C   UNL     1      -6.617 -11.057   5.614  0.00  0.00    -0.021 C 
ATOM     11  C   UNL     1      -8.345  -9.283   5.005  0.00  0.00    +0.184 C 
ATOM     12  C   UNL     1      -7.892  -9.356   3.560  0.00  0.00    +0.044 C 
ATOM     13  C   UNL     1      -6.312 -11.192   4.090  0.00  0.00    +0.008 C 
ATOM     14  C   UNL     1      -7.470 -10.761   3.180  0.00  0.00    +0.008 C 
ATOM     15  C   UNL     1      -7.505  -9.418   7.472  0.00  0.00    +0.043 C 
ATOM     16  C   UNL     1      -5.289 -11.289   6.399  0.00  0.00    +0.051 C 
ATOM     17  C   UNL     1      -9.091  -8.744   2.861  0.00  0.00    +0.101 C 
ATOM     18  C   UNL     1      -7.626 -12.171   6.002  0.00  0.00    +0.012 C 
ATOM     19  C   UNL     1      -6.428 -10.046   8.322  0.00  0.00    +0.057 A 
ATOM     20  C   UNL     1      -5.452 -10.887   7.825  0.00  0.00    +0.015 A 
ATOM     21  C   UNL     1      -9.427  -7.649   3.858  0.00  0.00    +0.311 C 
ATOM     22  C   UNL     1      -7.694  -7.944   7.855  0.00  0.00    +0.014 C 
ATOM     23  C   UNL     1      -8.769  -8.199   1.482  0.00  0.00    +0.019 C 
ATOM     24  C   UNL     1      -5.375 -10.520  10.192  0.00  0.00    +0.165 A 
ATOM     25  C   UNL     1      -5.587  -9.948  12.595  0.00  0.00    +0.250 C 
ATOM     32  H   UNL     1      -4.191 -11.206  11.652  0.00  0.00    +0.157 HD
ENDROOT
BRANCH  25  26
ATOM      1 CL   UNL     1      -1.411 -11.364  15.287  0.00  0.00    -0.081 Cl
ATOM      3  F   UNL     1      -3.263 -10.967  17.570  0.00  0.00    -0.204 F 
ATOM     26  C   UNL     1      -4.964 -10.222  13.918  0.00  0.00    +0.039 A 
ATOM     27  C   UNL     1      -3.643 -10.615  13.962  0.00  0.00    +0.036 A 
ATOM     28  C   UNL     1      -5.728 -10.070  15.055  0.00  0.00    +0.016 A 
ATOM     29  C   UNL     1      -3.059 -10.869  15.203  0.00  0.00    +0.077 A 
ATOM     30  C   UNL     1      -5.143 -10.325  16.297  0.00  0.00    +0.040 A 
ATOM     31  C   UNL     1      -3.809 -10.725  16.370  0.00  0.00    +0.142 A 
ENDBRANCH  25  26
TORSDOF 1
ENDMDL
MODEL 9
REMARK VINA RESULT:      -7.1     30.540     33.583
REMARK  Name = 11866214
REMARK  4 active torsions:
REMARK  status: ('A' for Active; 'I' for Inactive)
REMARK    1  A    between atoms: C_10  and  C_18
REMARK    2  A    between atoms: C_15  and  C_22
REMARK    3  A    between atoms: C_17  and  C_23
REMARK    4  A    between atoms: C_25  and  C_26
REMARK                            x       y       z     vdW  Elec       q    Type
REMARK                         _______ _______ _______ _____ _____    ______ ____
ROOT
ATOM      2  S   UNL     1     -10.031  -8.668  16.766  0.00  0.00    -0.057 S 
ATOM      4  O   UNL     1      -4.074 -10.452  13.759  0.00  0.00    -0.461 OA
ATOM      5  O   UNL     1      -1.981 -10.756  12.855  0.00  0.00    -0.251 OA
ATOM      6  O   UNL     1     -11.700  -8.690  12.421  0.00  0.00    -0.270 OA
ATOM      7  N   UNL     1      -9.474  -9.205  14.299  0.00  0.00    -0.229 NA
ATOM      8  N   UNL     1     -11.686  -8.365  14.755  0.00  0.00    -0.261 N 
ATOM      9  C   UNL     1      -5.908 -10.027  15.435  0.00  0.00    +0.045 C 
ATOM     10  C   UNL     1      -6.352 -10.504  16.886  0.00  0.00    -0.021 C 
ATOM     11  C   UNL     1      -4.686 -10.848  14.987  0.00  0.00    +0.184 C 
ATOM     12  C   UNL     1      -3.546 -10.674  15.972  0.00  0.00    +0.044 C 
ATOM     13  C   UNL     1      -5.138 -10.491  17.865  0.00  0.00    +0.008 C 
ATOM     14  C   UNL     1      -3.901 -11.230  17.336  0.00  0.00    +0.008 C 
ATOM     15  C   UNL     1      -7.095 -10.033  14.405  0.00  0.00    +0.043 C 
ATOM     16  C   UNL     1      -7.432  -9.523  17.437  0.00  0.00    +0.051 C 
ATOM     17  C   UNL     1      -2.409 -11.314  15.199  0.00  0.00    +0.101 C 
ATOM     18  C   UNL     1      -6.943 -11.940  16.875  0.00  0.00    +0.012 C 
ATOM     19  C   UNL     1      -8.345  -9.483  15.048  0.00  0.00    +0.057 A 
ATOM     20  C   UNL     1      -8.479  -9.270  16.407  0.00  0.00    +0.015 A 
ATOM     21  C   UNL     1      -2.747 -10.820  13.804  0.00  0.00    +0.311 C 
ATOM     22  C   UNL     1      -6.766  -9.250  13.127  0.00  0.00    +0.014 C 
ATOM     23  C   UNL     1      -1.038 -10.861  15.663  0.00  0.00    +0.019 C 
ATOM     24  C   UNL     1     -10.420  -8.761  15.096  0.00  0.00    +0.165 A 
ATOM     25  C   UNL     1     -12.243  -8.352  13.466  0.00  0.00    +0.250 C 
ATOM     32  H   UNL     1     -12.255  -8.105  15.554  0.00  0.00    +0.157 HD
ENDROOT
BRANCH  25  26
ATOM      1 CL   UNL     1     -16.441  -6.587  15.905  0.00  0.00    -0.081 Cl
ATOM      3  F   UNL     1     -17.554  -6.655  13.157  0.00  0.00    -0.204 F 
ATOM     26  C   UNL     1     -13.658  -7.900  13.389  0.00  0.00    +0.039 A 
ATOM     27  C   UNL     1     -14.295  -7.507  14.547  0.00  0.00    +0.036 A 
ATOM     28  C   UNL     1     -14.285  -7.887  12.161  0.00  0.00    +0.016 A 
ATOM     29  C   UNL     1     -15.621  -7.082  14.474  0.00  0.00    +0.077 A 
ATOM     30  C   UNL     1     -15.612  -7.462  12.088  0.00  0.00    +0.040 A 
ATOM     31  C   UNL     1     -16.280  -7.059  13.244  0.00  0.00    +0.142 A 
ENDBRANCH  25  26
TORSDOF 1
ENDMDL
MODEL 10
REMARK VINA RESULT:      -7.0     20.897     23.137
REMARK  Name = 11866214
REMARK  4 active torsions:
REMARK  status: ('A' for Active; 'I' for Inactive)
REMARK    1  A    between atoms: C_10  and  C_18
REMARK    2  A    between atoms: C_15  and  C_22
REMARK    3  A    between atoms: C_17  and  C_23
REMARK    4  A    between atoms: C_25  and  C_26
REMARK                            x       y       z     vdW  Elec       q    Type
REMARK                         _______ _______ _______ _____ _____    ______ ____
ROOT
ATOM      2  S   UNL     1      12.218   3.535   1.639  0.00  0.00    -0.057 S 
ATOM      4  O   UNL     1      10.804   6.340  -4.513  0.00  0.00    -0.461 OA
ATOM      5  O   UNL     1      10.640   7.379  -6.559  0.00  0.00    -0.251 OA
ATOM      6  O   UNL     1       9.134   6.631   3.244  0.00  0.00    -0.270 OA
ATOM      7  N   UNL     1      10.506   5.351   0.958  0.00  0.00    -0.229 NA
ATOM      8  N   UNL     1      10.771   4.937   3.317  0.00  0.00    -0.261 N 
ATOM      9  C   UNL     1      11.592   4.805  -2.675  0.00  0.00    +0.045 C 
ATOM     10  C   UNL     1      11.970   3.275  -2.459  0.00  0.00    -0.021 C 
ATOM     11  C   UNL     1      11.062   4.995  -4.108  0.00  0.00    +0.184 C 
ATOM     12  C   UNL     1      12.107   4.561  -5.117  0.00  0.00    +0.044 C 
ATOM     13  C   UNL     1      12.912   2.775  -3.596  0.00  0.00    +0.008 C 
ATOM     14  C   UNL     1      12.400   3.078  -5.011  0.00  0.00    +0.008 C 
ATOM     15  C   UNL     1      10.633   5.356  -1.559  0.00  0.00    +0.043 C 
ATOM     16  C   UNL     1      12.723   3.124  -1.101  0.00  0.00    +0.051 C 
ATOM     17  C   UNL     1      11.493   5.091  -6.399  0.00  0.00    +0.101 C 
ATOM     18  C   UNL     1      10.716   2.360  -2.437  0.00  0.00    +0.012 C 
ATOM     19  C   UNL     1      11.069   4.855  -0.204  0.00  0.00    +0.057 A 
ATOM     20  C   UNL     1      11.998   3.850  -0.020  0.00  0.00    +0.015 A 
ATOM     21  C   UNL     1      10.937   6.405  -5.883  0.00  0.00    +0.311 C 
ATOM     22  C   UNL     1      10.555   6.889  -1.560  0.00  0.00    +0.014 C 
ATOM     23  C   UNL     1      12.505   5.282  -7.514  0.00  0.00    +0.019 C 
ATOM     24  C   UNL     1      11.041   4.736   1.990  0.00  0.00    +0.165 A 
ATOM     25  C   UNL     1       9.853   5.852   3.859  0.00  0.00    +0.250 C 
ATOM     32  H   UNL     1      11.278   4.308   3.931  0.00  0.00    +0.157 HD
ENDROOT
BRANCH  25  26
ATOM      1 CL   UNL     1       9.070   8.471   8.242  0.00  0.00    -0.081 Cl
ATOM      3  F   UNL     1       9.423   5.776   9.426  0.00  0.00    -0.204 F 
ATOM     26  C   UNL     1       9.739   5.837   5.342  0.00  0.00    +0.039 A 
ATOM     27  C   UNL     1       9.489   7.022   6.002  0.00  0.00    +0.036 A 
ATOM     28  C   UNL     1       9.884   4.638   6.006  0.00  0.00    +0.016 A 
ATOM     29  C   UNL     1       9.380   7.006   7.392  0.00  0.00    +0.077 A 
ATOM     30  C   UNL     1       9.775   4.623   7.397  0.00  0.00    +0.040 A 
ATOM     31  C   UNL     1       9.523   5.807   8.090  0.00  0.00    +0.142 A 
ENDBRANCH  25  26
TORSDOF 1
ENDMDL
