MODEL 1
REMARK VINA RESULT:      -7.0      0.000      0.000
REMARK  Name = 56775191
REMARK  2 active torsions:
REMARK  status: ('A' for Active; 'I' for Inactive)
REMARK    1  A    between atoms: N_6  and  C_14
REMARK    2  A    between atoms: C_15  and  C_18
REMARK                            x       y       z     vdW  Elec       q    Type
REMARK                         _______ _______ _______ _____ _____    ______ ____
ROOT
ATOM      1  O   UNL     1      11.780   8.736  19.081  0.00  0.00    -0.364 OA
ATOM      2  O   UNL     1      13.507   7.445  21.933  0.00  0.00    -0.273 OA
ATOM      3  O   UNL     1      12.739  10.538  14.718  0.00  0.00    -0.267 OA
ATOM      5  N   UNL     1      13.395   9.397  16.630  0.00  0.00    -0.291 N 
ATOM      6  N   UNL     1      14.246   7.590  19.701  0.00  0.00    -0.262 N 
ATOM      8  C   UNL     1      13.831   7.767  18.299  0.00  0.00    +0.129 C 
ATOM      9  C   UNL     1      12.321   7.881  18.084  0.00  0.00    +0.158 C 
ATOM     10  C   UNL     1      14.345   9.080  17.694  0.00  0.00    +0.133 C 
ATOM     11  C   UNL     1      12.203   8.566  16.728  0.00  0.00    +0.141 C 
ATOM     12  C   UNL     1      11.904   8.129  20.341  0.00  0.00    +0.256 C 
ATOM     13  C   UNL     1      13.310   7.710  20.744  0.00  0.00    +0.246 C 
ATOM     15  C   UNL     1      13.566  10.302  15.595  0.00  0.00    +0.285 C 
ENDROOT
BRANCH   6  14
ATOM     14  C   UNL     1      15.653   7.338  19.965  0.00  0.00    +0.037 A 
ATOM     16  C   UNL     1      16.352   8.153  20.856  0.00  0.00    +0.023 A 
ATOM     17  C   UNL     1      16.304   6.281  19.329  0.00  0.00    +0.023 A 
ATOM     19  C   UNL     1      17.702   7.911  21.109  0.00  0.00    +0.002 A 
ATOM     20  C   UNL     1      17.653   6.039  19.582  0.00  0.00    +0.002 A 
ATOM     22  C   UNL     1      18.353   6.855  20.472  0.00  0.00    +0.000 A 
ENDBRANCH   6  14
BRANCH  15  18
ATOM      4  O   UNL     1      15.768  10.624  14.622  0.00  0.00    -0.350 OA
ATOM      7  N   UNL     1      16.895  11.431  14.723  0.00  0.00    -0.086 NA
ATOM     18  C   UNL     1      14.845  11.028  15.531  0.00  0.00    +0.222 A 
ATOM     21  C   UNL     1      15.332  12.093  16.241  0.00  0.00    +0.077 A 
ATOM     23  C   UNL     1      16.612  12.301  15.696  0.00  0.00    +0.157 A 
ENDBRANCH  15  18
TORSDOF 2
ENDMDL
MODEL 2
REMARK VINA RESULT:      -6.7      1.583      5.758
REMARK  Name = 56775191
REMARK  2 active torsions:
REMARK  status: ('A' for Active; 'I' for Inactive)
REMARK    1  A    between atoms: N_6  and  C_14
REMARK    2  A    between atoms: C_15  and  C_18
REMARK                            x       y       z     vdW  Elec       q    Type
REMARK                         _______ _______ _______ _____ _____    ______ ____
ROOT
ATOM      1  O   UNL     1      11.408   7.930  17.686  0.00  0.00    -0.364 OA
ATOM      2  O   UNL     1      11.824   9.955  14.769  0.00  0.00    -0.273 OA
ATOM      3  O   UNL     1      13.982   6.297  21.416  0.00  0.00    -0.267 OA
ATOM      5  N   UNL     1      13.714   7.729  19.608  0.00  0.00    -0.291 N 
ATOM      6  N   UNL     1      13.107   9.932  16.744  0.00  0.00    -0.262 N 
ATOM      8  C   UNL     1      13.143   9.519  18.158  0.00  0.00    +0.129 C 
ATOM      9  C   UNL     1      11.865   8.851  18.666  0.00  0.00    +0.158 C 
ATOM     10  C   UNL     1      14.202   8.442  18.430  0.00  0.00    +0.133 C 
ATOM     11  C   UNL     1      12.328   8.077  19.894  0.00  0.00    +0.141 C 
ATOM     12  C   UNL     1      11.000   8.628  16.537  0.00  0.00    +0.256 C 
ATOM     13  C   UNL     1      12.035   9.554  15.917  0.00  0.00    +0.246 C 
ATOM     15  C   UNL     1      14.433   6.878  20.431  0.00  0.00    +0.285 C 
ENDROOT
BRANCH   6  14
ATOM     14  C   UNL     1      14.234  10.694  16.232  0.00  0.00    +0.037 A 
ATOM     16  C   UNL     1      14.945  10.228  15.126  0.00  0.00    +0.023 A 
ATOM     17  C   UNL     1      14.602  11.891  16.845  0.00  0.00    +0.023 A 
ATOM     19  C   UNL     1      16.026  10.960  14.635  0.00  0.00    +0.002 A 
ATOM     20  C   UNL     1      15.683  12.623  16.353  0.00  0.00    +0.002 A 
ATOM     22  C   UNL     1      16.395  12.157  15.248  0.00  0.00    +0.000 A 
ENDBRANCH   6  14
BRANCH  15  18
ATOM      4  O   UNL     1      16.159   5.841  19.074  0.00  0.00    -0.350 OA
ATOM      7  N   UNL     1      17.541   5.770  18.938  0.00  0.00    -0.086 NA
ATOM     18  C   UNL     1      15.853   6.662  20.110  0.00  0.00    +0.222 A 
ATOM     21  C   UNL     1      17.005   7.143  20.673  0.00  0.00    +0.077 A 
ATOM     23  C   UNL     1      18.024   6.556  19.904  0.00  0.00    +0.157 A 
ENDBRANCH  15  18
TORSDOF 2
ENDMDL
MODEL 3
REMARK VINA RESULT:      -6.7      3.506      6.205
REMARK  Name = 56775191
REMARK  2 active torsions:
REMARK  status: ('A' for Active; 'I' for Inactive)
REMARK    1  A    between atoms: N_6  and  C_14
REMARK    2  A    between atoms: C_15  and  C_18
REMARK                            x       y       z     vdW  Elec       q    Type
REMARK                         _______ _______ _______ _____ _____    ______ ____
ROOT
ATOM      1  O   UNL     1      13.074   7.781  21.970  0.00  0.00    -0.364 OA
ATOM      2  O   UNL     1      14.168   6.621  18.770  0.00  0.00    -0.273 OA
ATOM      3  O   UNL     1      10.751  11.524  23.918  0.00  0.00    -0.267 OA
ATOM      5  N   UNL     1      11.386  10.269  22.071  0.00  0.00    -0.291 N 
ATOM      6  N   UNL     1      12.452   8.153  19.277  0.00  0.00    -0.262 N 
ATOM      8  C   UNL     1      11.560   8.663  20.331  0.00  0.00    +0.129 C 
ATOM      9  C   UNL     1      11.695   7.962  21.684  0.00  0.00    +0.158 C 
ATOM     10  C   UNL     1      11.852  10.126  20.694  0.00  0.00    +0.133 C 
ATOM     11  C   UNL     1      11.114   8.969  22.670  0.00  0.00    +0.141 C 
ATOM     12  C   UNL     1      13.631   6.873  21.054  0.00  0.00    +0.256 C 
ATOM     13  C   UNL     1      13.461   7.223  19.583  0.00  0.00    +0.246 C 
ATOM     15  C   UNL     1      11.145  11.449  22.756  0.00  0.00    +0.285 C 
ENDROOT
BRANCH   6  14
ATOM     14  C   UNL     1      12.283   8.679  17.932  0.00  0.00    +0.037 A 
ATOM     16  C   UNL     1      13.319   9.390  17.327  0.00  0.00    +0.023 A 
ATOM     17  C   UNL     1      11.085   8.472  17.248  0.00  0.00    +0.023 A 
ATOM     19  C   UNL     1      13.156   9.895  16.036  0.00  0.00    +0.002 A 
ATOM     20  C   UNL     1      10.923   8.976  15.958  0.00  0.00    +0.002 A 
ATOM     22  C   UNL     1      11.958   9.688  15.352  0.00  0.00    +0.000 A 
ENDBRANCH   6  14
BRANCH  15  18
ATOM      4  O   UNL     1      10.276  13.424  21.643  0.00  0.00    -0.350 OA
ATOM      7  N   UNL     1      10.694  14.573  20.981  0.00  0.00    -0.086 NA
ATOM     18  C   UNL     1      11.363  12.711  22.034  0.00  0.00    +0.222 A 
ATOM     21  C   UNL     1      12.505  13.362  21.646  0.00  0.00    +0.077 A 
ATOM     23  C   UNL     1      12.029  14.514  20.995  0.00  0.00    +0.157 A 
ENDBRANCH  15  18
TORSDOF 2
ENDMDL
MODEL 4
REMARK VINA RESULT:      -6.2      4.403      5.698
REMARK  Name = 56775191
REMARK  2 active torsions:
REMARK  status: ('A' for Active; 'I' for Inactive)
REMARK    1  A    between atoms: N_6  and  C_14
REMARK    2  A    between atoms: C_15  and  C_18
REMARK                            x       y       z     vdW  Elec       q    Type
REMARK                         _______ _______ _______ _____ _____    ______ ____
ROOT
ATOM      1  O   UNL     1      10.667   9.232  22.633  0.00  0.00    -0.364 OA
ATOM      2  O   UNL     1      11.717   5.975  21.596  0.00  0.00    -0.273 OA
ATOM      3  O   UNL     1      12.525  13.602  23.438  0.00  0.00    -0.267 OA
ATOM      5  N   UNL     1      12.689  11.459  22.561  0.00  0.00    -0.291 N 
ATOM      6  N   UNL     1      12.758   8.053  21.213  0.00  0.00    -0.262 N 
ATOM      8  C   UNL     1      12.574   9.515  21.205  0.00  0.00    +0.129 C 
ATOM      9  C   UNL     1      11.157   9.987  21.534  0.00  0.00    +0.158 C 
ATOM     10  C   UNL     1      13.410  10.220  22.282  0.00  0.00    +0.133 C 
ATOM     11  C   UNL     1      11.354  11.431  21.977  0.00  0.00    +0.141 C 
ATOM     12  C   UNL     1      10.503   7.891  22.248  0.00  0.00    +0.256 C 
ATOM     13  C   UNL     1      11.735   7.207  21.675  0.00  0.00    +0.246 C 
ATOM     15  C   UNL     1      13.168  12.577  23.224  0.00  0.00    +0.285 C 
ENDROOT
BRANCH   6  14
ATOM     14  C   UNL     1      14.042   7.529  20.776  0.00  0.00    +0.037 A 
ATOM     16  C   UNL     1      15.033   7.241  21.715  0.00  0.00    +0.023 A 
ATOM     17  C   UNL     1      14.282   7.313  19.419  0.00  0.00    +0.023 A 
ATOM     19  C   UNL     1      16.265   6.739  21.295  0.00  0.00    +0.002 A 
ATOM     20  C   UNL     1      15.513   6.811  19.000  0.00  0.00    +0.002 A 
ATOM     22  C   UNL     1      16.505   6.523  19.938  0.00  0.00    +0.000 A 
ENDBRANCH   6  14
BRANCH  15  18
ATOM      4  O   UNL     1      14.790  12.181  24.986  0.00  0.00    -0.350 OA
ATOM      7  N   UNL     1      16.158  12.211  25.234  0.00  0.00    -0.086 NA
ATOM     18  C   UNL     1      14.560  12.541  23.699  0.00  0.00    +0.222 A 
ATOM     21  C   UNL     1      15.750  12.812  23.076  0.00  0.00    +0.077 A 
ATOM     23  C   UNL     1      16.710  12.591  24.078  0.00  0.00    +0.157 A 
ENDBRANCH  15  18
TORSDOF 2
ENDMDL
MODEL 5
REMARK VINA RESULT:      -6.0      2.188      2.802
REMARK  Name = 56775191
REMARK  2 active torsions:
REMARK  status: ('A' for Active; 'I' for Inactive)
REMARK    1  A    between atoms: N_6  and  C_14
REMARK    2  A    between atoms: C_15  and  C_18
REMARK                            x       y       z     vdW  Elec       q    Type
REMARK                         _______ _______ _______ _____ _____    ______ ____
ROOT
ATOM      1  O   UNL     1      11.980   9.299  16.884  0.00  0.00    -0.364 OA
ATOM      2  O   UNL     1      12.113   6.624  19.253  0.00  0.00    -0.273 OA
ATOM      3  O   UNL     1      14.619  13.067  15.454  0.00  0.00    -0.267 OA
ATOM      5  N   UNL     1      14.401  11.064  16.608  0.00  0.00    -0.291 N 
ATOM      6  N   UNL     1      13.886   7.879  18.342  0.00  0.00    -0.262 N 
ATOM      8  C   UNL     1      14.294   8.782  17.253  0.00  0.00    +0.129 C 
ATOM      9  C   UNL     1      13.210   9.066  16.213  0.00  0.00    +0.158 C 
ATOM     10  C   UNL     1      14.639  10.191  17.755  0.00  0.00    +0.133 C 
ATOM     11  C   UNL     1      13.670  10.364  15.560  0.00  0.00    +0.141 C 
ATOM     12  C   UNL     1      11.555   8.117  17.513  0.00  0.00    +0.256 C 
ATOM     13  C   UNL     1      12.544   7.481  18.478  0.00  0.00    +0.246 C 
ATOM     15  C   UNL     1      14.841  12.367  16.439  0.00  0.00    +0.285 C 
ENDROOT
BRANCH   6  14
ATOM     14  C   UNL     1      14.905   7.457  19.291  0.00  0.00    +0.037 A 
ATOM     16  C   UNL     1      15.937   6.616  18.876  0.00  0.00    +0.023 A 
ATOM     17  C   UNL     1      14.850   7.894  20.614  0.00  0.00    +0.023 A 
ATOM     19  C   UNL     1      16.914   6.211  19.786  0.00  0.00    +0.002 A 
ATOM     20  C   UNL     1      15.826   7.490  21.523  0.00  0.00    +0.002 A 
ATOM     22  C   UNL     1      16.859   6.649  21.109  0.00  0.00    +0.000 A 
ENDBRANCH   6  14
BRANCH  15  18
ATOM      4  O   UNL     1      15.008  13.588  18.531  0.00  0.00    -0.350 OA
ATOM      7  N   UNL     1      15.945  14.070  19.438  0.00  0.00    -0.086 NA
ATOM     18  C   UNL     1      15.651  12.955  17.517  0.00  0.00    +0.222 A 
ATOM     21  C   UNL     1      17.004  13.003  17.728  0.00  0.00    +0.077 A 
ATOM     23  C   UNL     1      17.129  13.709  18.937  0.00  0.00    +0.157 A 
ENDBRANCH  15  18
TORSDOF 2
ENDMDL
MODEL 6
REMARK VINA RESULT:      -5.9      3.288      5.237
REMARK  Name = 56775191
REMARK  2 active torsions:
REMARK  status: ('A' for Active; 'I' for Inactive)
REMARK    1  A    between atoms: N_6  and  C_14
REMARK    2  A    between atoms: C_15  and  C_18
REMARK                            x       y       z     vdW  Elec       q    Type
REMARK                         _______ _______ _______ _____ _____    ______ ____
ROOT
ATOM      1  O   UNL     1      13.138  10.535  16.130  0.00  0.00    -0.364 OA
ATOM      2  O   UNL     1      10.849   7.862  16.763  0.00  0.00    -0.273 OA
ATOM      3  O   UNL     1      15.778  13.754  18.552  0.00  0.00    -0.267 OA
ATOM      5  N   UNL     1      14.500  11.818  18.486  0.00  0.00    -0.291 N 
ATOM      6  N   UNL     1      12.488   8.770  18.189  0.00  0.00    -0.262 N 
ATOM      8  C   UNL     1      13.709   9.591  18.261  0.00  0.00    +0.129 C 
ATOM      9  C   UNL     1      14.234  10.081  16.911  0.00  0.00    +0.158 C 
ATOM     10  C   UNL     1      13.491  10.906  19.021  0.00  0.00    +0.133 C 
ATOM     11  C   UNL     1      15.106  11.276  17.277  0.00  0.00    +0.141 C 
ATOM     12  C   UNL     1      12.309   9.448  15.804  0.00  0.00    +0.256 C 
ATOM     13  C   UNL     1      11.790   8.630  16.977  0.00  0.00    +0.246 C 
ATOM     15  C   UNL     1      14.923  13.017  19.036  0.00  0.00    +0.285 C 
ENDROOT
BRANCH   6  14
ATOM     14  C   UNL     1      12.011   8.158  19.419  0.00  0.00    +0.037 A 
ATOM     16  C   UNL     1      11.003   8.775  20.159  0.00  0.00    +0.023 A 
ATOM     17  C   UNL     1      12.560   6.953  19.856  0.00  0.00    +0.023 A 
ATOM     19  C   UNL     1      10.545   8.187  21.339  0.00  0.00    +0.002 A 
ATOM     20  C   UNL     1      12.102   6.365  21.034  0.00  0.00    +0.002 A 
ATOM     22  C   UNL     1      11.094   6.982  21.776  0.00  0.00    +0.000 A 
ENDBRANCH   6  14
BRANCH  15  18
ATOM      4  O   UNL     1      14.884  13.010  21.464  0.00  0.00    -0.350 OA
ATOM      7  N   UNL     1      14.162  13.508  22.542  0.00  0.00    -0.086 NA
ATOM     18  C   UNL     1      14.313  13.434  20.308  0.00  0.00    +0.222 A 
ATOM     21  C   UNL     1      13.219  14.209  20.592  0.00  0.00    +0.077 A 
ATOM     23  C   UNL     1      13.173  14.221  21.997  0.00  0.00    +0.157 A 
ENDBRANCH  15  18
TORSDOF 2
ENDMDL
MODEL 7
REMARK VINA RESULT:      -5.7      4.572      7.093
REMARK  Name = 56775191
REMARK  2 active torsions:
REMARK  status: ('A' for Active; 'I' for Inactive)
REMARK    1  A    between atoms: N_6  and  C_14
REMARK    2  A    between atoms: C_15  and  C_18
REMARK                            x       y       z     vdW  Elec       q    Type
REMARK                         _______ _______ _______ _____ _____    ______ ____
ROOT
ATOM      1  O   UNL     1      14.999  12.262  19.861  0.00  0.00    -0.364 OA
ATOM      2  O   UNL     1      14.856  14.258  22.824  0.00  0.00    -0.273 OA
ATOM      3  O   UNL     1      12.773   8.481  17.874  0.00  0.00    -0.267 OA
ATOM      5  N   UNL     1      12.869  10.176  19.458  0.00  0.00    -0.291 N 
ATOM      6  N   UNL     1      13.170  12.926  21.859  0.00  0.00    -0.262 N 
ATOM      8  C   UNL     1      12.729  12.231  20.638  0.00  0.00    +0.129 C 
ATOM      9  C   UNL     1      13.652  12.402  19.431  0.00  0.00    +0.158 C 
ATOM     10  C   UNL     1      12.697  10.706  20.808  0.00  0.00    +0.133 C 
ATOM     11  C   UNL     1      13.296  11.221  18.536  0.00  0.00    +0.141 C 
ATOM     12  C   UNL     1      15.337  13.331  20.708  0.00  0.00    +0.256 C 
ATOM     13  C   UNL     1      14.438  13.532  21.919  0.00  0.00    +0.246 C 
ATOM     15  C   UNL     1      12.614   8.885  19.024  0.00  0.00    +0.285 C 
ENDROOT
BRANCH   6  14
ATOM     14  C   UNL     1      12.274  12.921  23.004  0.00  0.00    +0.037 A 
ATOM     16  C   UNL     1      11.097  13.669  22.971  0.00  0.00    +0.023 A 
ATOM     17  C   UNL     1      12.590  12.167  24.133  0.00  0.00    +0.023 A 
ATOM     19  C   UNL     1      10.237  13.664  24.070  0.00  0.00    +0.002 A 
ATOM     20  C   UNL     1      11.731  12.161  25.232  0.00  0.00    +0.002 A 
ATOM     22  C   UNL     1      10.554  12.910  25.200  0.00  0.00    +0.000 A 
ENDBRANCH   6  14
BRANCH  15  18
ATOM      4  O   UNL     1      10.784   7.985  20.341  0.00  0.00    -0.350 OA
ATOM      7  N   UNL     1      10.501   7.003  21.284  0.00  0.00    -0.086 NA
ATOM     18  C   UNL     1      12.099   7.925  20.013  0.00  0.00    +0.222 A 
ATOM     21  C   UNL     1      12.705   6.919  20.719  0.00  0.00    +0.077 A 
ATOM     23  C   UNL     1      11.664   6.380  21.493  0.00  0.00    +0.157 A 
ENDBRANCH  15  18
TORSDOF 2
ENDMDL
MODEL 8
REMARK VINA RESULT:      -5.6     28.271     30.014
REMARK  Name = 56775191
REMARK  2 active torsions:
REMARK  status: ('A' for Active; 'I' for Inactive)
REMARK    1  A    between atoms: N_6  and  C_14
REMARK    2  A    between atoms: C_15  and  C_18
REMARK                            x       y       z     vdW  Elec       q    Type
REMARK                         _______ _______ _______ _____ _____    ______ ____
ROOT
ATOM      1  O   UNL     1      -7.201 -10.825  20.091  0.00  0.00    -0.364 OA
ATOM      2  O   UNL     1      -4.097 -11.474  18.440  0.00  0.00    -0.273 OA
ATOM      3  O   UNL     1     -11.706  -9.484  19.037  0.00  0.00    -0.267 OA
ATOM      5  N   UNL     1      -9.616 -10.261  18.388  0.00  0.00    -0.291 N 
ATOM      6  N   UNL     1      -6.277 -11.514  17.551  0.00  0.00    -0.262 N 
ATOM      8  C   UNL     1      -7.713 -11.582  17.872  0.00  0.00    +0.129 C 
ATOM      9  C   UNL     1      -8.034 -11.715  19.361  0.00  0.00    +0.158 C 
ATOM     10  C   UNL     1      -8.463 -10.297  17.493  0.00  0.00    +0.133 C 
ATOM     11  C   UNL     1      -9.476 -11.235  19.462  0.00  0.00    +0.141 C 
ATOM     12  C   UNL     1      -5.863 -11.240  19.987  0.00  0.00    +0.256 C 
ATOM     13  C   UNL     1      -5.321 -11.396  18.574  0.00  0.00    +0.246 C 
ATOM     15  C   UNL     1     -10.755  -9.483  18.258  0.00  0.00    +0.285 C 
ENDROOT
BRANCH   6  14
ATOM     14  C   UNL     1      -5.895 -11.524  16.148  0.00  0.00    +0.037 A 
ATOM     16  C   UNL     1      -5.431 -10.356  15.544  0.00  0.00    +0.023 A 
ATOM     17  C   UNL     1      -5.993 -12.701  15.407  0.00  0.00    +0.023 A 
ATOM     19  C   UNL     1      -5.064 -10.366  14.197  0.00  0.00    +0.002 A 
ATOM     20  C   UNL     1      -5.627 -12.712  14.062  0.00  0.00    +0.002 A 
ATOM     22  C   UNL     1      -5.162 -11.543  13.457  0.00  0.00    +0.000 A 
ENDBRANCH   6  14
BRANCH  15  18
ATOM      4  O   UNL     1     -10.290  -7.358  17.179  0.00  0.00    -0.350 OA
ATOM      7  N   UNL     1     -10.478  -6.682  15.979  0.00  0.00    -0.086 NA
ATOM     18  C   UNL     1     -10.841  -8.594  17.088  0.00  0.00    +0.222 A 
ATOM     21  C   UNL     1     -11.396  -8.762  15.847  0.00  0.00    +0.077 A 
ATOM     23  C   UNL     1     -11.141  -7.541  15.199  0.00  0.00    +0.157 A 
ENDBRANCH  15  18
TORSDOF 2
ENDMDL
MODEL 9
REMARK VINA RESULT:      -5.6     26.795     28.966
REMARK  Name = 56775191
REMARK  2 active torsions:
REMARK  status: ('A' for Active; 'I' for Inactive)
REMARK    1  A    between atoms: N_6  and  C_14
REMARK    2  A    between atoms: C_15  and  C_18
REMARK                            x       y       z     vdW  Elec       q    Type
REMARK                         _______ _______ _______ _____ _____    ______ ____
ROOT
ATOM      1  O   UNL     1      -4.301 -12.286  17.236  0.00  0.00    -0.364 OA
ATOM      2  O   UNL     1      -7.513 -12.297  18.807  0.00  0.00    -0.273 OA
ATOM      3  O   UNL     1      -2.182 -10.652  13.230  0.00  0.00    -0.267 OA
ATOM      5  N   UNL     1      -3.964 -10.673  14.718  0.00  0.00    -0.291 N 
ATOM      6  N   UNL     1      -6.667 -10.810  17.188  0.00  0.00    -0.262 N 
ATOM      8  C   UNL     1      -5.451 -10.301  16.531  0.00  0.00    +0.129 C 
ATOM      9  C   UNL     1      -4.141 -10.885  17.061  0.00  0.00    +0.158 C 
ATOM     10  C   UNL     1      -5.389 -10.666  15.041  0.00  0.00    +0.133 C 
ATOM     11  C   UNL     1      -3.153 -10.639  15.928  0.00  0.00    +0.141 C 
ATOM     12  C   UNL     1      -5.229 -12.530  18.262  0.00  0.00    +0.256 C 
ATOM     13  C   UNL     1      -6.595 -11.882  18.094  0.00  0.00    +0.246 C 
ATOM     15  C   UNL     1      -3.390 -10.645  13.458  0.00  0.00    +0.285 C 
ENDROOT
BRANCH   6  14
ATOM     14  C   UNL     1      -7.937 -10.199  16.829  0.00  0.00    +0.037 A 
ATOM     16  C   UNL     1      -8.250  -8.921  17.291  0.00  0.00    +0.023 A 
ATOM     17  C   UNL     1      -8.841 -10.891  16.023  0.00  0.00    +0.023 A 
ATOM     19  C   UNL     1      -9.469  -8.335  16.947  0.00  0.00    +0.002 A 
ATOM     20  C   UNL     1     -10.058 -10.306  15.680  0.00  0.00    +0.002 A 
ATOM     22  C   UNL     1     -10.373  -9.028  16.141  0.00  0.00    +0.000 A 
ENDBRANCH   6  14
BRANCH  15  18
ATOM      4  O   UNL     1      -4.768 -11.758  11.797  0.00  0.00    -0.350 OA
ATOM      7  N   UNL     1      -5.598 -11.490  10.715  0.00  0.00    -0.086 NA
ATOM     18  C   UNL     1      -4.296 -10.590  12.299  0.00  0.00    +0.222 A 
ATOM     21  C   UNL     1      -4.795  -9.540  11.574  0.00  0.00    +0.077 A 
ATOM     23  C   UNL     1      -5.598 -10.159  10.600  0.00  0.00    +0.157 A 
ENDBRANCH  15  18
TORSDOF 2
ENDMDL
MODEL 10
REMARK VINA RESULT:      -5.5     22.791     25.342
REMARK  Name = 56775191
REMARK  2 active torsions:
REMARK  status: ('A' for Active; 'I' for Inactive)
REMARK    1  A    between atoms: N_6  and  C_14
REMARK    2  A    between atoms: C_15  and  C_18
REMARK                            x       y       z     vdW  Elec       q    Type
REMARK                         _______ _______ _______ _____ _____    ______ ____
ROOT
ATOM      1  O   UNL     1     -11.803  12.579  18.289  0.00  0.00    -0.364 OA
ATOM      2  O   UNL     1      -9.967  15.524  17.431  0.00  0.00    -0.273 OA
ATOM      3  O   UNL     1     -12.154   7.960  16.968  0.00  0.00    -0.267 OA
ATOM      5  N   UNL     1     -11.038   9.996  16.949  0.00  0.00    -0.291 N 
ATOM      6  N   UNL     1      -9.398  13.269  17.059  0.00  0.00    -0.262 N 
ATOM      8  C   UNL     1      -9.672  11.874  17.440  0.00  0.00    +0.129 C 
ATOM      9  C   UNL     1     -10.715  11.703  18.546  0.00  0.00    +0.158 C 
ATOM     10  C   UNL     1     -10.281  11.058  16.292  0.00  0.00    +0.133 C 
ATOM     11  C   UNL     1     -11.188  10.264  18.373  0.00  0.00    +0.141 C 
ATOM     12  C   UNL     1     -11.377  13.911  18.420  0.00  0.00    +0.256 C 
ATOM     13  C   UNL     1     -10.187  14.318  17.563  0.00  0.00    +0.246 C 
ATOM     15  C   UNL     1     -11.520   8.830  16.376  0.00  0.00    +0.285 C 
ENDROOT
BRANCH   6  14
ATOM     14  C   UNL     1      -8.321  13.514  16.112  0.00  0.00    +0.037 A 
ATOM     16  C   UNL     1      -8.617  13.896  14.804  0.00  0.00    +0.023 A 
ATOM     17  C   UNL     1      -6.994  13.367  16.513  0.00  0.00    +0.023 A 
ATOM     19  C   UNL     1      -7.584  14.130  13.896  0.00  0.00    +0.002 A 
ATOM     20  C   UNL     1      -5.961  13.602  15.606  0.00  0.00    +0.002 A 
ATOM     22  C   UNL     1      -6.256  13.984  14.297  0.00  0.00    +0.000 A 
ENDBRANCH   6  14
BRANCH  15  18
ATOM      4  O   UNL     1     -10.290   7.697  14.616  0.00  0.00    -0.350 OA
ATOM      7  N   UNL     1     -10.176   7.637  13.232  0.00  0.00    -0.086 NA
ATOM     18  C   UNL     1     -11.238   8.608  14.949  0.00  0.00    +0.222 A 
ATOM     21  C   UNL     1     -11.764   9.163  13.812  0.00  0.00    +0.077 A 
ATOM     23  C   UNL     1     -11.065   8.522  12.774  0.00  0.00    +0.157 A 
ENDBRANCH  15  18
TORSDOF 2
ENDMDL
