MODEL 1
REMARK VINA RESULT:      -7.4      0.000      0.000
REMARK  Name = 26744682
REMARK  8 active torsions:
REMARK  status: ('A' for Active; 'I' for Inactive)
REMARK    1  A    between atoms: S_2  and  N_10
REMARK    2  A    between atoms: S_2  and  C_25
REMARK    3  A    between atoms: O_4  and  C_14
REMARK    4  A    between atoms: O_5  and  C_15
REMARK    5  A    between atoms: N_10  and  C_18
REMARK    6  A    between atoms: C_13  and  C_17
REMARK    7  A    between atoms: C_16  and  C_18
REMARK    8  A    between atoms: C_17  and  C_19
REMARK                            x       y       z     vdW  Elec       q    Type
REMARK                         _______ _______ _______ _____ _____    ______ ____
ROOT
ATOM      3  O   UNL     1      -7.038  -9.777  17.031  0.00  0.00    -0.366 OA
ATOM     13  C   UNL     1      -8.280  -9.748  17.756  0.00  0.00    +0.158 C 
ATOM     14  C   UNL     1      -8.197 -10.885  18.760  0.00  0.00    +0.175 C 
ATOM     15  C   UNL     1      -6.728 -10.858  19.127  0.00  0.00    +0.175 C 
ATOM     16  C   UNL     1      -6.071 -10.542  17.788  0.00  0.00    +0.165 C 
ENDROOT
BRANCH  14   4
ATOM      4  O   UNL     1      -9.054 -10.681  19.863  0.00  0.00    -0.387 OA
ATOM     35  H   UNL     1      -9.754 -10.069  19.578  0.00  0.00    +0.210 HD
ENDBRANCH  14   4
BRANCH  15   5
ATOM      5  O   UNL     1      -6.460  -9.776  20.019  0.00  0.00    -0.387 OA
ATOM     36  H   UNL     1      -7.277  -9.598  20.514  0.00  0.00    +0.210 HD
ENDBRANCH  15   5
BRANCH  13  17
ATOM     17  C   UNL     1      -9.440  -9.885  16.785  0.00  0.00    +0.130 C 
BRANCH  17  19
ATOM      6  O   UNL     1     -10.860  -8.724  18.293  0.00  0.00    -0.276 OA
ATOM      9  N   UNL     1     -11.055  -8.174  16.044  0.00  0.00    -0.298 N 
ATOM     11  N   UNL     1     -12.094  -6.506  13.917  0.00  0.00    -0.312 N 
ATOM     12  N   UNL     1     -13.183  -6.251  11.837  0.00  0.00    -0.240 NA
ATOM     19  C   UNL     1     -10.513  -8.878  17.119  0.00  0.00    +0.218 C 
ATOM     20  C   UNL     1     -12.100  -7.184  16.284  0.00  0.00    +0.126 C 
ATOM     21  C   UNL     1     -10.633  -8.351  14.651  0.00  0.00    +0.126 C 
ATOM     22  C   UNL     1     -12.025  -6.020  15.298  0.00  0.00    +0.125 C 
ATOM     23  C   UNL     1     -11.692  -7.890  13.650  0.00  0.00    +0.125 C 
ATOM     24  C   UNL     1     -12.562  -5.684  12.896  0.00  0.00    +0.121 A 
ATOM     26  C   UNL     1     -12.358  -4.320  13.037  0.00  0.00    +0.043 A 
ATOM     29  C   UNL     1     -12.821  -3.485  12.025  0.00  0.00    +0.005 A 
ATOM     30  C   UNL     1     -13.619  -5.408  10.874  0.00  0.00    +0.113 A 
ATOM     31  C   UNL     1     -13.464  -4.032  10.920  0.00  0.00    +0.020 A 
ENDBRANCH  17  19
ENDBRANCH  13  17
BRANCH  16  18
ATOM     18  C   UNL     1      -5.729 -11.787  16.983  0.00  0.00    +0.140 C 
BRANCH  18  10
ATOM     10  N   UNL     1      -5.315 -11.396  15.623  0.00  0.00    -0.187 NA
ATOM     37  H   UNL     1      -5.995 -11.682  14.905  0.00  0.00    +0.148 HD
BRANCH  10   2
ATOM      2  S   UNL     1      -3.683 -11.521  15.157  0.00  0.00    +0.058 S 
ATOM      7  O   UNL     1      -3.327 -12.921  15.026  0.00  0.00    -0.153 OA
ATOM      8  O   UNL     1      -2.886 -10.641  15.990  0.00  0.00    -0.153 OA
BRANCH   2  25
ATOM      1 CL   UNL     1      -3.795  -9.000   9.409  0.00  0.00    -0.084 Cl
ATOM     25  C   UNL     1      -3.714 -10.811  13.539  0.00  0.00    +0.105 A 
ATOM     27  C   UNL     1      -2.539 -10.720  12.794  0.00  0.00    +0.030 A 
ATOM     28  C   UNL     1      -4.915 -10.342  13.006  0.00  0.00    +0.030 A 
ATOM     32  C   UNL     1      -2.563 -10.159  11.517  0.00  0.00    +0.022 A 
ATOM     33  C   UNL     1      -4.940  -9.782  11.729  0.00  0.00    +0.022 A 
ATOM     34  C   UNL     1      -3.765  -9.690  10.985  0.00  0.00    +0.041 A 
ENDBRANCH   2  25
ENDBRANCH  10   2
ENDBRANCH  18  10
ENDBRANCH  16  18
TORSDOF 8
ENDMDL
MODEL 2
REMARK VINA RESULT:      -7.3      4.942      6.308
REMARK  Name = 26744682
REMARK  8 active torsions:
REMARK  status: ('A' for Active; 'I' for Inactive)
REMARK    1  A    between atoms: S_2  and  N_10
REMARK    2  A    between atoms: S_2  and  C_25
REMARK    3  A    between atoms: O_4  and  C_14
REMARK    4  A    between atoms: O_5  and  C_15
REMARK    5  A    between atoms: N_10  and  C_18
REMARK    6  A    between atoms: C_13  and  C_17
REMARK    7  A    between atoms: C_16  and  C_18
REMARK    8  A    between atoms: C_17  and  C_19
REMARK                            x       y       z     vdW  Elec       q    Type
REMARK                         _______ _______ _______ _____ _____    ______ ____
ROOT
ATOM      3  O   UNL     1      -6.525 -11.794  17.201  0.00  0.00    -0.366 OA
ATOM     13  C   UNL     1      -7.610 -11.103  17.846  0.00  0.00    +0.158 C 
ATOM     14  C   UNL     1      -7.256  -9.628  17.779  0.00  0.00    +0.175 C 
ATOM     15  C   UNL     1      -6.564  -9.543  16.435  0.00  0.00    +0.175 C 
ATOM     16  C   UNL     1      -5.781 -10.850  16.396  0.00  0.00    +0.165 C 
ENDROOT
BRANCH  14   4
ATOM      4  O   UNL     1      -8.398  -8.804  17.875  0.00  0.00    -0.387 OA
ATOM     35  H   UNL     1      -8.273  -8.222  18.643  0.00  0.00    +0.210 HD
ENDBRANCH  14   4
BRANCH  15   5
ATOM      5  O   UNL     1      -7.526  -9.571  15.380  0.00  0.00    -0.387 OA
ATOM     36  H   UNL     1      -7.038  -9.667  14.545  0.00  0.00    +0.210 HD
ENDBRANCH  15   5
BRANCH  13  17
ATOM     17  C   UNL     1      -7.773 -11.621  19.264  0.00  0.00    +0.130 C 
BRANCH  17  19
ATOM      6  O   UNL     1      -8.547 -13.842  18.937  0.00  0.00    -0.276 OA
ATOM      9  N   UNL     1     -10.091 -12.309  19.754  0.00  0.00    -0.298 N 
ATOM     11  N   UNL     1     -12.680 -11.665  20.878  0.00  0.00    -0.312 N 
ATOM     12  N   UNL     1     -14.669 -10.391  20.887  0.00  0.00    -0.240 NA
ATOM     19  C   UNL     1      -8.830 -12.698  19.301  0.00  0.00    +0.218 C 
ATOM     20  C   UNL     1     -11.169 -13.291  19.815  0.00  0.00    +0.126 C 
ATOM     21  C   UNL     1     -10.421 -10.951  20.195  0.00  0.00    +0.126 C 
ATOM     22  C   UNL     1     -12.128 -13.019  20.972  0.00  0.00    +0.125 C 
ATOM     23  C   UNL     1     -11.921 -10.658  20.132  0.00  0.00    +0.125 C 
ATOM     24  C   UNL     1     -13.910 -11.357  21.453  0.00  0.00    +0.121 A 
ATOM     26  C   UNL     1     -14.279 -12.072  22.581  0.00  0.00    +0.043 A 
ATOM     29  C   UNL     1     -15.506 -11.777  23.166  0.00  0.00    +0.005 A 
ATOM     30  C   UNL     1     -15.854 -10.131  21.483  0.00  0.00    +0.113 A 
ATOM     31  C   UNL     1     -16.313 -10.789  22.613  0.00  0.00    +0.020 A 
ENDBRANCH  17  19
ENDBRANCH  13  17
BRANCH  16  18
ATOM     18  C   UNL     1      -4.386 -10.728  16.993  0.00  0.00    +0.140 C 
BRANCH  18  10
ATOM     10  N   UNL     1      -3.454 -10.225  15.966  0.00  0.00    -0.187 NA
ATOM     37  H   UNL     1      -3.801  -9.376  15.499  0.00  0.00    +0.148 HD
BRANCH  10   2
ATOM      2  S   UNL     1      -2.628 -11.316  14.954  0.00  0.00    +0.058 S 
ATOM      7  O   UNL     1      -3.245 -12.625  15.055  0.00  0.00    -0.153 OA
ATOM      8  O   UNL     1      -1.201 -11.165  15.163  0.00  0.00    -0.153 OA
BRANCH   2  25
ATOM      1 CL   UNL     1      -3.905  -9.003   9.260  0.00  0.00    -0.084 Cl
ATOM     25  C   UNL     1      -2.987 -10.665  13.351  0.00  0.00    +0.105 A 
ATOM     27  C   UNL     1      -1.951 -10.406  12.455  0.00  0.00    +0.030 A 
ATOM     28  C   UNL     1      -4.308 -10.410  12.982  0.00  0.00    +0.030 A 
ATOM     32  C   UNL     1      -2.234  -9.891  11.190  0.00  0.00    +0.022 A 
ATOM     33  C   UNL     1      -4.592  -9.896  11.716  0.00  0.00    +0.022 A 
ATOM     34  C   UNL     1      -3.555  -9.636  10.821  0.00  0.00    +0.041 A 
ENDBRANCH   2  25
ENDBRANCH  10   2
ENDBRANCH  18  10
ENDBRANCH  16  18
TORSDOF 8
ENDMDL
MODEL 3
REMARK VINA RESULT:      -7.3      4.125      8.265
REMARK  Name = 26744682
REMARK  8 active torsions:
REMARK  status: ('A' for Active; 'I' for Inactive)
REMARK    1  A    between atoms: S_2  and  N_10
REMARK    2  A    between atoms: S_2  and  C_25
REMARK    3  A    between atoms: O_4  and  C_14
REMARK    4  A    between atoms: O_5  and  C_15
REMARK    5  A    between atoms: N_10  and  C_18
REMARK    6  A    between atoms: C_13  and  C_17
REMARK    7  A    between atoms: C_16  and  C_18
REMARK    8  A    between atoms: C_17  and  C_19
REMARK                            x       y       z     vdW  Elec       q    Type
REMARK                         _______ _______ _______ _____ _____    ______ ____
ROOT
ATOM      3  O   UNL     1      -6.001 -12.182  16.785  0.00  0.00    -0.366 OA
ATOM     13  C   UNL     1      -4.655 -11.748  16.522  0.00  0.00    +0.158 C 
ATOM     14  C   UNL     1      -4.054 -11.426  17.879  0.00  0.00    +0.175 C 
ATOM     15  C   UNL     1      -4.701 -12.479  18.755  0.00  0.00    +0.175 C 
ATOM     16  C   UNL     1      -6.111 -12.547  18.181  0.00  0.00    +0.165 C 
ENDROOT
BRANCH  14   4
ATOM      4  O   UNL     1      -2.644 -11.498  17.864  0.00  0.00    -0.387 OA
ATOM     35  H   UNL     1      -2.378 -12.114  18.568  0.00  0.00    +0.210 HD
ENDBRANCH  14   4
BRANCH  15   5
ATOM      5  O   UNL     1      -4.076 -13.746  18.549  0.00  0.00    -0.387 OA
ATOM     36  H   UNL     1      -3.126 -13.632  18.717  0.00  0.00    +0.210 HD
ENDBRANCH  15   5
BRANCH  13  17
ATOM     17  C   UNL     1      -4.678 -10.561  15.575  0.00  0.00    +0.130 C 
BRANCH  17  19
ATOM      6  O   UNL     1      -2.371 -10.757  15.051  0.00  0.00    -0.276 OA
ATOM      9  N   UNL     1      -3.838 -10.589  13.257  0.00  0.00    -0.298 N 
ATOM     11  N   UNL     1      -4.403 -10.698  10.419  0.00  0.00    -0.312 N 
ATOM     12  N   UNL     1      -5.330  -9.759   8.460  0.00  0.00    -0.240 NA
ATOM     19  C   UNL     1      -3.519 -10.647  14.613  0.00  0.00    +0.218 C 
ATOM     20  C   UNL     1      -2.771 -10.662  12.262  0.00  0.00    +0.126 C 
ATOM     21  C   UNL     1      -5.204 -10.470  12.739  0.00  0.00    +0.126 C 
ATOM     22  C   UNL     1      -3.227 -11.364  10.984  0.00  0.00    +0.125 C 
ATOM     23  C   UNL     1      -5.250  -9.909  11.317  0.00  0.00    +0.125 C 
ATOM     24  C   UNL     1      -4.685 -10.786   9.059  0.00  0.00    +0.121 A 
ATOM     26  C   UNL     1      -4.280 -11.936   8.400  0.00  0.00    +0.043 A 
ATOM     29  C   UNL     1      -4.554 -12.039   7.041  0.00  0.00    +0.005 A 
ATOM     30  C   UNL     1      -5.578  -9.894   7.138  0.00  0.00    +0.113 A 
ATOM     31  C   UNL     1      -5.215 -11.002   6.391  0.00  0.00    +0.020 A 
ENDBRANCH  17  19
ENDBRANCH  13  17
BRANCH  16  18
ATOM     18  C   UNL     1      -7.073 -11.571  18.843  0.00  0.00    +0.140 C 
BRANCH  18  10
ATOM     10  N   UNL     1      -8.296 -11.455  18.028  0.00  0.00    -0.187 NA
ATOM     37  H   UNL     1      -8.137 -10.945  17.148  0.00  0.00    +0.148 HD
BRANCH  10   2
ATOM      2  S   UNL     1      -9.795 -11.152  18.775  0.00  0.00    +0.058 S 
ATOM      7  O   UNL     1      -9.577 -10.811  20.168  0.00  0.00    -0.153 OA
ATOM      8  O   UNL     1     -10.721 -12.210  18.420  0.00  0.00    -0.153 OA
BRANCH   2  25
ATOM      1 CL   UNL     1     -11.693  -5.969  15.785  0.00  0.00    -0.084 Cl
ATOM     25  C   UNL     1     -10.330  -9.693  17.933  0.00  0.00    +0.105 A 
ATOM     27  C   UNL     1     -11.691  -9.421  17.803  0.00  0.00    +0.030 A 
ATOM     28  C   UNL     1      -9.389  -8.812  17.398  0.00  0.00    +0.030 A 
ATOM     32  C   UNL     1     -12.113  -8.270  17.138  0.00  0.00    +0.022 A 
ATOM     33  C   UNL     1      -9.811  -7.660  16.734  0.00  0.00    +0.022 A 
ATOM     34  C   UNL     1     -11.172  -7.390  16.604  0.00  0.00    +0.041 A 
ENDBRANCH   2  25
ENDBRANCH  10   2
ENDBRANCH  18  10
ENDBRANCH  16  18
TORSDOF 8
ENDMDL
MODEL 4
REMARK VINA RESULT:      -7.3      1.958      3.354
REMARK  Name = 26744682
REMARK  8 active torsions:
REMARK  status: ('A' for Active; 'I' for Inactive)
REMARK    1  A    between atoms: S_2  and  N_10
REMARK    2  A    between atoms: S_2  and  C_25
REMARK    3  A    between atoms: O_4  and  C_14
REMARK    4  A    between atoms: O_5  and  C_15
REMARK    5  A    between atoms: N_10  and  C_18
REMARK    6  A    between atoms: C_13  and  C_17
REMARK    7  A    between atoms: C_16  and  C_18
REMARK    8  A    between atoms: C_17  and  C_19
REMARK                            x       y       z     vdW  Elec       q    Type
REMARK                         _______ _______ _______ _____ _____    ______ ____
ROOT
ATOM      3  O   UNL     1      -5.763 -10.842  18.275  0.00  0.00    -0.366 OA
ATOM     13  C   UNL     1      -5.881 -12.234  18.618  0.00  0.00    +0.158 C 
ATOM     14  C   UNL     1      -4.755 -12.936  17.880  0.00  0.00    +0.175 C 
ATOM     15  C   UNL     1      -3.657 -11.895  17.942  0.00  0.00    +0.175 C 
ATOM     16  C   UNL     1      -4.437 -10.599  17.752  0.00  0.00    +0.165 C 
ENDROOT
BRANCH  14   4
ATOM      4  O   UNL     1      -4.402 -14.159  18.492  0.00  0.00    -0.387 OA
ATOM     35  H   UNL     1      -5.127 -14.403  19.092  0.00  0.00    +0.210 HD
ENDBRANCH  14   4
BRANCH  15   5
ATOM      5  O   UNL     1      -3.068 -11.872  19.242  0.00  0.00    -0.387 OA
ATOM     36  H   UNL     1      -3.492 -11.153  19.740  0.00  0.00    +0.210 HD
ENDBRANCH  15   5
BRANCH  13  17
ATOM     17  C   UNL     1      -7.261 -12.739  18.233  0.00  0.00    +0.130 C 
BRANCH  17  19
ATOM      6  O   UNL     1      -8.517 -11.936  20.082  0.00  0.00    -0.276 OA
ATOM      9  N   UNL     1      -9.029 -11.034  18.002  0.00  0.00    -0.298 N 
ATOM     11  N   UNL     1     -10.408  -9.106  16.340  0.00  0.00    -0.312 N 
ATOM     12  N   UNL     1     -11.771  -8.579  14.484  0.00  0.00    -0.240 NA
ATOM     19  C   UNL     1      -8.321 -11.871  18.866  0.00  0.00    +0.218 C 
ATOM     20  C   UNL     1     -10.074 -10.167  18.536  0.00  0.00    +0.126 C 
ATOM     21  C   UNL     1      -8.787 -10.951  16.559  0.00  0.00    +0.126 C 
ATOM     22  C   UNL     1     -10.178  -8.852  17.764  0.00  0.00    +0.125 C 
ATOM     23  C   UNL     1      -9.987 -10.398  15.790  0.00  0.00    +0.125 C 
ATOM     24  C   UNL     1     -11.040  -8.157  15.541  0.00  0.00    +0.121 A 
ATOM     26  C   UNL     1     -10.876  -6.826  15.889  0.00  0.00    +0.043 A 
ATOM     29  C   UNL     1     -11.503  -5.866  15.101  0.00  0.00    +0.005 A 
ATOM     30  C   UNL     1     -12.365  -7.618  13.742  0.00  0.00    +0.113 A 
ATOM     31  C   UNL     1     -12.262  -6.262  14.006  0.00  0.00    +0.020 A 
ENDBRANCH  17  19
ENDBRANCH  13  17
BRANCH  16  18
ATOM     18  C   UNL     1      -4.579 -10.196  16.291  0.00  0.00    +0.140 C 
BRANCH  18  10
ATOM     10  N   UNL     1      -3.268 -10.296  15.623  0.00  0.00    -0.187 NA
ATOM     37  H   UNL     1      -2.885  -9.376  15.364  0.00  0.00    +0.148 HD
BRANCH  10   2
ATOM      2  S   UNL     1      -2.974 -11.540  14.499  0.00  0.00    +0.058 S 
ATOM      7  O   UNL     1      -3.967 -12.584  14.669  0.00  0.00    -0.153 OA
ATOM      8  O   UNL     1      -1.561 -11.867  14.516  0.00  0.00    -0.153 OA
BRANCH   2  25
ATOM      1 CL   UNL     1      -4.119  -8.640   9.051  0.00  0.00    -0.084 Cl
ATOM     25  C   UNL     1      -3.297 -10.724  12.965  0.00  0.00    +0.105 A 
ATOM     27  C   UNL     1      -4.605 -10.393  12.612  0.00  0.00    +0.030 A 
ATOM     28  C   UNL     1      -2.242 -10.409  12.107  0.00  0.00    +0.030 A 
ATOM     32  C   UNL     1      -4.859  -9.750  11.400  0.00  0.00    +0.022 A 
ATOM     33  C   UNL     1      -2.496  -9.764  10.896  0.00  0.00    +0.022 A 
ATOM     34  C   UNL     1      -3.804  -9.436  10.543  0.00  0.00    +0.041 A 
ENDBRANCH   2  25
ENDBRANCH  10   2
ENDBRANCH  18  10
ENDBRANCH  16  18
TORSDOF 8
ENDMDL
MODEL 5
REMARK VINA RESULT:      -7.1     29.346     31.948
REMARK  Name = 26744682
REMARK  8 active torsions:
REMARK  status: ('A' for Active; 'I' for Inactive)
REMARK    1  A    between atoms: S_2  and  N_10
REMARK    2  A    between atoms: S_2  and  C_25
REMARK    3  A    between atoms: O_4  and  C_14
REMARK    4  A    between atoms: O_5  and  C_15
REMARK    5  A    between atoms: N_10  and  C_18
REMARK    6  A    between atoms: C_13  and  C_17
REMARK    7  A    between atoms: C_16  and  C_18
REMARK    8  A    between atoms: C_17  and  C_19
REMARK                            x       y       z     vdW  Elec       q    Type
REMARK                         _______ _______ _______ _____ _____    ______ ____
ROOT
ATOM      3  O   UNL     1      19.740   5.396  20.030  0.00  0.00    -0.366 OA
ATOM     13  C   UNL     1      19.384   6.661  20.616  0.00  0.00    +0.158 C 
ATOM     14  C   UNL     1      20.452   6.946  21.659  0.00  0.00    +0.175 C 
ATOM     15  C   UNL     1      21.685   6.367  20.996  0.00  0.00    +0.175 C 
ATOM     16  C   UNL     1      21.128   5.117  20.325  0.00  0.00    +0.165 C 
ENDROOT
BRANCH  14   4
ATOM      4  O   UNL     1      20.562   8.324  21.941  0.00  0.00    -0.387 OA
ATOM     35  H   UNL     1      20.785   8.411  22.884  0.00  0.00    +0.210 HD
ENDBRANCH  14   4
BRANCH  15   5
ATOM      5  O   UNL     1      22.156   7.246  19.974  0.00  0.00    -0.387 OA
ATOM     36  H   UNL     1      22.404   6.697  19.211  0.00  0.00    +0.210 HD
ENDBRANCH  15   5
BRANCH  13  17
ATOM     17  C   UNL     1      17.983   6.579  21.196  0.00  0.00    +0.130 C 
BRANCH  17  19
ATOM      6  O   UNL     1      17.785   8.865  21.807  0.00  0.00    -0.276 OA
ATOM      9  N   UNL     1      16.201   8.042  20.320  0.00  0.00    -0.298 N 
ATOM     11  N   UNL     1      13.996   8.433  18.484  0.00  0.00    -0.312 N 
ATOM     12  N   UNL     1      11.834   7.888  17.708  0.00  0.00    -0.240 NA
ATOM     19  C   UNL     1      17.323   7.935  21.142  0.00  0.00    +0.218 C 
ATOM     20  C   UNL     1      15.503   9.320  20.217  0.00  0.00    +0.126 C 
ATOM     21  C   UNL     1      15.660   6.938  19.522  0.00  0.00    +0.126 C 
ATOM     22  C   UNL     1      14.900   9.533  18.830  0.00  0.00    +0.125 C 
ATOM     23  C   UNL     1      14.190   7.142  19.151  0.00  0.00    +0.125 C 
ATOM     24  C   UNL     1      12.961   8.622  17.573  0.00  0.00    +0.121 A 
ATOM     26  C   UNL     1      13.158   9.564  16.576  0.00  0.00    +0.043 A 
ATOM     29  C   UNL     1      12.132   9.766  15.659  0.00  0.00    +0.005 A 
ATOM     30  C   UNL     1      10.858   8.111  16.798  0.00  0.00    +0.113 A 
ATOM     31  C   UNL     1      10.958   9.028  15.765  0.00  0.00    +0.020 A 
ENDBRANCH  17  19
ENDBRANCH  13  17
BRANCH  16  18
ATOM     18  C   UNL     1      21.175   3.888  21.222  0.00  0.00    +0.140 C 
BRANCH  18  10
ATOM     10  N   UNL     1      22.135   2.913  20.672  0.00  0.00    -0.187 NA
ATOM     37  H   UNL     1      21.674   2.075  20.292  0.00  0.00    +0.148 HD
BRANCH  10   2
ATOM      2  S   UNL     1      23.610   2.623  21.471  0.00  0.00    +0.058 S 
ATOM      7  O   UNL     1      23.991   1.236  21.285  0.00  0.00    -0.153 OA
ATOM      8  O   UNL     1      23.544   3.189  22.805  0.00  0.00    -0.153 OA
BRANCH   2  25
ATOM      1 CL   UNL     1      27.581   6.188  18.164  0.00  0.00    -0.084 Cl
ATOM     25  C   UNL     1      24.729   3.626  20.540  0.00  0.00    +0.105 A 
ATOM     27  C   UNL     1      25.449   3.072  19.483  0.00  0.00    +0.030 A 
ATOM     28  C   UNL     1      24.890   4.975  20.862  0.00  0.00    +0.030 A 
ATOM     32  C   UNL     1      26.332   3.864  18.749  0.00  0.00    +0.022 A 
ATOM     33  C   UNL     1      25.772   5.767  20.127  0.00  0.00    +0.022 A 
ATOM     34  C   UNL     1      26.493   5.211  19.072  0.00  0.00    +0.041 A 
ENDBRANCH   2  25
ENDBRANCH  10   2
ENDBRANCH  18  10
ENDBRANCH  16  18
TORSDOF 8
ENDMDL
MODEL 6
REMARK VINA RESULT:      -7.0     29.046     31.687
REMARK  Name = 26744682
REMARK  8 active torsions:
REMARK  status: ('A' for Active; 'I' for Inactive)
REMARK    1  A    between atoms: S_2  and  N_10
REMARK    2  A    between atoms: S_2  and  C_25
REMARK    3  A    between atoms: O_4  and  C_14
REMARK    4  A    between atoms: O_5  and  C_15
REMARK    5  A    between atoms: N_10  and  C_18
REMARK    6  A    between atoms: C_13  and  C_17
REMARK    7  A    between atoms: C_16  and  C_18
REMARK    8  A    between atoms: C_17  and  C_19
REMARK                            x       y       z     vdW  Elec       q    Type
REMARK                         _______ _______ _______ _____ _____    ______ ____
ROOT
ATOM      3  O   UNL     1      19.674   5.347  20.024  0.00  0.00    -0.366 OA
ATOM     13  C   UNL     1      19.407   6.613  20.653  0.00  0.00    +0.158 C 
ATOM     14  C   UNL     1      20.505   6.798  21.686  0.00  0.00    +0.175 C 
ATOM     15  C   UNL     1      21.689   6.165  20.987  0.00  0.00    +0.175 C 
ATOM     16  C   UNL     1      21.046   4.972  20.288  0.00  0.00    +0.165 C 
ENDROOT
BRANCH  14   4
ATOM      4  O   UNL     1      20.705   8.158  22.008  0.00  0.00    -0.387 OA
ATOM     35  H   UNL     1      20.947   8.202  22.948  0.00  0.00    +0.210 HD
ENDBRANCH  14   4
BRANCH  15   5
ATOM      5  O   UNL     1      22.200   7.043  19.984  0.00  0.00    -0.387 OA
ATOM     36  H   UNL     1      22.402   6.504  19.201  0.00  0.00    +0.210 HD
ENDBRANCH  15   5
BRANCH  13  17
ATOM     17  C   UNL     1      18.011   6.601  21.252  0.00  0.00    +0.130 C 
BRANCH  17  19
ATOM      6  O   UNL     1      17.907   8.922  21.742  0.00  0.00    -0.276 OA
ATOM      9  N   UNL     1      16.246   8.072  20.357  0.00  0.00    -0.298 N 
ATOM     11  N   UNL     1      13.992   8.435  18.576  0.00  0.00    -0.312 N 
ATOM     12  N   UNL     1      11.787   7.920  17.904  0.00  0.00    -0.240 NA
ATOM     19  C   UNL     1      17.393   7.973  21.145  0.00  0.00    +0.218 C 
ATOM     20  C   UNL     1      15.586   9.365  20.206  0.00  0.00    +0.126 C 
ATOM     21  C   UNL     1      15.643   6.945  19.640  0.00  0.00    +0.126 C 
ATOM     22  C   UNL     1      14.941   9.522  18.830  0.00  0.00    +0.125 C 
ATOM     23  C   UNL     1      14.169   7.177  19.307  0.00  0.00    +0.125 C 
ATOM     24  C   UNL     1      12.931   8.608  17.691  0.00  0.00    +0.121 A 
ATOM     26  C   UNL     1      13.123   9.487  16.637  0.00  0.00    +0.043 A 
ATOM     29  C   UNL     1      12.072   9.672  15.745  0.00  0.00    +0.005 A 
ATOM     30  C   UNL     1      10.788   8.125  17.016  0.00  0.00    +0.113 A 
ATOM     31  C   UNL     1      10.880   8.981  15.931  0.00  0.00    +0.020 A 
ENDBRANCH  17  19
ENDBRANCH  13  17
BRANCH  16  18
ATOM     18  C   UNL     1      21.028   3.716  21.147  0.00  0.00    +0.140 C 
BRANCH  18  10
ATOM     10  N   UNL     1      21.975   2.730  20.596  0.00  0.00    -0.187 NA
ATOM     37  H   UNL     1      21.540   1.810  20.438  0.00  0.00    +0.148 HD
BRANCH  10   2
ATOM      2  S   UNL     1      23.581   2.679  21.160  0.00  0.00    +0.058 S 
ATOM      7  O   UNL     1      24.323   3.789  20.593  0.00  0.00    -0.153 OA
ATOM      8  O   UNL     1      24.083   1.324  21.033  0.00  0.00    -0.153 OA
BRANCH   2  25
ATOM      1 CL   UNL     1      22.821   3.783  27.293  0.00  0.00    -0.084 Cl
ATOM     25  C   UNL     1      23.367   2.990  22.887  0.00  0.00    +0.105 A 
ATOM     27  C   UNL     1      23.735   4.223  23.424  0.00  0.00    +0.030 A 
ATOM     28  C   UNL     1      22.830   2.002  23.712  0.00  0.00    +0.030 A 
ATOM     32  C   UNL     1      23.567   4.468  24.787  0.00  0.00    +0.022 A 
ATOM     33  C   UNL     1      22.661   2.247  25.075  0.00  0.00    +0.022 A 
ATOM     34  C   UNL     1      23.030   3.479  25.612  0.00  0.00    +0.041 A 
ENDBRANCH   2  25
ENDBRANCH  10   2
ENDBRANCH  18  10
ENDBRANCH  16  18
TORSDOF 8
ENDMDL
MODEL 7
REMARK VINA RESULT:      -6.8     25.156     28.758
REMARK  Name = 26744682
REMARK  8 active torsions:
REMARK  status: ('A' for Active; 'I' for Inactive)
REMARK    1  A    between atoms: S_2  and  N_10
REMARK    2  A    between atoms: S_2  and  C_25
REMARK    3  A    between atoms: O_4  and  C_14
REMARK    4  A    between atoms: O_5  and  C_15
REMARK    5  A    between atoms: N_10  and  C_18
REMARK    6  A    between atoms: C_13  and  C_17
REMARK    7  A    between atoms: C_16  and  C_18
REMARK    8  A    between atoms: C_17  and  C_19
REMARK                            x       y       z     vdW  Elec       q    Type
REMARK                         _______ _______ _______ _____ _____    ______ ____
ROOT
ATOM      3  O   UNL     1       9.468   5.983   5.910  0.00  0.00    -0.366 OA
ATOM     13  C   UNL     1      10.875   5.787   5.679  0.00  0.00    +0.158 C 
ATOM     14  C   UNL     1      11.583   6.565   6.775  0.00  0.00    +0.175 C 
ATOM     15  C   UNL     1      10.639   6.371   7.944  0.00  0.00    +0.175 C 
ATOM     16  C   UNL     1       9.275   6.446   7.267  0.00  0.00    +0.165 C 
ENDROOT
BRANCH  14   4
ATOM      4  O   UNL     1      12.884   6.073   7.018  0.00  0.00    -0.387 OA
ATOM     35  H   UNL     1      13.127   5.510   6.263  0.00  0.00    +0.210 HD
ENDBRANCH  14   4
BRANCH  15   5
ATOM      5  O   UNL     1      10.791   5.061   8.491  0.00  0.00    -0.387 OA
ATOM     36  H   UNL     1      10.178   4.475   8.015  0.00  0.00    +0.210 HD
ENDBRANCH  15   5
BRANCH  13  17
ATOM     17  C   UNL     1      11.232   6.255   4.280  0.00  0.00    +0.130 C 
BRANCH  17  19
ATOM      6  O   UNL     1      10.286   4.258   3.411  0.00  0.00    -0.276 OA
ATOM      9  N   UNL     1      12.217   5.033   2.377  0.00  0.00    -0.298 N 
ATOM     11  N   UNL     1      14.170   4.934   0.241  0.00  0.00    -0.312 N 
ATOM     12  N   UNL     1      16.407   4.849  -0.509  0.00  0.00    -0.240 NA
ATOM     19  C   UNL     1      11.192   5.090   3.322  0.00  0.00    +0.218 C 
ATOM     20  C   UNL     1      12.252   3.934   1.417  0.00  0.00    +0.126 C 
ATOM     21  C   UNL     1      13.287   6.029   2.266  0.00  0.00    +0.126 C 
ATOM     22  C   UNL     1      12.829   4.368   0.071  0.00  0.00    +0.125 C 
ATOM     23  C   UNL     1      14.526   5.488   1.550  0.00  0.00    +0.125 C 
ATOM     24  C   UNL     1      15.089   4.913  -0.804  0.00  0.00    +0.121 A 
ATOM     26  C   UNL     1      14.584   4.960  -2.093  0.00  0.00    +0.043 A 
ATOM     29  C   UNL     1      15.490   4.939  -3.148  0.00  0.00    +0.005 A 
ATOM     30  C   UNL     1      17.258   4.830  -1.560  0.00  0.00    +0.113 A 
ATOM     31  C   UNL     1      16.854   4.873  -2.885  0.00  0.00    +0.020 A 
ENDBRANCH  17  19
ENDBRANCH  13  17
BRANCH  16  18
ATOM     18  C   UNL     1       8.719   7.861   7.201  0.00  0.00    +0.140 C 
BRANCH  18  10
ATOM     10  N   UNL     1       7.997   8.049   5.930  0.00  0.00    -0.187 NA
ATOM     37  H   UNL     1       8.043   7.218   5.323  0.00  0.00    +0.148 HD
BRANCH  10   2
ATOM      2  S   UNL     1       8.075   9.541   5.114  0.00  0.00    +0.058 S 
ATOM      7  O   UNL     1       8.859  10.476   5.899  0.00  0.00    -0.153 OA
ATOM      8  O   UNL     1       6.745   9.902   4.664  0.00  0.00    -0.153 OA
BRANCH   2  25
ATOM      1 CL   UNL     1      11.394   8.035   0.003  0.00  0.00    -0.084 Cl
ATOM     25  C   UNL     1       9.010   9.118   3.675  0.00  0.00    +0.105 A 
ATOM     27  C   UNL     1      10.273   9.673   3.475  0.00  0.00    +0.030 A 
ATOM     28  C   UNL     1       8.484   8.226   2.739  0.00  0.00    +0.030 A 
ATOM     32  C   UNL     1      11.010   9.339   2.339  0.00  0.00    +0.022 A 
ATOM     33  C   UNL     1       9.222   7.891   1.604  0.00  0.00    +0.022 A 
ATOM     34  C   UNL     1      10.484   8.448   1.404  0.00  0.00    +0.041 A 
ENDBRANCH   2  25
ENDBRANCH  10   2
ENDBRANCH  18  10
ENDBRANCH  16  18
TORSDOF 8
ENDMDL
MODEL 8
REMARK VINA RESULT:      -6.8      2.163      2.880
REMARK  Name = 26744682
REMARK  8 active torsions:
REMARK  status: ('A' for Active; 'I' for Inactive)
REMARK    1  A    between atoms: S_2  and  N_10
REMARK    2  A    between atoms: S_2  and  C_25
REMARK    3  A    between atoms: O_4  and  C_14
REMARK    4  A    between atoms: O_5  and  C_15
REMARK    5  A    between atoms: N_10  and  C_18
REMARK    6  A    between atoms: C_13  and  C_17
REMARK    7  A    between atoms: C_16  and  C_18
REMARK    8  A    between atoms: C_17  and  C_19
REMARK                            x       y       z     vdW  Elec       q    Type
REMARK                         _______ _______ _______ _____ _____    ______ ____
ROOT
ATOM      3  O   UNL     1      -9.611 -10.211  17.850  0.00  0.00    -0.366 OA
ATOM     13  C   UNL     1     -11.023 -10.167  18.124  0.00  0.00    +0.158 C 
ATOM     14  C   UNL     1     -11.273 -11.240  19.170  0.00  0.00    +0.175 C 
ATOM     15  C   UNL     1     -10.006 -11.159  19.996  0.00  0.00    +0.175 C 
ATOM     16  C   UNL     1      -8.946 -10.909  18.929  0.00  0.00    +0.165 C 
ENDROOT
BRANCH  14   4
ATOM      4  O   UNL     1     -12.445 -10.990  19.916  0.00  0.00    -0.387 OA
ATOM     35  H   UNL     1     -12.169 -10.736  20.813  0.00  0.00    +0.210 HD
ENDBRANCH  14   4
BRANCH  15   5
ATOM      5  O   UNL     1     -10.047 -10.021  20.856  0.00  0.00    -0.387 OA
ATOM     36  H   UNL     1      -9.136  -9.696  20.950  0.00  0.00    +0.210 HD
ENDBRANCH  15   5
BRANCH  13  17
ATOM     17  C   UNL     1     -11.800 -10.386  16.838  0.00  0.00    +0.130 C 
BRANCH  17  19
ATOM      6  O   UNL     1     -13.782  -9.289  17.548  0.00  0.00    -0.276 OA
ATOM      9  N   UNL     1     -12.787  -8.491  15.606  0.00  0.00    -0.298 N 
ATOM     11  N   UNL     1     -12.569  -6.535  13.482  0.00  0.00    -0.312 N 
ATOM     12  N   UNL     1     -12.430  -5.981  11.190  0.00  0.00    -0.240 NA
ATOM     19  C   UNL     1     -12.882  -9.343  16.706  0.00  0.00    +0.218 C 
ATOM     20  C   UNL     1     -13.798  -7.457  15.405  0.00  0.00    +0.126 C 
ATOM     21  C   UNL     1     -11.711  -8.550  14.613  0.00  0.00    +0.126 C 
ATOM     22  C   UNL     1     -13.215  -6.204  14.755  0.00  0.00    +0.125 C 
ATOM     23  C   UNL     1     -12.100  -7.908  13.280  0.00  0.00    +0.125 C 
ATOM     24  C   UNL     1     -12.437  -5.577  12.481  0.00  0.00    +0.121 A 
ATOM     26  C   UNL     1     -12.322  -4.255  12.880  0.00  0.00    +0.043 A 
ATOM     29  C   UNL     1     -12.191  -3.285  11.891  0.00  0.00    +0.005 A 
ATOM     30  C   UNL     1     -12.302  -5.011  10.257  0.00  0.00    +0.113 A 
ATOM     31  C   UNL     1     -12.179  -3.663  10.553  0.00  0.00    +0.020 A 
ENDBRANCH  17  19
ENDBRANCH  13  17
BRANCH  16  18
ATOM     18  C   UNL     1      -8.357 -12.192  18.360  0.00  0.00    +0.140 C 
BRANCH  18  10
ATOM     10  N   UNL     1      -7.220 -11.864  17.481  0.00  0.00    -0.187 NA
ATOM     37  H   UNL     1      -7.193 -12.449  16.634  0.00  0.00    +0.148 HD
BRANCH  10   2
ATOM      2  S   UNL     1      -5.698 -11.501  18.152  0.00  0.00    +0.058 S 
ATOM      7  O   UNL     1      -5.158 -12.688  18.787  0.00  0.00    -0.153 OA
ATOM      8  O   UNL     1      -5.793 -10.257  18.891  0.00  0.00    -0.153 OA
BRANCH   2  25
ATOM      1 CL   UNL     1      -2.279 -10.327  13.020  0.00  0.00    -0.084 Cl
ATOM     25  C   UNL     1      -4.736 -11.171  16.706  0.00  0.00    +0.105 A 
ATOM     27  C   UNL     1      -5.368 -10.933  15.486  0.00  0.00    +0.030 A 
ATOM     28  C   UNL     1      -3.343 -11.147  16.786  0.00  0.00    +0.030 A 
ATOM     32  C   UNL     1      -4.608 -10.672  14.346  0.00  0.00    +0.022 A 
ATOM     33  C   UNL     1      -2.583 -10.886  15.646  0.00  0.00    +0.022 A 
ATOM     34  C   UNL     1      -3.216 -10.649  14.426  0.00  0.00    +0.041 A 
ENDBRANCH   2  25
ENDBRANCH  10   2
ENDBRANCH  18  10
ENDBRANCH  16  18
TORSDOF 8
ENDMDL
MODEL 9
REMARK VINA RESULT:      -6.7      3.705      7.191
REMARK  Name = 26744682
REMARK  8 active torsions:
REMARK  status: ('A' for Active; 'I' for Inactive)
REMARK    1  A    between atoms: S_2  and  N_10
REMARK    2  A    between atoms: S_2  and  C_25
REMARK    3  A    between atoms: O_4  and  C_14
REMARK    4  A    between atoms: O_5  and  C_15
REMARK    5  A    between atoms: N_10  and  C_18
REMARK    6  A    between atoms: C_13  and  C_17
REMARK    7  A    between atoms: C_16  and  C_18
REMARK    8  A    between atoms: C_17  and  C_19
REMARK                            x       y       z     vdW  Elec       q    Type
REMARK                         _______ _______ _______ _____ _____    ______ ____
ROOT
ATOM      3  O   UNL     1      -4.531 -11.561  13.275  0.00  0.00    -0.366 OA
ATOM     13  C   UNL     1      -3.106 -11.381  13.190  0.00  0.00    +0.158 C 
ATOM     14  C   UNL     1      -2.731 -10.504  14.373  0.00  0.00    +0.175 C 
ATOM     15  C   UNL     1      -3.701 -10.991  15.430  0.00  0.00    +0.175 C 
ATOM     16  C   UNL     1      -4.966 -11.231  14.614  0.00  0.00    +0.165 C 
ENDROOT
BRANCH  14   4
ATOM      4  O   UNL     1      -1.377 -10.661  14.740  0.00  0.00    -0.387 OA
ATOM     35  H   UNL     1      -1.191 -10.018  15.445  0.00  0.00    +0.210 HD
ENDBRANCH  14   4
BRANCH  15   5
ATOM      5  O   UNL     1      -3.269 -12.245  15.959  0.00  0.00    -0.387 OA
ATOM     36  H   UNL     1      -4.055 -12.699  16.307  0.00  0.00    +0.210 HD
ENDBRANCH  15   5
BRANCH  13  17
ATOM     17  C   UNL     1      -2.748 -10.767  11.848  0.00  0.00    +0.130 C 
BRANCH  17  19
ATOM      6  O   UNL     1      -3.512 -12.472  10.382  0.00  0.00    -0.276 OA
ATOM      9  N   UNL     1      -4.627 -10.436  10.284  0.00  0.00    -0.298 N 
ATOM     11  N   UNL     1      -6.809  -8.776   9.351  0.00  0.00    -0.312 N 
ATOM     12  N   UNL     1      -7.615  -6.795   8.350  0.00  0.00    -0.240 NA
ATOM     19  C   UNL     1      -3.658 -11.312  10.774  0.00  0.00    +0.218 C 
ATOM     20  C   UNL     1      -5.544 -10.886   9.241  0.00  0.00    +0.126 C 
ATOM     21  C   UNL     1      -4.806  -9.061  10.760  0.00  0.00    +0.126 C 
ATOM     22  C   UNL     1      -6.921 -10.237   9.370  0.00  0.00    +0.125 C 
ATOM     23  C   UNL     1      -5.533  -8.175   9.747  0.00  0.00    +0.125 C 
ATOM     24  C   UNL     1      -7.877  -7.986   8.934  0.00  0.00    +0.121 A 
ATOM     26  C   UNL     1      -9.153  -8.482   9.148  0.00  0.00    +0.043 A 
ATOM     29  C   UNL     1     -10.230  -7.705   8.736  0.00  0.00    +0.005 A 
ATOM     30  C   UNL     1      -8.687  -6.068   7.962  0.00  0.00    +0.113 A 
ATOM     31  C   UNL     1     -10.001  -6.473   8.132  0.00  0.00    +0.020 A 
ENDBRANCH  17  19
ENDBRANCH  13  17
BRANCH  16  18
ATOM     18  C   UNL     1      -5.860 -10.002  14.524  0.00  0.00    +0.140 C 
BRANCH  18  10
ATOM     10  N   UNL     1      -6.125  -9.486  15.880  0.00  0.00    -0.187 NA
ATOM     37  H   UNL     1      -5.262  -9.262  16.394  0.00  0.00    +0.148 HD
BRANCH  10   2
ATOM      2  S   UNL     1      -7.369 -10.164  16.824  0.00  0.00    +0.058 S 
ATOM      7  O   UNL     1      -7.098  -9.911  18.227  0.00  0.00    -0.153 OA
ATOM      8  O   UNL     1      -7.629 -11.514  16.363  0.00  0.00    -0.153 OA
BRANCH   2  25
ATOM      1 CL   UNL     1     -12.306  -6.669  15.146  0.00  0.00    -0.084 Cl
ATOM     25  C   UNL     1      -8.759  -9.180  16.351  0.00  0.00    +0.105 A 
ATOM     27  C   UNL     1      -9.333  -9.343  15.091  0.00  0.00    +0.030 A 
ATOM     28  C   UNL     1      -9.283  -8.240  17.240  0.00  0.00    +0.030 A 
ATOM     32  C   UNL     1     -10.430  -8.566  14.718  0.00  0.00    +0.022 A 
ATOM     33  C   UNL     1     -10.380  -7.464  16.867  0.00  0.00    +0.022 A 
ATOM     34  C   UNL     1     -10.952  -7.626  15.606  0.00  0.00    +0.041 A 
ENDBRANCH   2  25
ENDBRANCH  10   2
ENDBRANCH  18  10
ENDBRANCH  16  18
TORSDOF 8
ENDMDL
MODEL 10
REMARK VINA RESULT:      -6.7      3.563      6.322
REMARK  Name = 26744682
REMARK  8 active torsions:
REMARK  status: ('A' for Active; 'I' for Inactive)
REMARK    1  A    between atoms: S_2  and  N_10
REMARK    2  A    between atoms: S_2  and  C_25
REMARK    3  A    between atoms: O_4  and  C_14
REMARK    4  A    between atoms: O_5  and  C_15
REMARK    5  A    between atoms: N_10  and  C_18
REMARK    6  A    between atoms: C_13  and  C_17
REMARK    7  A    between atoms: C_16  and  C_18
REMARK    8  A    between atoms: C_17  and  C_19
REMARK                            x       y       z     vdW  Elec       q    Type
REMARK                         _______ _______ _______ _____ _____    ______ ____
ROOT
ATOM      3  O   UNL     1      -6.142 -12.090  17.374  0.00  0.00    -0.366 OA
ATOM     13  C   UNL     1      -4.947 -11.936  16.588  0.00  0.00    +0.158 C 
ATOM     14  C   UNL     1      -3.965 -11.190  17.474  0.00  0.00    +0.175 C 
ATOM     15  C   UNL     1      -4.299 -11.755  18.839  0.00  0.00    +0.175 C 
ATOM     16  C   UNL     1      -5.816 -11.884  18.768  0.00  0.00    +0.165 C 
ENDROOT
BRANCH  14   4
ATOM      4  O   UNL     1      -2.626 -11.413  17.087  0.00  0.00    -0.387 OA
ATOM     35  H   UNL     1      -2.191 -11.893  17.812  0.00  0.00    +0.210 HD
ENDBRANCH  14   4
BRANCH  15   5
ATOM      5  O   UNL     1      -3.749 -13.065  18.981  0.00  0.00    -0.387 OA
ATOM     36  H   UNL     1      -3.080 -13.176  18.284  0.00  0.00    +0.210 HD
ENDBRANCH  15   5
BRANCH  13  17
ATOM     17  C   UNL     1      -5.275 -11.201  15.300  0.00  0.00    +0.130 C 
BRANCH  17  19
ATOM      6  O   UNL     1      -5.910 -13.125  14.061  0.00  0.00    -0.276 OA
ATOM      9  N   UNL     1      -7.489 -11.429  14.235  0.00  0.00    -0.298 N 
ATOM     11  N   UNL     1     -10.170 -10.406  13.856  0.00  0.00    -0.312 N 
ATOM     12  N   UNL     1     -11.656  -8.742  13.078  0.00  0.00    -0.240 NA
ATOM     19  C   UNL     1      -6.245 -12.013  14.477  0.00  0.00    +0.218 C 
ATOM     20  C   UNL     1      -8.481 -12.149  13.444  0.00  0.00    +0.126 C 
ATOM     21  C   UNL     1      -7.888 -10.112  14.740  0.00  0.00    +0.126 C 
ATOM     22  C   UNL     1      -9.907 -11.847  13.901  0.00  0.00    +0.125 C 
ATOM     23  C   UNL     1      -9.028  -9.491  13.932  0.00  0.00    +0.125 C 
ATOM     24  C   UNL     1     -11.468  -9.924  13.708  0.00  0.00    +0.121 A 
ATOM     26  C   UNL     1     -12.494 -10.700  14.223  0.00  0.00    +0.043 A 
ATOM     29  C   UNL     1     -13.797 -10.232  14.083  0.00  0.00    +0.005 A 
ATOM     30  C   UNL     1     -12.935  -8.320  12.960  0.00  0.00    +0.113 A 
ATOM     31  C   UNL     1     -14.029  -9.021  13.441  0.00  0.00    +0.020 A 
ENDBRANCH  17  19
ENDBRANCH  13  17
BRANCH  16  18
ATOM     18  C   UNL     1      -6.544 -10.632  19.237  0.00  0.00    +0.140 C 
BRANCH  18  10
ATOM     10  N   UNL     1      -7.657 -10.336  18.316  0.00  0.00    -0.187 NA
ATOM     37  H   UNL     1      -7.574  -9.406  17.881  0.00  0.00    +0.148 HD
BRANCH  10   2
ATOM      2  S   UNL     1      -9.244 -10.804  18.716  0.00  0.00    +0.058 S 
ATOM      7  O   UNL     1      -9.436 -10.672  20.148  0.00  0.00    -0.153 OA
ATOM      8  O   UNL     1      -9.548 -12.056  18.052  0.00  0.00    -0.153 OA
BRANCH   2  25
ATOM      1 CL   UNL     1     -12.647  -6.353  15.885  0.00  0.00    -0.084 Cl
ATOM     25  C   UNL     1     -10.202  -9.550  17.920  0.00  0.00    +0.105 A 
ATOM     27  C   UNL     1      -9.578  -8.410  17.414  0.00  0.00    +0.030 A 
ATOM     28  C   UNL     1     -11.584  -9.702  17.796  0.00  0.00    +0.030 A 
ATOM     32  C   UNL     1     -10.334  -7.421  16.785  0.00  0.00    +0.022 A 
ATOM     33  C   UNL     1     -12.340  -8.713  17.166  0.00  0.00    +0.022 A 
ATOM     34  C   UNL     1     -11.715  -7.573  16.662  0.00  0.00    +0.041 A 
ENDBRANCH   2  25
ENDBRANCH  10   2
ENDBRANCH  18  10
ENDBRANCH  16  18
TORSDOF 8
ENDMDL
