MODEL 1
REMARK VINA RESULT:      -6.6      0.000      0.000
REMARK  Name = 26742275
REMARK  10 active torsions:
REMARK  status: ('A' for Active; 'I' for Inactive)
REMARK    1  A    between atoms: O_1  and  C_11
REMARK    2  A    between atoms: O_4  and  C_26
REMARK    3  A    between atoms: O_4  and  C_30
REMARK    4  A    between atoms: O_5  and  C_32
REMARK    5  A    between atoms: O_5  and  C_33
REMARK    6  A    between atoms: N_7  and  C_10
REMARK    7  A    between atoms: N_8  and  C_19
REMARK    8  A    between atoms: C_17  and  C_18
REMARK    9  A    between atoms: C_27  and  C_31
REMARK   10  A    between atoms: C_30  and  C_32
REMARK                            x       y       z     vdW  Elec       q    Type
REMARK                         _______ _______ _______ _____ _____    ______ ____
ROOT
ATOM      2  O   UNL     1      13.284  11.334  21.934  0.00  0.00    -0.252 OA
ATOM      6  N   UNL     1      12.484   9.717  20.488  0.00  0.00    -0.284 N 
ATOM      8  N   UNL     1      14.799  10.176  20.608  0.00  0.00    -0.269 N 
ATOM     10  C   UNL     1      12.911   7.255  20.177  0.00  0.00    +0.119 C 
ATOM     11  C   UNL     1      12.142   6.957  21.477  0.00  0.00    +0.136 C 
ATOM     12  C   UNL     1      10.710   7.497  21.542  0.00  0.00    +0.035 C 
ATOM     13  C   UNL     1      12.655   8.620  19.527  0.00  0.00    +0.134 C 
ATOM     14  C   UNL     1      10.634   8.963  21.970  0.00  0.00    +0.022 C 
ATOM     15  C   UNL     1      11.103   9.956  20.915  0.00  0.00    +0.109 C 
ATOM     16  C   UNL     1      13.522  10.480  21.077  0.00  0.00    +0.307 C 
ATOM     36  H   UNL     1      14.897   9.440  19.918  0.00  0.00    +0.156 HD
ENDROOT
BRANCH   8  19
ATOM     19  C   UNL     1      16.031  10.761  20.997  0.00  0.00    +0.036 A 
ATOM     22  C   UNL     1      16.912  11.242  20.028  0.00  0.00    +0.042 A 
ATOM     23  C   UNL     1      16.363  10.854  22.348  0.00  0.00    +0.023 A 
ATOM     27  C   UNL     1      18.123  11.817  20.411  0.00  0.00    +0.054 A 
ATOM     28  C   UNL     1      17.575  11.429  22.731  0.00  0.00    +0.003 A 
ATOM     29  C   UNL     1      18.456  11.911  21.763  0.00  0.00    +0.019 A 
BRANCH  27  31
ATOM      9  N   UNL     1      19.760  12.713  18.614  0.00  0.00    -0.191 NA
ATOM     31  C   UNL     1      19.026  12.311  19.419  0.00  0.00    +0.099 C 
ENDBRANCH  27  31
ENDBRANCH   8  19
BRANCH  10   7
ATOM      3  O   UNL     1      14.949   6.905  18.186  0.00  0.00    -0.270 OA
ATOM      7  N   UNL     1      14.329   7.060  20.414  0.00  0.00    -0.305 N 
ATOM     17  C   UNL     1      15.234   6.901  19.381  0.00  0.00    +0.244 C 
ATOM     34  H   UNL     1      14.656   7.158  21.370  0.00  0.00    +0.149 HD
BRANCH  17  18
ATOM     18  C   UNL     1      16.645   6.686  19.790  0.00  0.00    +0.037 A 
ATOM     20  C   UNL     1      17.237   7.535  20.725  0.00  0.00    +0.016 A 
ATOM     21  C   UNL     1      17.379   5.634  19.240  0.00  0.00    +0.016 A 
ATOM     24  C   UNL     1      18.562   7.333  21.111  0.00  0.00    +0.046 A 
ATOM     25  C   UNL     1      18.704   5.432  19.625  0.00  0.00    +0.046 A 
ATOM     26  C   UNL     1      19.296   6.281  20.560  0.00  0.00    +0.121 A 
BRANCH  26   4
ATOM      4  O   UNL     1      20.589   6.084  20.935  0.00  0.00    -0.490 OA
BRANCH   4  30
ATOM     30  C   UNL     1      21.192   4.845  20.562  0.00  0.00    +0.257 C 
BRANCH  30  32
ATOM     32  C   UNL     1      22.306   4.524  21.537  0.00  0.00    +0.200 C 
BRANCH  32   5
ATOM      5  O   UNL     1      21.765   4.441  22.850  0.00  0.00    -0.380 OA
ATOM     33  C   UNL     1      22.665   4.962  23.819  0.00  0.00    +0.194 C 
ENDBRANCH  32   5
ENDBRANCH  30  32
ENDBRANCH   4  30
ENDBRANCH  26   4
ENDBRANCH  17  18
ENDBRANCH  10   7
BRANCH  11   1
ATOM      1  O   UNL     1      12.061   5.532  21.621  0.00  0.00    -0.390 OA
ATOM     35  H   UNL     1      11.388   5.342  22.297  0.00  0.00    +0.210 HD
ENDBRANCH  11   1
TORSDOF 9
ENDMDL
MODEL 2
REMARK VINA RESULT:      -6.5      1.354      2.092
REMARK  Name = 26742275
REMARK  10 active torsions:
REMARK  status: ('A' for Active; 'I' for Inactive)
REMARK    1  A    between atoms: O_1  and  C_11
REMARK    2  A    between atoms: O_4  and  C_26
REMARK    3  A    between atoms: O_4  and  C_30
REMARK    4  A    between atoms: O_5  and  C_32
REMARK    5  A    between atoms: O_5  and  C_33
REMARK    6  A    between atoms: N_7  and  C_10
REMARK    7  A    between atoms: N_8  and  C_19
REMARK    8  A    between atoms: C_17  and  C_18
REMARK    9  A    between atoms: C_27  and  C_31
REMARK   10  A    between atoms: C_30  and  C_32
REMARK                            x       y       z     vdW  Elec       q    Type
REMARK                         _______ _______ _______ _____ _____    ______ ____
ROOT
ATOM      2  O   UNL     1      13.323  11.284  22.422  0.00  0.00    -0.252 OA
ATOM      6  N   UNL     1      12.501   9.796  20.855  0.00  0.00    -0.284 N 
ATOM      8  N   UNL     1      14.823  10.207  21.013  0.00  0.00    -0.269 N 
ATOM     10  C   UNL     1      12.890   7.359  20.355  0.00  0.00    +0.119 C 
ATOM     11  C   UNL     1      12.112   6.975  21.626  0.00  0.00    +0.136 C 
ATOM     12  C   UNL     1      10.688   7.530  21.730  0.00  0.00    +0.035 C 
ATOM     13  C   UNL     1      12.657   8.774  19.811  0.00  0.00    +0.134 C 
ATOM     14  C   UNL     1      10.635   8.961  22.271  0.00  0.00    +0.022 C 
ATOM     15  C   UNL     1      11.123  10.024  21.296  0.00  0.00    +0.109 C 
ATOM     16  C   UNL     1      13.549  10.494  21.502  0.00  0.00    +0.307 C 
ATOM     36  H   UNL     1      14.911   9.525  20.268  0.00  0.00    +0.156 HD
ENDROOT
BRANCH   8  19
ATOM     19  C   UNL     1      16.063  10.740  21.448  0.00  0.00    +0.036 A 
ATOM     22  C   UNL     1      16.160  11.350  22.700  0.00  0.00    +0.042 A 
ATOM     23  C   UNL     1      17.186  10.655  20.626  0.00  0.00    +0.023 A 
ATOM     27  C   UNL     1      17.379  11.874  23.127  0.00  0.00    +0.054 A 
ATOM     28  C   UNL     1      18.405  11.179  21.053  0.00  0.00    +0.003 A 
ATOM     29  C   UNL     1      18.503  11.789  22.305  0.00  0.00    +0.019 A 
BRANCH  27  31
ATOM      9  N   UNL     1      17.562  13.004  25.451  0.00  0.00    -0.191 NA
ATOM     31  C   UNL     1      17.480  12.498  24.409  0.00  0.00    +0.099 C 
ENDBRANCH  27  31
ENDBRANCH   8  19
BRANCH  10   7
ATOM      3  O   UNL     1      14.885   6.880  18.347  0.00  0.00    -0.270 OA
ATOM      7  N   UNL     1      14.303   7.124  20.578  0.00  0.00    -0.305 N 
ATOM     17  C   UNL     1      15.187   6.903  19.538  0.00  0.00    +0.244 C 
ATOM     34  H   UNL     1      14.648   7.240  21.526  0.00  0.00    +0.149 HD
BRANCH  17  18
ATOM     18  C   UNL     1      16.595   6.652  19.934  0.00  0.00    +0.037 A 
ATOM     20  C   UNL     1      17.403   5.824  19.154  0.00  0.00    +0.016 A 
ATOM     21  C   UNL     1      17.112   7.245  21.087  0.00  0.00    +0.016 A 
ATOM     24  C   UNL     1      18.727   5.589  19.526  0.00  0.00    +0.046 A 
ATOM     25  C   UNL     1      18.435   7.010  21.460  0.00  0.00    +0.046 A 
ATOM     26  C   UNL     1      19.243   6.182  20.679  0.00  0.00    +0.121 A 
BRANCH  26   4
ATOM      4  O   UNL     1      20.534   5.952  21.043  0.00  0.00    -0.490 OA
BRANCH   4  30
ATOM     30  C   UNL     1      21.169   4.799  20.494  0.00  0.00    +0.257 C 
BRANCH  30  32
ATOM     32  C   UNL     1      21.779   3.987  21.619  0.00  0.00    +0.200 C 
BRANCH  32   5
ATOM      5  O   UNL     1      22.423   2.843  21.070  0.00  0.00    -0.380 OA
ATOM     33  C   UNL     1      23.574   2.483  21.820  0.00  0.00    +0.194 C 
ENDBRANCH  32   5
ENDBRANCH  30  32
ENDBRANCH   4  30
ENDBRANCH  26   4
ENDBRANCH  17  18
ENDBRANCH  10   7
BRANCH  11   1
ATOM      1  O   UNL     1      12.008   5.544  21.660  0.00  0.00    -0.390 OA
ATOM     35  H   UNL     1      12.855   5.194  21.983  0.00  0.00    +0.210 HD
ENDBRANCH  11   1
TORSDOF 9
ENDMDL
MODEL 3
REMARK VINA RESULT:      -6.1     16.446     18.994
REMARK  Name = 26742275
REMARK  10 active torsions:
REMARK  status: ('A' for Active; 'I' for Inactive)
REMARK    1  A    between atoms: O_1  and  C_11
REMARK    2  A    between atoms: O_4  and  C_26
REMARK    3  A    between atoms: O_4  and  C_30
REMARK    4  A    between atoms: O_5  and  C_32
REMARK    5  A    between atoms: O_5  and  C_33
REMARK    6  A    between atoms: N_7  and  C_10
REMARK    7  A    between atoms: N_8  and  C_19
REMARK    8  A    between atoms: C_17  and  C_18
REMARK    9  A    between atoms: C_27  and  C_31
REMARK   10  A    between atoms: C_30  and  C_32
REMARK                            x       y       z     vdW  Elec       q    Type
REMARK                         _______ _______ _______ _____ _____    ______ ____
ROOT
ATOM      2  O   UNL     1      15.795   6.563   0.970  0.00  0.00    -0.252 OA
ATOM      6  N   UNL     1      14.799   4.478   0.895  0.00  0.00    -0.284 N 
ATOM      8  N   UNL     1      14.416   5.922   2.726  0.00  0.00    -0.269 N 
ATOM     10  C   UNL     1      12.421   3.650   0.954  0.00  0.00    +0.119 C 
ATOM     11  C   UNL     1      12.202   4.181  -0.474  0.00  0.00    +0.136 C 
ATOM     12  C   UNL     1      13.180   3.666  -1.535  0.00  0.00    +0.035 C 
ATOM     13  C   UNL     1      13.877   3.448   1.393  0.00  0.00    +0.134 C 
ATOM     14  C   UNL     1      14.496   4.444  -1.573  0.00  0.00    +0.022 C 
ATOM     15  C   UNL     1      15.424   4.177  -0.395  0.00  0.00    +0.109 C 
ATOM     16  C   UNL     1      15.058   5.730   1.504  0.00  0.00    +0.307 C 
ATOM     36  H   UNL     1      13.810   5.187   3.073  0.00  0.00    +0.156 HD
ENDROOT
BRANCH   8  19
ATOM     19  C   UNL     1      14.476   7.059   3.571  0.00  0.00    +0.036 A 
ATOM     22  C   UNL     1      15.676   7.402   4.196  0.00  0.00    +0.042 A 
ATOM     23  C   UNL     1      13.335   7.834   3.780  0.00  0.00    +0.023 A 
ATOM     27  C   UNL     1      15.734   8.520   5.027  0.00  0.00    +0.054 A 
ATOM     28  C   UNL     1      13.394   8.952   4.612  0.00  0.00    +0.003 A 
ATOM     29  C   UNL     1      14.593   9.296   5.236  0.00  0.00    +0.019 A 
BRANCH  27  31
ATOM      9  N   UNL     1      17.960   9.161   6.186  0.00  0.00    -0.191 NA
ATOM     31  C   UNL     1      16.963   8.873   5.666  0.00  0.00    +0.099 C 
ENDBRANCH  27  31
ENDBRANCH   8  19
BRANCH  10   7
ATOM      3  O   UNL     1      10.957   2.816   3.278  0.00  0.00    -0.270 OA
ATOM      7  N   UNL     1      11.721   4.508   1.889  0.00  0.00    -0.305 N 
ATOM     17  C   UNL     1      11.042   4.006   2.984  0.00  0.00    +0.244 C 
ATOM     34  H   UNL     1      11.839   5.510   1.776  0.00  0.00    +0.149 HD
BRANCH  17  18
ATOM     18  C   UNL     1      10.354   5.013   3.830  0.00  0.00    +0.037 A 
ATOM     20  C   UNL     1      10.063   4.723   5.163  0.00  0.00    +0.016 A 
ATOM     21  C   UNL     1       9.998   6.251   3.292  0.00  0.00    +0.016 A 
ATOM     24  C   UNL     1       9.417   5.669   5.959  0.00  0.00    +0.046 A 
ATOM     25  C   UNL     1       9.351   7.197   4.087  0.00  0.00    +0.046 A 
ATOM     26  C   UNL     1       9.061   6.907   5.421  0.00  0.00    +0.121 A 
BRANCH  26   4
ATOM      4  O   UNL     1       8.430   7.831   6.196  0.00  0.00    -0.490 OA
BRANCH   4  30
ATOM     30  C   UNL     1       8.937   8.028   7.514  0.00  0.00    +0.257 C 
BRANCH  30  32
ATOM     32  C   UNL     1       9.745   9.310   7.547  0.00  0.00    +0.200 C 
BRANCH  32   5
ATOM      5  O   UNL     1       9.319  10.099   8.651  0.00  0.00    -0.380 OA
ATOM     33  C   UNL     1      10.392  10.852   9.199  0.00  0.00    +0.194 C 
ENDBRANCH  32   5
ENDBRANCH  30  32
ENDBRANCH   4  30
ENDBRANCH  26   4
ENDBRANCH  17  18
ENDBRANCH  10   7
BRANCH  11   1
ATOM      1  O   UNL     1      10.886   3.788  -0.890  0.00  0.00    -0.390 OA
ATOM     35  H   UNL     1      10.255   4.126  -0.231  0.00  0.00    +0.210 HD
ENDBRANCH  11   1
TORSDOF 9
ENDMDL
MODEL 4
REMARK VINA RESULT:      -6.0     16.672     19.247
REMARK  Name = 26742275
REMARK  10 active torsions:
REMARK  status: ('A' for Active; 'I' for Inactive)
REMARK    1  A    between atoms: O_1  and  C_11
REMARK    2  A    between atoms: O_4  and  C_26
REMARK    3  A    between atoms: O_4  and  C_30
REMARK    4  A    between atoms: O_5  and  C_32
REMARK    5  A    between atoms: O_5  and  C_33
REMARK    6  A    between atoms: N_7  and  C_10
REMARK    7  A    between atoms: N_8  and  C_19
REMARK    8  A    between atoms: C_17  and  C_18
REMARK    9  A    between atoms: C_27  and  C_31
REMARK   10  A    between atoms: C_30  and  C_32
REMARK                            x       y       z     vdW  Elec       q    Type
REMARK                         _______ _______ _______ _____ _____    ______ ____
ROOT
ATOM      2  O   UNL     1      16.004   6.750   0.997  0.00  0.00    -0.252 OA
ATOM      6  N   UNL     1      15.060   4.653   0.759  0.00  0.00    -0.284 N 
ATOM      8  N   UNL     1      14.555   5.986   2.644  0.00  0.00    -0.269 N 
ATOM     10  C   UNL     1      12.701   3.776   0.654  0.00  0.00    +0.119 C 
ATOM     11  C   UNL     1      12.540   4.381  -0.752  0.00  0.00    +0.136 C 
ATOM     12  C   UNL     1      13.580   3.944  -1.789  0.00  0.00    +0.035 C 
ATOM     13  C   UNL     1      14.138   3.579   1.154  0.00  0.00    +0.134 C 
ATOM     14  C   UNL     1      14.879   4.749  -1.720  0.00  0.00    +0.022 C 
ATOM     15  C   UNL     1      15.754   4.436  -0.512  0.00  0.00    +0.109 C 
ATOM     16  C   UNL     1      15.261   5.874   1.447  0.00  0.00    +0.307 C 
ATOM     36  H   UNL     1      13.950   5.222   2.920  0.00  0.00    +0.156 HD
ENDROOT
BRANCH   8  19
ATOM     19  C   UNL     1      14.548   7.076   3.552  0.00  0.00    +0.036 A 
ATOM     22  C   UNL     1      13.387   7.830   3.728  0.00  0.00    +0.042 A 
ATOM     23  C   UNL     1      15.702   7.395   4.268  0.00  0.00    +0.023 A 
ATOM     27  C   UNL     1      13.381   8.901   4.621  0.00  0.00    +0.054 A 
ATOM     28  C   UNL     1      15.695   8.467   5.160  0.00  0.00    +0.003 A 
ATOM     29  C   UNL     1      14.534   9.220   5.337  0.00  0.00    +0.019 A 
BRANCH  27  31
ATOM      9  N   UNL     1      11.226  10.301   4.950  0.00  0.00    -0.191 NA
ATOM     31  C   UNL     1      12.192   9.673   4.803  0.00  0.00    +0.099 C 
ENDBRANCH  27  31
ENDBRANCH   8  19
BRANCH  10   7
ATOM      3  O   UNL     1      11.260   2.800   2.937  0.00  0.00    -0.270 OA
ATOM      7  N   UNL     1      11.937   4.567   1.598  0.00  0.00    -0.305 N 
ATOM     17  C   UNL     1      11.276   3.999   2.671  0.00  0.00    +0.244 C 
ATOM     34  H   UNL     1      11.995   5.577   1.510  0.00  0.00    +0.149 HD
BRANCH  17  18
ATOM     18  C   UNL     1      10.515   4.943   3.530  0.00  0.00    +0.037 A 
ATOM     20  C   UNL     1      10.124   4.558   4.812  0.00  0.00    +0.016 A 
ATOM     21  C   UNL     1      10.192   6.214   3.054  0.00  0.00    +0.016 A 
ATOM     24  C   UNL     1       9.411   5.444   5.619  0.00  0.00    +0.046 A 
ATOM     25  C   UNL     1       9.478   7.100   3.861  0.00  0.00    +0.046 A 
ATOM     26  C   UNL     1       9.088   6.716   5.144  0.00  0.00    +0.121 A 
BRANCH  26   4
ATOM      4  O   UNL     1       8.390   7.580   5.930  0.00  0.00    -0.490 OA
BRANCH   4  30
ATOM     30  C   UNL     1       8.605   7.495   7.338  0.00  0.00    +0.257 C 
BRANCH  30  32
ATOM     32  C   UNL     1       9.809   8.339   7.706  0.00  0.00    +0.200 C 
BRANCH  32   5
ATOM      5  O   UNL     1       9.362   9.557   8.291  0.00  0.00    -0.380 OA
ATOM     33  C   UNL     1      10.447  10.428   8.576  0.00  0.00    +0.194 C 
ENDBRANCH  32   5
ENDBRANCH  30  32
ENDBRANCH   4  30
ENDBRANCH  26   4
ENDBRANCH  17  18
ENDBRANCH  10   7
BRANCH  11   1
ATOM      1  O   UNL     1      11.255   3.985  -1.254  0.00  0.00    -0.390 OA
ATOM     35  H   UNL     1      11.044   4.560  -2.010  0.00  0.00    +0.210 HD
ENDBRANCH  11   1
TORSDOF 9
ENDMDL
MODEL 5
REMARK VINA RESULT:      -6.0     28.814     30.935
REMARK  Name = 26742275
REMARK  10 active torsions:
REMARK  status: ('A' for Active; 'I' for Inactive)
REMARK    1  A    between atoms: O_1  and  C_11
REMARK    2  A    between atoms: O_4  and  C_26
REMARK    3  A    between atoms: O_4  and  C_30
REMARK    4  A    between atoms: O_5  and  C_32
REMARK    5  A    between atoms: O_5  and  C_33
REMARK    6  A    between atoms: N_7  and  C_10
REMARK    7  A    between atoms: N_8  and  C_19
REMARK    8  A    between atoms: C_17  and  C_18
REMARK    9  A    between atoms: C_27  and  C_31
REMARK   10  A    between atoms: C_30  and  C_32
REMARK                            x       y       z     vdW  Elec       q    Type
REMARK                         _______ _______ _______ _____ _____    ______ ____
ROOT
ATOM      2  O   UNL     1      -8.463 -10.590  18.138  0.00  0.00    -0.252 OA
ATOM      6  N   UNL     1      -6.840 -12.182  17.714  0.00  0.00    -0.284 N 
ATOM      8  N   UNL     1      -8.039 -11.191  15.935  0.00  0.00    -0.269 N 
ATOM     10  C   UNL     1      -4.718 -12.227  16.359  0.00  0.00    +0.119 C 
ATOM     11  C   UNL     1      -4.037 -11.317  17.397  0.00  0.00    +0.136 C 
ATOM     12  C   UNL     1      -4.049 -11.828  18.841  0.00  0.00    +0.035 C 
ATOM     13  C   UNL     1      -5.979 -12.968  16.821  0.00  0.00    +0.134 C 
ATOM     14  C   UNL     1      -5.347 -11.507  19.585  0.00  0.00    +0.022 C 
ATOM     15  C   UNL     1      -6.550 -12.330  19.142  0.00  0.00    +0.109 C 
ATOM     16  C   UNL     1      -7.839 -11.262  17.313  0.00  0.00    +0.307 C 
ATOM     36  H   UNL     1      -7.461 -11.766  15.333  0.00  0.00    +0.156 HD
ENDROOT
BRANCH   8  19
ATOM     19  C   UNL     1      -8.960 -10.374  15.230  0.00  0.00    +0.036 A 
ATOM     22  C   UNL     1      -9.310  -9.121  15.735  0.00  0.00    +0.042 A 
ATOM     23  C   UNL     1      -9.516 -10.823  14.032  0.00  0.00    +0.023 A 
ATOM     27  C   UNL     1     -10.214  -8.318  15.041  0.00  0.00    +0.054 A 
ATOM     28  C   UNL     1     -10.421 -10.020  13.339  0.00  0.00    +0.003 A 
ATOM     29  C   UNL     1     -10.771  -8.766  13.842  0.00  0.00    +0.019 A 
BRANCH  27  31
ATOM      9  N   UNL     1     -10.866  -5.991  15.975  0.00  0.00    -0.191 NA
ATOM     31  C   UNL     1     -10.573  -7.034  15.556  0.00  0.00    +0.099 C 
ENDBRANCH  27  31
ENDBRANCH   8  19
BRANCH  10   7
ATOM      3  O   UNL     1      -3.001 -11.942  14.077  0.00  0.00    -0.270 OA
ATOM      7  N   UNL     1      -4.990 -11.455  15.162  0.00  0.00    -0.305 N 
ATOM     17  C   UNL     1      -4.093 -11.382  14.112  0.00  0.00    +0.244 C 
ATOM     34  H   UNL     1      -5.919 -11.056  15.069  0.00  0.00    +0.149 HD
BRANCH  17  18
ATOM     18  C   UNL     1      -4.509 -10.529  12.970  0.00  0.00    +0.037 A 
ATOM     20  C   UNL     1      -5.764  -9.918  12.977  0.00  0.00    +0.016 A 
ATOM     21  C   UNL     1      -3.646 -10.337  11.891  0.00  0.00    +0.016 A 
ATOM     24  C   UNL     1      -6.155  -9.116  11.905  0.00  0.00    +0.046 A 
ATOM     25  C   UNL     1      -4.037  -9.536  10.818  0.00  0.00    +0.046 A 
ATOM     26  C   UNL     1      -5.291  -8.925  10.825  0.00  0.00    +0.121 A 
BRANCH  26   4
ATOM      4  O   UNL     1      -5.672  -8.144   9.778  0.00  0.00    -0.490 OA
BRANCH   4  30
ATOM     30  C   UNL     1      -6.953  -8.403   9.206  0.00  0.00    +0.257 C 
BRANCH  30  32
ATOM     32  C   UNL     1      -6.870  -9.652   8.352  0.00  0.00    +0.200 C 
BRANCH  32   5
ATOM      5  O   UNL     1      -5.845  -9.483   7.380  0.00  0.00    -0.380 OA
ATOM     33  C   UNL     1      -5.151 -10.699   7.137  0.00  0.00    +0.194 C 
ENDBRANCH  32   5
ENDBRANCH  30  32
ENDBRANCH   4  30
ENDBRANCH  26   4
ENDBRANCH  17  18
ENDBRANCH  10   7
BRANCH  11   1
ATOM      1  O   UNL     1      -2.662 -11.171  17.015  0.00  0.00    -0.390 OA
ATOM     35  H   UNL     1      -2.115 -11.490  17.754  0.00  0.00    +0.210 HD
ENDBRANCH  11   1
TORSDOF 9
ENDMDL
MODEL 6
REMARK VINA RESULT:      -5.7     19.236     21.883
REMARK  Name = 26742275
REMARK  10 active torsions:
REMARK  status: ('A' for Active; 'I' for Inactive)
REMARK    1  A    between atoms: O_1  and  C_11
REMARK    2  A    between atoms: O_4  and  C_26
REMARK    3  A    between atoms: O_4  and  C_30
REMARK    4  A    between atoms: O_5  and  C_32
REMARK    5  A    between atoms: O_5  and  C_33
REMARK    6  A    between atoms: N_7  and  C_10
REMARK    7  A    between atoms: N_8  and  C_19
REMARK    8  A    between atoms: C_17  and  C_18
REMARK    9  A    between atoms: C_27  and  C_31
REMARK   10  A    between atoms: C_30  and  C_32
REMARK                            x       y       z     vdW  Elec       q    Type
REMARK                         _______ _______ _______ _____ _____    ______ ____
ROOT
ATOM      2  O   UNL     1      12.002  -5.484  34.503  0.00  0.00    -0.252 OA
ATOM      6  N   UNL     1       9.779  -4.855  34.401  0.00  0.00    -0.284 N 
ATOM      8  N   UNL     1      10.742  -6.136  32.664  0.00  0.00    -0.269 N 
ATOM     10  C   UNL     1       7.597  -6.097  34.209  0.00  0.00    +0.119 C 
ATOM     11  C   UNL     1       7.746  -6.581  35.662  0.00  0.00    +0.136 C 
ATOM     12  C   UNL     1       7.926  -5.484  36.715  0.00  0.00    +0.035 C 
ATOM     13  C   UNL     1       8.438  -4.880  33.804  0.00  0.00    +0.134 C 
ATOM     14  C   UNL     1       9.374  -5.006  36.850  0.00  0.00    +0.022 C 
ATOM     15  C   UNL     1       9.872  -4.159  35.686  0.00  0.00    +0.109 C 
ATOM     16  C   UNL     1      10.932  -5.499  33.889  0.00  0.00    +0.307 C 
ATOM     36  H   UNL     1       9.819  -6.114  32.247  0.00  0.00    +0.156 HD
ENDROOT
BRANCH   8  19
ATOM     19  C   UNL     1      11.695  -6.859  31.902  0.00  0.00    +0.036 A 
ATOM     22  C   UNL     1      11.695  -8.255  31.927  0.00  0.00    +0.042 A 
ATOM     23  C   UNL     1      12.632  -6.177  31.127  0.00  0.00    +0.023 A 
ATOM     27  C   UNL     1      12.631  -8.966  31.178  0.00  0.00    +0.054 A 
ATOM     28  C   UNL     1      13.569  -6.888  30.378  0.00  0.00    +0.003 A 
ATOM     29  C   UNL     1      13.569  -8.283  30.402  0.00  0.00    +0.019 A 
BRANCH  27  31
ATOM      9  N   UNL     1      12.632 -11.555  31.222  0.00  0.00    -0.191 NA
ATOM     31  C   UNL     1      12.632 -10.395  31.203  0.00  0.00    +0.099 C 
ENDBRANCH  27  31
ENDBRANCH   8  19
BRANCH  10   7
ATOM      3  O   UNL     1       5.628  -7.815  33.021  0.00  0.00    -0.270 OA
ATOM      7  N   UNL     1       7.846  -7.210  33.314  0.00  0.00    -0.305 N 
ATOM     17  C   UNL     1       6.823  -7.980  32.792  0.00  0.00    +0.244 C 
ATOM     34  H   UNL     1       8.799  -7.338  32.988  0.00  0.00    +0.149 HD
BRANCH  17  18
ATOM     18  C   UNL     1       7.246  -9.099  31.912  0.00  0.00    +0.037 A 
ATOM     20  C   UNL     1       6.559  -9.350  30.724  0.00  0.00    +0.016 A 
ATOM     21  C   UNL     1       8.330  -9.900  32.273  0.00  0.00    +0.016 A 
ATOM     24  C   UNL     1       6.957 -10.400  29.897  0.00  0.00    +0.046 A 
ATOM     25  C   UNL     1       8.727 -10.951  31.447  0.00  0.00    +0.046 A 
ATOM     26  C   UNL     1       8.041 -11.201  30.258  0.00  0.00    +0.121 A 
BRANCH  26   4
ATOM      4  O   UNL     1       8.428 -12.227  29.452  0.00  0.00    -0.490 OA
BRANCH   4  30
ATOM     30  C   UNL     1       9.671 -12.858  29.757  0.00  0.00    +0.257 C 
BRANCH  30  32
ATOM     32  C   UNL     1      10.353 -13.256  28.463  0.00  0.00    +0.200 C 
BRANCH  32   5
ATOM      5  O   UNL     1      10.777 -12.082  27.781  0.00  0.00    -0.380 OA
ATOM     33  C   UNL     1      12.186 -12.066  27.597  0.00  0.00    +0.194 C 
ENDBRANCH  32   5
ENDBRANCH  30  32
ENDBRANCH   4  30
ENDBRANCH  26   4
ENDBRANCH  17  18
ENDBRANCH  10   7
BRANCH  11   1
ATOM      1  O   UNL     1       6.554  -7.302  36.008  0.00  0.00    -0.390 OA
ATOM     35  H   UNL     1       5.890  -7.119  35.321  0.00  0.00    +0.210 HD
ENDBRANCH  11   1
TORSDOF 9
ENDMDL
MODEL 7
REMARK VINA RESULT:      -5.7     23.128     26.188
REMARK  Name = 26742275
REMARK  10 active torsions:
REMARK  status: ('A' for Active; 'I' for Inactive)
REMARK    1  A    between atoms: O_1  and  C_11
REMARK    2  A    between atoms: O_4  and  C_26
REMARK    3  A    between atoms: O_4  and  C_30
REMARK    4  A    between atoms: O_5  and  C_32
REMARK    5  A    between atoms: O_5  and  C_33
REMARK    6  A    between atoms: N_7  and  C_10
REMARK    7  A    between atoms: N_8  and  C_19
REMARK    8  A    between atoms: C_17  and  C_18
REMARK    9  A    between atoms: C_27  and  C_31
REMARK   10  A    between atoms: C_30  and  C_32
REMARK                            x       y       z     vdW  Elec       q    Type
REMARK                         _______ _______ _______ _____ _____    ______ ____
ROOT
ATOM      2  O   UNL     1       7.126  -7.504  36.348  0.00  0.00    -0.252 OA
ATOM      6  N   UNL     1       5.123  -8.142  37.309  0.00  0.00    -0.284 N 
ATOM      8  N   UNL     1       5.568  -8.623  35.039  0.00  0.00    -0.269 N 
ATOM     10  C   UNL     1       3.929 -10.338  37.620  0.00  0.00    +0.119 C 
ATOM     11  C   UNL     1       4.962 -10.748  38.685  0.00  0.00    +0.136 C 
ATOM     12  C   UNL     1       5.127  -9.779  39.860  0.00  0.00    +0.035 C 
ATOM     13  C   UNL     1       3.830  -8.840  37.303  0.00  0.00    +0.134 C 
ATOM     14  C   UNL     1       6.075  -8.617  39.558  0.00  0.00    +0.022 C 
ATOM     15  C   UNL     1       5.511  -7.573  38.602  0.00  0.00    +0.109 C 
ATOM     16  C   UNL     1       6.027  -8.050  36.224  0.00  0.00    +0.307 C 
ATOM     36  H   UNL     1       4.658  -9.071  35.041  0.00  0.00    +0.156 HD
ENDROOT
BRANCH   8  19
ATOM     19  C   UNL     1       6.234  -8.691  33.789  0.00  0.00    +0.036 A 
ATOM     22  C   UNL     1       7.409  -9.434  33.664  0.00  0.00    +0.042 A 
ATOM     23  C   UNL     1       5.716  -8.015  32.685  0.00  0.00    +0.023 A 
ATOM     27  C   UNL     1       8.064  -9.500  32.435  0.00  0.00    +0.054 A 
ATOM     28  C   UNL     1       6.371  -8.082  31.455  0.00  0.00    +0.003 A 
ATOM     29  C   UNL     1       7.546  -8.824  31.329  0.00  0.00    +0.019 A 
BRANCH  27  31
ATOM      9  N   UNL     1      10.243 -10.880  32.199  0.00  0.00    -0.191 NA
ATOM     31  C   UNL     1       9.267 -10.261  32.305  0.00  0.00    +0.099 C 
ENDBRANCH  27  31
ENDBRANCH   8  19
BRANCH  10   7
ATOM      3  O   UNL     1       2.017 -10.952  35.568  0.00  0.00    -0.270 OA
ATOM      7  N   UNL     1       4.171 -11.100  36.410  0.00  0.00    -0.305 N 
ATOM     17  C   UNL     1       3.178 -11.341  35.479  0.00  0.00    +0.244 C 
ATOM     34  H   UNL     1       5.133 -11.359  36.211  0.00  0.00    +0.149 HD
BRANCH  17  18
ATOM     18  C   UNL     1       3.581 -12.161  34.308  0.00  0.00    +0.037 A 
ATOM     20  C   UNL     1       2.628 -12.920  33.627  0.00  0.00    +0.016 A 
ATOM     21  C   UNL     1       4.912 -12.173  33.889  0.00  0.00    +0.016 A 
ATOM     24  C   UNL     1       3.006 -13.689  32.527  0.00  0.00    +0.046 A 
ATOM     25  C   UNL     1       5.290 -12.943  32.790  0.00  0.00    +0.046 A 
ATOM     26  C   UNL     1       4.337 -13.701  32.107  0.00  0.00    +0.121 A 
BRANCH  26   4
ATOM      4  O   UNL     1       4.707 -14.453  31.035  0.00  0.00    -0.490 OA
BRANCH   4  30
ATOM     30  C   UNL     1       5.015 -13.756  29.829  0.00  0.00    +0.257 C 
BRANCH  30  32
ATOM     32  C   UNL     1       6.278 -14.341  29.228  0.00  0.00    +0.200 C 
BRANCH  32   5
ATOM      5  O   UNL     1       7.089 -13.284  28.731  0.00  0.00    -0.380 OA
ATOM     33  C   UNL     1       7.294 -12.277  29.712  0.00  0.00    +0.194 C 
ENDBRANCH  32   5
ENDBRANCH  30  32
ENDBRANCH   4  30
ENDBRANCH  26   4
ENDBRANCH  17  18
ENDBRANCH  10   7
BRANCH  11   1
ATOM      1  O   UNL     1       4.547 -12.007  39.234  0.00  0.00    -0.390 OA
ATOM     35  H   UNL     1       4.864 -12.046  40.153  0.00  0.00    +0.210 HD
ENDBRANCH  11   1
TORSDOF 9
ENDMDL
MODEL 8
REMARK VINA RESULT:      -5.7     19.346     22.119
REMARK  Name = 26742275
REMARK  10 active torsions:
REMARK  status: ('A' for Active; 'I' for Inactive)
REMARK    1  A    between atoms: O_1  and  C_11
REMARK    2  A    between atoms: O_4  and  C_26
REMARK    3  A    between atoms: O_4  and  C_30
REMARK    4  A    between atoms: O_5  and  C_32
REMARK    5  A    between atoms: O_5  and  C_33
REMARK    6  A    between atoms: N_7  and  C_10
REMARK    7  A    between atoms: N_8  and  C_19
REMARK    8  A    between atoms: C_17  and  C_18
REMARK    9  A    between atoms: C_27  and  C_31
REMARK   10  A    between atoms: C_30  and  C_32
REMARK                            x       y       z     vdW  Elec       q    Type
REMARK                         _______ _______ _______ _____ _____    ______ ____
ROOT
ATOM      2  O   UNL     1      11.947  -5.643  34.567  0.00  0.00    -0.252 OA
ATOM      6  N   UNL     1       9.741  -4.976  34.384  0.00  0.00    -0.284 N 
ATOM      8  N   UNL     1      10.729  -6.316  32.707  0.00  0.00    -0.269 N 
ATOM     10  C   UNL     1       7.541  -6.180  34.157  0.00  0.00    +0.119 C 
ATOM     11  C   UNL     1       7.637  -6.631  35.625  0.00  0.00    +0.136 C 
ATOM     12  C   UNL     1       7.809  -5.512  36.657  0.00  0.00    +0.035 C 
ATOM     13  C   UNL     1       8.417  -4.989  33.748  0.00  0.00    +0.134 C 
ATOM     14  C   UNL     1       9.261  -5.060  36.823  0.00  0.00    +0.022 C 
ATOM     15  C   UNL     1       9.809  -4.250  35.655  0.00  0.00    +0.109 C 
ATOM     16  C   UNL     1      10.895  -5.653  33.922  0.00  0.00    +0.307 C 
ATOM     36  H   UNL     1       9.818  -6.286  32.263  0.00  0.00    +0.156 HD
ENDROOT
BRANCH   8  19
ATOM     19  C   UNL     1      11.688  -7.075  31.991  0.00  0.00    +0.036 A 
ATOM     22  C   UNL     1      12.690  -6.429  31.265  0.00  0.00    +0.042 A 
ATOM     23  C   UNL     1      11.632  -8.468  32.010  0.00  0.00    +0.023 A 
ATOM     27  C   UNL     1      13.634  -7.176  30.561  0.00  0.00    +0.054 A 
ATOM     28  C   UNL     1      12.575  -9.216  31.306  0.00  0.00    +0.003 A 
ATOM     29  C   UNL     1      13.577  -8.570  30.581  0.00  0.00    +0.019 A 
BRANCH  27  31
ATOM      9  N   UNL     1      15.494  -5.978  29.214  0.00  0.00    -0.191 NA
ATOM     31  C   UNL     1      14.660  -6.515  29.819  0.00  0.00    +0.099 C 
ENDBRANCH  27  31
ENDBRANCH   8  19
BRANCH  10   7
ATOM      3  O   UNL     1       5.575  -7.907  32.977  0.00  0.00    -0.270 OA
ATOM      7  N   UNL     1       7.794  -7.319  33.296  0.00  0.00    -0.305 N 
ATOM     17  C   UNL     1       6.772  -8.091  32.775  0.00  0.00    +0.244 C 
ATOM     34  H   UNL     1       8.751  -7.466  32.992  0.00  0.00    +0.149 HD
BRANCH  17  18
ATOM     18  C   UNL     1       7.198  -9.237  31.933  0.00  0.00    +0.037 A 
ATOM     20  C   UNL     1       6.663  -9.401  30.655  0.00  0.00    +0.016 A 
ATOM     21  C   UNL     1       8.135 -10.150  32.419  0.00  0.00    +0.016 A 
ATOM     24  C   UNL     1       7.064 -10.477  29.864  0.00  0.00    +0.046 A 
ATOM     25  C   UNL     1       8.535 -11.227  31.628  0.00  0.00    +0.046 A 
ATOM     26  C   UNL     1       8.000 -11.391  30.350  0.00  0.00    +0.121 A 
BRANCH  26   4
ATOM      4  O   UNL     1       8.391 -12.442  29.579  0.00  0.00    -0.490 OA
BRANCH   4  30
ATOM     30  C   UNL     1       7.411 -13.011  28.713  0.00  0.00    +0.257 C 
BRANCH  30  32
ATOM     32  C   UNL     1       6.605 -14.037  29.484  0.00  0.00    +0.200 C 
BRANCH  32   5
ATOM      5  O   UNL     1       5.274 -13.561  29.640  0.00  0.00    -0.380 OA
ATOM     33  C   UNL     1       4.840 -13.659  30.989  0.00  0.00    +0.194 C 
ENDBRANCH  32   5
ENDBRANCH  30  32
ENDBRANCH   4  30
ENDBRANCH  26   4
ENDBRANCH  17  18
ENDBRANCH  10   7
BRANCH  11   1
ATOM      1  O   UNL     1       6.421  -7.320  35.952  0.00  0.00    -0.390 OA
ATOM     35  H   UNL     1       6.507  -8.236  35.635  0.00  0.00    +0.210 HD
ENDBRANCH  11   1
TORSDOF 9
ENDMDL
MODEL 9
REMARK VINA RESULT:      -5.6     16.516     18.271
REMARK  Name = 26742275
REMARK  10 active torsions:
REMARK  status: ('A' for Active; 'I' for Inactive)
REMARK    1  A    between atoms: O_1  and  C_11
REMARK    2  A    between atoms: O_4  and  C_26
REMARK    3  A    between atoms: O_4  and  C_30
REMARK    4  A    between atoms: O_5  and  C_32
REMARK    5  A    between atoms: O_5  and  C_33
REMARK    6  A    between atoms: N_7  and  C_10
REMARK    7  A    between atoms: N_8  and  C_19
REMARK    8  A    between atoms: C_17  and  C_18
REMARK    9  A    between atoms: C_27  and  C_31
REMARK   10  A    between atoms: C_30  and  C_32
REMARK                            x       y       z     vdW  Elec       q    Type
REMARK                         _______ _______ _______ _____ _____    ______ ____
ROOT
ATOM      2  O   UNL     1      11.801   9.221   6.523  0.00  0.00    -0.252 OA
ATOM      6  N   UNL     1      10.093   7.827   5.826  0.00  0.00    -0.284 N 
ATOM      8  N   UNL     1      11.919   8.289   4.399  0.00  0.00    -0.269 N 
ATOM     10  C   UNL     1       9.971   5.443   5.024  0.00  0.00    +0.119 C 
ATOM     11  C   UNL     1      10.250   4.948   6.454  0.00  0.00    +0.136 C 
ATOM     12  C   UNL     1       9.290   5.456   7.534  0.00  0.00    +0.035 C 
ATOM     13  C   UNL     1       9.472   6.886   4.884  0.00  0.00    +0.134 C 
ATOM     14  C   UNL     1       9.657   6.842   8.068  0.00  0.00    +0.022 C 
ATOM     15  C   UNL     1       9.385   7.985   7.099  0.00  0.00    +0.109 C 
ATOM     16  C   UNL     1      11.321   8.505   5.640  0.00  0.00    +0.307 C 
ATOM     36  H   UNL     1      11.460   7.664   3.745  0.00  0.00    +0.156 HD
ENDROOT
BRANCH   8  19
ATOM     19  C   UNL     1      13.140   8.823   3.915  0.00  0.00    +0.036 A 
ATOM     22  C   UNL     1      14.353   8.383   4.446  0.00  0.00    +0.042 A 
ATOM     23  C   UNL     1      13.130   9.790   2.910  0.00  0.00    +0.023 A 
ATOM     27  C   UNL     1      15.554   8.908   3.970  0.00  0.00    +0.054 A 
ATOM     28  C   UNL     1      14.330  10.315   2.434  0.00  0.00    +0.003 A 
ATOM     29  C   UNL     1      15.544   9.875   2.964  0.00  0.00    +0.019 A 
BRANCH  27  31
ATOM      9  N   UNL     1      17.807   8.092   4.952  0.00  0.00    -0.191 NA
ATOM     31  C   UNL     1      16.797   8.457   4.512  0.00  0.00    +0.099 C 
ENDBRANCH  27  31
ENDBRANCH   8  19
BRANCH  10   7
ATOM      3  O   UNL     1      10.039   4.703   2.251  0.00  0.00    -0.270 OA
ATOM      7  N   UNL     1      11.155   5.232   4.213  0.00  0.00    -0.305 N 
ATOM     17  C   UNL     1      11.081   4.876   2.879  0.00  0.00    +0.244 C 
ATOM     34  H   UNL     1      12.050   5.465   4.631  0.00  0.00    +0.149 HD
BRANCH  17  18
ATOM     18  C   UNL     1      12.383   4.671   2.196  0.00  0.00    +0.037 A 
ATOM     20  C   UNL     1      13.273   5.737   2.057  0.00  0.00    +0.016 A 
ATOM     21  C   UNL     1      12.717   3.413   1.691  0.00  0.00    +0.016 A 
ATOM     24  C   UNL     1      14.497   5.545   1.416  0.00  0.00    +0.046 A 
ATOM     25  C   UNL     1      13.940   3.222   1.049  0.00  0.00    +0.046 A 
ATOM     26  C   UNL     1      14.831   4.287   0.912  0.00  0.00    +0.121 A 
BRANCH  26   4
ATOM      4  O   UNL     1      16.024   4.099   0.285  0.00  0.00    -0.490 OA
BRANCH   4  30
ATOM     30  C   UNL     1      16.398   5.060  -0.700  0.00  0.00    +0.257 C 
BRANCH  30  32
ATOM     32  C   UNL     1      15.707   4.725  -2.007  0.00  0.00    +0.200 C 
BRANCH  32   5
ATOM      5  O   UNL     1      14.783   5.759  -2.323  0.00  0.00    -0.380 OA
ATOM     33  C   UNL     1      15.277   7.035  -1.940  0.00  0.00    +0.194 C 
ENDBRANCH  32   5
ENDBRANCH  30  32
ENDBRANCH   4  30
ENDBRANCH  26   4
ENDBRANCH  17  18
ENDBRANCH  10   7
BRANCH  11   1
ATOM      1  O   UNL     1      10.156   3.516   6.448  0.00  0.00    -0.390 OA
ATOM     35  H   UNL     1      10.956   3.166   6.876  0.00  0.00    +0.210 HD
ENDBRANCH  11   1
TORSDOF 9
ENDMDL
MODEL 10
REMARK VINA RESULT:      -5.6     15.729     17.523
REMARK  Name = 26742275
REMARK  10 active torsions:
REMARK  status: ('A' for Active; 'I' for Inactive)
REMARK    1  A    between atoms: O_1  and  C_11
REMARK    2  A    between atoms: O_4  and  C_26
REMARK    3  A    between atoms: O_4  and  C_30
REMARK    4  A    between atoms: O_5  and  C_32
REMARK    5  A    between atoms: O_5  and  C_33
REMARK    6  A    between atoms: N_7  and  C_10
REMARK    7  A    between atoms: N_8  and  C_19
REMARK    8  A    between atoms: C_17  and  C_18
REMARK    9  A    between atoms: C_27  and  C_31
REMARK   10  A    between atoms: C_30  and  C_32
REMARK                            x       y       z     vdW  Elec       q    Type
REMARK                         _______ _______ _______ _____ _____    ______ ____
ROOT
ATOM      2  O   UNL     1       9.488   5.873   2.890  0.00  0.00    -0.252 OA
ATOM      6  N   UNL     1       9.897   5.870   5.165  0.00  0.00    -0.284 N 
ATOM      8  N   UNL     1      11.676   5.628   3.629  0.00  0.00    -0.269 N 
ATOM     10  C   UNL     1      11.318   7.261   6.709  0.00  0.00    +0.119 C 
ATOM     11  C   UNL     1      10.344   8.441   6.542  0.00  0.00    +0.136 C 
ATOM     12  C   UNL     1       8.880   8.149   6.884  0.00  0.00    +0.035 C 
ATOM     13  C   UNL     1      10.783   5.873   6.337  0.00  0.00    +0.134 C 
ATOM     14  C   UNL     1       8.107   7.501   5.733  0.00  0.00    +0.022 C 
ATOM     15  C   UNL     1       8.474   6.047   5.466  0.00  0.00    +0.109 C 
ATOM     16  C   UNL     1      10.304   5.793   3.812  0.00  0.00    +0.307 C 
ATOM     36  H   UNL     1      12.271   5.597   4.450  0.00  0.00    +0.156 HD
ENDROOT
BRANCH   8  19
ATOM     19  C   UNL     1      12.385   5.518   2.406  0.00  0.00    +0.036 A 
ATOM     22  C   UNL     1      12.653   6.659   1.650  0.00  0.00    +0.042 A 
ATOM     23  C   UNL     1      12.814   4.269   1.958  0.00  0.00    +0.023 A 
ATOM     27  C   UNL     1      13.351   6.551   0.447  0.00  0.00    +0.054 A 
ATOM     28  C   UNL     1      13.512   4.160   0.755  0.00  0.00    +0.003 A 
ATOM     29  C   UNL     1      13.780   5.301  -0.001  0.00  0.00    +0.019 A 
BRANCH  27  31
ATOM      9  N   UNL     1      13.851   8.669  -0.957  0.00  0.00    -0.191 NA
ATOM     31  C   UNL     1      13.626   7.720  -0.328  0.00  0.00    +0.099 C 
ENDBRANCH  27  31
ENDBRANCH   8  19
BRANCH  10   7
ATOM      3  O   UNL     1      13.972   6.413   7.404  0.00  0.00    -0.270 OA
ATOM      7  N   UNL     1      12.538   7.550   5.981  0.00  0.00    -0.305 N 
ATOM     17  C   UNL     1      13.773   7.092   6.400  0.00  0.00    +0.244 C 
ATOM     34  H   UNL     1      12.442   8.010   5.081  0.00  0.00    +0.149 HD
BRANCH  17  18
ATOM     18  C   UNL     1      14.928   7.497   5.558  0.00  0.00    +0.037 A 
ATOM     20  C   UNL     1      15.995   8.194   6.125  0.00  0.00    +0.016 A 
ATOM     21  C   UNL     1      14.945   7.179   4.198  0.00  0.00    +0.016 A 
ATOM     24  C   UNL     1      17.079   8.573   5.334  0.00  0.00    +0.046 A 
ATOM     25  C   UNL     1      16.030   7.559   3.408  0.00  0.00    +0.046 A 
ATOM     26  C   UNL     1      17.097   8.256   3.975  0.00  0.00    +0.121 A 
BRANCH  26   4
ATOM      4  O   UNL     1      18.154   8.627   3.203  0.00  0.00    -0.490 OA
BRANCH   4  30
ATOM     30  C   UNL     1      19.398   8.846   3.866  0.00  0.00    +0.257 C 
BRANCH  30  32
ATOM     32  C   UNL     1      20.341   7.705   3.538  0.00  0.00    +0.200 C 
BRANCH  32   5
ATOM      5  O   UNL     1      20.471   6.866   4.679  0.00  0.00    -0.380 OA
ATOM     33  C   UNL     1      21.057   7.559   5.772  0.00  0.00    +0.194 C 
ENDBRANCH  32   5
ENDBRANCH  30  32
ENDBRANCH   4  30
ENDBRANCH  26   4
ENDBRANCH  17  18
ENDBRANCH  10   7
BRANCH  11   1
ATOM      1  O   UNL     1      10.778   9.493   7.416  0.00  0.00    -0.390 OA
ATOM     35  H   UNL     1      11.550   9.167   7.909  0.00  0.00    +0.210 HD
ENDBRANCH  11   1
TORSDOF 9
ENDMDL
