MODEL 1
REMARK VINA RESULT:      -7.9      0.000      0.000
REMARK  Name = 26743300
REMARK  10 active torsions:
REMARK  status: ('A' for Active; 'I' for Inactive)
REMARK    1  A    between atoms: N_5  and  C_22
REMARK    2  A    between atoms: C_7  and  C_11
REMARK    3  A    between atoms: C_8  and  C_13
REMARK    4  A    between atoms: C_11  and  C_14
REMARK    5  A    between atoms: C_13  and  C_15
REMARK    6  A    between atoms: C_21  and  C_23
REMARK    7  A    between atoms: C_24  and  C_25
REMARK    8  A    between atoms: C_24  and  C_30
REMARK    9  A    between atoms: C_24  and  C_31
REMARK   10  A    between atoms: C_24  and  C_32
REMARK                            x       y       z     vdW  Elec       q    Type
REMARK                         _______ _______ _______ _____ _____    ______ ____
ROOT
ATOM      3  N   UNL     1     -18.417   6.235  26.262  0.00  0.00    -0.316 NA
ATOM      7  C   UNL     1     -16.668   4.077  27.258  0.00  0.00    +0.004 C 
ATOM      8  C   UNL     1     -16.596   4.608  25.807  0.00  0.00    +0.012 C 
ATOM      9  C   UNL     1     -17.254   5.171  28.165  0.00  0.00    +0.019 C 
ATOM     10  C   UNL     1     -17.943   5.195  25.349  0.00  0.00    +0.085 C 
ATOM     12  C   UNL     1     -18.570   5.734  27.626  0.00  0.00    +0.081 C 
ATOM     33  H   UNL     1     -19.313   6.591  25.932  0.00  0.00    +0.122 HD
ENDROOT
BRANCH   7  11
ATOM     11  C   UNL     1     -17.453   2.767  27.405  0.00  0.00    +0.100 C 
BRANCH  11  14
ATOM      1  O   UNL     1     -16.202   0.820  26.896  0.00  0.00    -0.276 OA
ATOM      4  N   UNL     1     -16.052   1.610  29.075  0.00  0.00    -0.299 N 
ATOM      5  N   UNL     1     -14.484   1.908  31.453  0.00  0.00    -0.302 NA
ATOM     14  C   UNL     1     -16.515   1.642  27.761  0.00  0.00    +0.216 C 
ATOM     16  C   UNL     1     -15.136   0.552  29.499  0.00  0.00    +0.123 C 
ATOM     17  C   UNL     1     -16.507   2.488  30.157  0.00  0.00    +0.123 C 
ATOM     18  C   UNL     1     -13.979   1.116  30.322  0.00  0.00    +0.103 C 
ATOM     19  C   UNL     1     -15.324   3.014  30.973  0.00  0.00    +0.103 C 
ATOM     22  C   UNL     1     -13.374   2.419  32.259  0.00  0.00    +0.105 C 
ENDBRANCH  11  14
ENDBRANCH   7  11
BRANCH   8  13
ATOM     13  C   UNL     1     -16.100   3.562  24.808  0.00  0.00    +0.064 C 
BRANCH  13  15
ATOM      2  O   UNL     1     -15.433   4.625  21.434  0.00  0.00    -0.354 OA
ATOM      6  N   UNL     1     -16.116   3.856  22.369  0.00  0.00    -0.083 NA
ATOM     15  C   UNL     1     -15.594   4.203  23.549  0.00  0.00    +0.085 A 
ATOM     20  C   UNL     1     -14.588   5.177  23.422  0.00  0.00    +0.076 A 
ATOM     21  C   UNL     1     -14.526   5.406  22.073  0.00  0.00    +0.167 A 
BRANCH  21  23
ATOM     23  C   UNL     1     -13.740   6.261  21.232  0.00  0.00    +0.020 A 
ATOM     25  C   UNL     1     -12.211   7.922  19.593  0.00  0.00    -0.042 A 
ATOM     26  C   UNL     1     -12.347   6.224  21.306  0.00  0.00    +0.012 A 
ATOM     27  C   UNL     1     -14.367   7.128  20.338  0.00  0.00    +0.012 A 
ATOM     28  C   UNL     1     -11.583   7.055  20.486  0.00  0.00    +0.005 A 
ATOM     29  C   UNL     1     -13.603   7.960  19.519  0.00  0.00    +0.005 A 
BRANCH  25  24
ATOM     24  C   UNL     1     -11.393   8.811  18.718  0.00  0.00    -0.013 C 
ATOM     30  C   UNL     1     -10.736   8.007  17.552  0.00  0.00    +0.015 C 
ATOM     31  C   UNL     1     -10.245   9.497  19.522  0.00  0.00    +0.015 C 
ATOM     32  C   UNL     1     -12.175   9.979  18.029  0.00  0.00    +0.015 C 
ENDBRANCH  25  24
ENDBRANCH  21  23
ENDBRANCH  13  15
ENDBRANCH   8  13
TORSDOF 6
ENDMDL
MODEL 2
REMARK VINA RESULT:      -7.5     32.655     36.140
REMARK  Name = 26743300
REMARK  10 active torsions:
REMARK  status: ('A' for Active; 'I' for Inactive)
REMARK    1  A    between atoms: N_5  and  C_22
REMARK    2  A    between atoms: C_7  and  C_11
REMARK    3  A    between atoms: C_8  and  C_13
REMARK    4  A    between atoms: C_11  and  C_14
REMARK    5  A    between atoms: C_13  and  C_15
REMARK    6  A    between atoms: C_21  and  C_23
REMARK    7  A    between atoms: C_24  and  C_25
REMARK    8  A    between atoms: C_24  and  C_30
REMARK    9  A    between atoms: C_24  and  C_31
REMARK   10  A    between atoms: C_24  and  C_32
REMARK                            x       y       z     vdW  Elec       q    Type
REMARK                         _______ _______ _______ _____ _____    ______ ____
ROOT
ATOM      3  N   UNL     1      24.538   3.563  19.349  0.00  0.00    -0.316 NA
ATOM      7  C   UNL     1      22.976   2.908  21.765  0.00  0.00    +0.004 C 
ATOM      8  C   UNL     1      22.606   4.077  20.821  0.00  0.00    +0.012 C 
ATOM      9  C   UNL     1      23.786   1.864  20.977  0.00  0.00    +0.019 C 
ATOM     10  C   UNL     1      23.838   4.621  20.079  0.00  0.00    +0.085 C 
ATOM     12  C   UNL     1      24.970   2.484  20.234  0.00  0.00    +0.081 C 
ATOM     33  H   UNL     1      25.352   3.959  18.879  0.00  0.00    +0.122 HD
ENDROOT
BRANCH   7  11
ATOM     11  C   UNL     1      23.727   3.340  23.030  0.00  0.00    +0.100 C 
BRANCH  11  14
ATOM      1  O   UNL     1      22.164   2.727  24.703  0.00  0.00    -0.276 OA
ATOM      4  N   UNL     1      24.159   1.538  24.660  0.00  0.00    -0.299 N 
ATOM      5  N   UNL     1      25.532  -0.930  25.140  0.00  0.00    -0.302 NA
ATOM     14  C   UNL     1      23.274   2.514  24.206  0.00  0.00    +0.216 C 
ATOM     16  C   UNL     1      23.792   0.691  25.794  0.00  0.00    +0.123 C 
ATOM     17  C   UNL     1      25.531   1.348  24.180  0.00  0.00    +0.123 C 
ATOM     18  C   UNL     1      24.121  -0.776  25.521  0.00  0.00    +0.103 C 
ATOM     19  C   UNL     1      25.832  -0.133  23.942  0.00  0.00    +0.103 C 
ATOM     22  C   UNL     1      25.852  -2.340  24.913  0.00  0.00    +0.105 C 
ENDBRANCH  11  14
ENDBRANCH   7  11
BRANCH   8  13
ATOM     13  C   UNL     1      21.865   5.210  21.533  0.00  0.00    +0.064 C 
BRANCH  13  15
ATOM      2  O   UNL     1      18.746   5.040  19.742  0.00  0.00    -0.354 OA
ATOM      6  N   UNL     1      19.991   4.532  20.095  0.00  0.00    -0.083 NA
ATOM     15  C   UNL     1      20.504   5.432  20.938  0.00  0.00    +0.085 A 
ATOM     20  C   UNL     1      19.637   6.518  21.153  0.00  0.00    +0.076 A 
ATOM     21  C   UNL     1      18.547   6.222  20.378  0.00  0.00    +0.167 A 
BRANCH  21  23
ATOM     23  C   UNL     1      17.296   6.869  20.110  0.00  0.00    +0.020 A 
ATOM     25  C   UNL     1      14.864   8.130  19.587  0.00  0.00    -0.042 A 
ATOM     26  C   UNL     1      16.949   8.030  20.802  0.00  0.00    +0.012 A 
ATOM     27  C   UNL     1      16.427   6.340  19.156  0.00  0.00    +0.012 A 
ATOM     28  C   UNL     1      15.732   8.660  20.540  0.00  0.00    +0.005 A 
ATOM     29  C   UNL     1      15.210   6.970  18.895  0.00  0.00    +0.005 A 
BRANCH  25  24
ATOM     24  C   UNL     1      13.562   8.804  19.308  0.00  0.00    -0.013 C 
ATOM     30  C   UNL     1      12.362   7.939  19.804  0.00  0.00    +0.015 C 
ATOM     31  C   UNL     1      13.367   9.049  17.780  0.00  0.00    +0.015 C 
ATOM     32  C   UNL     1      13.373  10.204  19.982  0.00  0.00    +0.015 C 
ENDBRANCH  25  24
ENDBRANCH  21  23
ENDBRANCH  13  15
ENDBRANCH   8  13
TORSDOF 6
ENDMDL
MODEL 3
REMARK VINA RESULT:      -7.2     32.788     36.265
REMARK  Name = 26743300
REMARK  10 active torsions:
REMARK  status: ('A' for Active; 'I' for Inactive)
REMARK    1  A    between atoms: N_5  and  C_22
REMARK    2  A    between atoms: C_7  and  C_11
REMARK    3  A    between atoms: C_8  and  C_13
REMARK    4  A    between atoms: C_11  and  C_14
REMARK    5  A    between atoms: C_13  and  C_15
REMARK    6  A    between atoms: C_21  and  C_23
REMARK    7  A    between atoms: C_24  and  C_25
REMARK    8  A    between atoms: C_24  and  C_30
REMARK    9  A    between atoms: C_24  and  C_31
REMARK   10  A    between atoms: C_24  and  C_32
REMARK                            x       y       z     vdW  Elec       q    Type
REMARK                         _______ _______ _______ _____ _____    ______ ____
ROOT
ATOM      3  N   UNL     1      24.442   3.667  19.246  0.00  0.00    -0.316 NA
ATOM      7  C   UNL     1      23.512   3.021  21.971  0.00  0.00    +0.004 C 
ATOM      8  C   UNL     1      23.090   4.310  21.227  0.00  0.00    +0.012 C 
ATOM      9  C   UNL     1      23.902   1.950  20.938  0.00  0.00    +0.019 C 
ATOM     10  C   UNL     1      24.144   4.742  20.194  0.00  0.00    +0.085 C 
ATOM     12  C   UNL     1      24.921   2.464  19.921  0.00  0.00    +0.081 C 
ATOM     33  H   UNL     1      25.149   3.987  18.585  0.00  0.00    +0.122 HD
ENDROOT
BRANCH   7  11
ATOM     11  C   UNL     1      24.638   3.230  22.991  0.00  0.00    +0.100 C 
BRANCH  11  14
ATOM      1  O   UNL     1      25.336   1.092  23.742  0.00  0.00    -0.276 OA
ATOM      4  N   UNL     1      23.879   2.254  25.128  0.00  0.00    -0.299 N 
ATOM      5  N   UNL     1      22.976   2.814  27.788  0.00  0.00    -0.302 NA
ATOM     14  C   UNL     1      24.653   2.092  23.981  0.00  0.00    +0.216 C 
ATOM     16  C   UNL     1      23.843   1.198  26.138  0.00  0.00    +0.123 C 
ATOM     17  C   UNL     1      22.957   3.366  25.379  0.00  0.00    +0.123 C 
ATOM     18  C   UNL     1      23.985   1.772  27.548  0.00  0.00    +0.103 C 
ATOM     19  C   UNL     1      23.110   3.898  26.805  0.00  0.00    +0.103 C 
ATOM     22  C   UNL     1      23.093   3.337  29.150  0.00  0.00    +0.105 C 
ENDBRANCH  11  14
ENDBRANCH   7  11
BRANCH   8  13
ATOM     13  C   UNL     1      22.759   5.466  22.172  0.00  0.00    +0.064 C 
BRANCH  13  15
ATOM      2  O   UNL     1      19.347   6.500  22.672  0.00  0.00    -0.354 OA
ATOM      6  N   UNL     1      20.609   6.153  23.142  0.00  0.00    -0.083 NA
ATOM     15  C   UNL     1      21.323   5.883  22.045  0.00  0.00    +0.085 A 
ATOM     20  C   UNL     1      20.573   6.043  20.867  0.00  0.00    +0.076 A 
ATOM     21  C   UNL     1      19.339   6.430  21.317  0.00  0.00    +0.167 A 
BRANCH  21  23
ATOM     23  C   UNL     1      18.095   6.764  20.685  0.00  0.00    +0.020 A 
ATOM     25  C   UNL     1      15.678   7.416  19.456  0.00  0.00    -0.042 A 
ATOM     26  C   UNL     1      17.331   7.828  21.168  0.00  0.00    +0.012 A 
ATOM     27  C   UNL     1      17.650   6.027  19.589  0.00  0.00    +0.012 A 
ATOM     28  C   UNL     1      16.123   8.153  20.552  0.00  0.00    +0.005 A 
ATOM     29  C   UNL     1      16.440   6.352  18.974  0.00  0.00    +0.005 A 
BRANCH  25  24
ATOM     24  C   UNL     1      14.384   7.764  18.799  0.00  0.00    -0.013 C 
ATOM     30  C   UNL     1      14.096   9.294  18.894  0.00  0.00    +0.015 C 
ATOM     31  C   UNL     1      13.190   7.017  19.471  0.00  0.00    +0.015 C 
ATOM     32  C   UNL     1      14.289   7.416  17.276  0.00  0.00    +0.015 C 
ENDBRANCH  25  24
ENDBRANCH  21  23
ENDBRANCH  13  15
ENDBRANCH   8  13
TORSDOF 6
ENDMDL
MODEL 4
REMARK VINA RESULT:      -7.1     30.983     34.855
REMARK  Name = 26743300
REMARK  10 active torsions:
REMARK  status: ('A' for Active; 'I' for Inactive)
REMARK    1  A    between atoms: N_5  and  C_22
REMARK    2  A    between atoms: C_7  and  C_11
REMARK    3  A    between atoms: C_8  and  C_13
REMARK    4  A    between atoms: C_11  and  C_14
REMARK    5  A    between atoms: C_13  and  C_15
REMARK    6  A    between atoms: C_21  and  C_23
REMARK    7  A    between atoms: C_24  and  C_25
REMARK    8  A    between atoms: C_24  and  C_30
REMARK    9  A    between atoms: C_24  and  C_31
REMARK   10  A    between atoms: C_24  and  C_32
REMARK                            x       y       z     vdW  Elec       q    Type
REMARK                         _______ _______ _______ _____ _____    ______ ____
ROOT
ATOM      3  N   UNL     1      18.565  10.572  21.890  0.00  0.00    -0.316 NA
ATOM      7  C   UNL     1      16.642   8.396  21.363  0.00  0.00    +0.004 C 
ATOM      8  C   UNL     1      18.166   8.155  21.485  0.00  0.00    +0.012 C 
ATOM      9  C   UNL     1      16.274   9.677  22.129  0.00  0.00    +0.019 C 
ATOM     10  C   UNL     1      18.973   9.407  21.103  0.00  0.00    +0.085 C 
ATOM     12  C   UNL     1      17.144  10.869  21.727  0.00  0.00    +0.081 C 
ATOM     33  H   UNL     1      19.113  11.382  21.603  0.00  0.00    +0.122 HD
ENDROOT
BRANCH   7  11
ATOM     11  C   UNL     1      16.135   8.460  19.917  0.00  0.00    +0.100 C 
BRANCH  11  14
ATOM      1  O   UNL     1      15.525   6.268  19.253  0.00  0.00    -0.276 OA
ATOM      4  N   UNL     1      13.801   7.658  19.953  0.00  0.00    -0.299 N 
ATOM      5  N   UNL     1      11.236   7.914  21.203  0.00  0.00    -0.302 NA
ATOM     14  C   UNL     1      15.133   7.360  19.674  0.00  0.00    +0.216 C 
ATOM     16  C   UNL     1      12.769   6.643  19.747  0.00  0.00    +0.123 C 
ATOM     17  C   UNL     1      13.287   8.979  20.325  0.00  0.00    +0.123 C 
ATOM     18  C   UNL     1      11.803   6.585  20.930  0.00  0.00    +0.103 C 
ATOM     19  C   UNL     1      12.306   8.879  21.495  0.00  0.00    +0.103 C 
ATOM     22  C   UNL     1      10.287   7.848  22.315  0.00  0.00    +0.105 C 
ENDBRANCH  11  14
ENDBRANCH   7  11
BRANCH   8  13
ATOM     13  C   UNL     1      18.647   6.943  20.686  0.00  0.00    +0.064 C 
BRANCH  13  15
ATOM      2  O   UNL     1      20.905   5.526  23.106  0.00  0.00    -0.354 OA
ATOM      6  N   UNL     1      19.863   6.373  22.743  0.00  0.00    -0.083 NA
ATOM     15  C   UNL     1      19.704   6.180  21.430  0.00  0.00    +0.085 A 
ATOM     20  C   UNL     1      20.606   5.233  20.916  0.00  0.00    +0.076 A 
ATOM     21  C   UNL     1      21.339   4.854  22.010  0.00  0.00    +0.167 A 
BRANCH  21  23
ATOM     23  C   UNL     1      22.418   3.936  22.230  0.00  0.00    +0.020 A 
ATOM     25  C   UNL     1      24.520   2.153  22.660  0.00  0.00    -0.042 A 
ATOM     26  C   UNL     1      22.978   3.246  21.155  0.00  0.00    +0.012 A 
ATOM     27  C   UNL     1      22.909   3.734  23.520  0.00  0.00    +0.012 A 
ATOM     28  C   UNL     1      24.029   2.354  21.370  0.00  0.00    +0.005 A 
ATOM     29  C   UNL     1      23.960   2.842  23.735  0.00  0.00    +0.005 A 
BRANCH  25  24
ATOM     24  C   UNL     1      25.643   1.198  22.889  0.00  0.00    -0.013 C 
ATOM     30  C   UNL     1      25.492  -0.075  21.999  0.00  0.00    +0.015 C 
ATOM     31  C   UNL     1      25.692   0.728  24.376  0.00  0.00    +0.015 C 
ATOM     32  C   UNL     1      27.072   1.756  22.580  0.00  0.00    +0.015 C 
ENDBRANCH  25  24
ENDBRANCH  21  23
ENDBRANCH  13  15
ENDBRANCH   8  13
TORSDOF 6
ENDMDL
MODEL 5
REMARK VINA RESULT:      -7.0     24.858     27.414
REMARK  Name = 26743300
REMARK  10 active torsions:
REMARK  status: ('A' for Active; 'I' for Inactive)
REMARK    1  A    between atoms: N_5  and  C_22
REMARK    2  A    between atoms: C_7  and  C_11
REMARK    3  A    between atoms: C_8  and  C_13
REMARK    4  A    between atoms: C_11  and  C_14
REMARK    5  A    between atoms: C_13  and  C_15
REMARK    6  A    between atoms: C_21  and  C_23
REMARK    7  A    between atoms: C_24  and  C_25
REMARK    8  A    between atoms: C_24  and  C_30
REMARK    9  A    between atoms: C_24  and  C_31
REMARK   10  A    between atoms: C_24  and  C_32
REMARK                            x       y       z     vdW  Elec       q    Type
REMARK                         _______ _______ _______ _____ _____    ______ ____
ROOT
ATOM      3  N   UNL     1      -5.497  -8.191   8.998  0.00  0.00    -0.316 NA
ATOM      7  C   UNL     1      -4.093 -10.737   9.500  0.00  0.00    +0.004 C 
ATOM      8  C   UNL     1      -4.845 -10.443   8.180  0.00  0.00    +0.012 C 
ATOM      9  C   UNL     1      -3.681  -9.406  10.150  0.00  0.00    +0.019 C 
ATOM     10  C   UNL     1      -5.983  -9.429   8.388  0.00  0.00    +0.085 C 
ATOM     12  C   UNL     1      -4.854  -8.435  10.287  0.00  0.00    +0.081 C 
ATOM     33  H   UNL     1      -6.279  -7.550   9.128  0.00  0.00    +0.122 HD
ENDROOT
BRANCH   7  11
ATOM     11  C   UNL     1      -4.883 -11.606  10.487  0.00  0.00    +0.100 C 
BRANCH  11  14
ATOM      1  O   UNL     1      -3.574 -13.582  10.472  0.00  0.00    -0.276 OA
ATOM      4  N   UNL     1      -3.614 -12.378  12.458  0.00  0.00    -0.299 N 
ATOM      5  N   UNL     1      -2.250 -11.580  14.848  0.00  0.00    -0.302 NA
ATOM     14  C   UNL     1      -3.966 -12.615  11.131  0.00  0.00    +0.216 C 
ATOM     16  C   UNL     1      -2.725 -13.308  13.153  0.00  0.00    +0.123 C 
ATOM     17  C   UNL     1      -4.165 -11.317  13.306  0.00  0.00    +0.123 C 
ATOM     18  C   UNL     1      -1.645 -12.564  13.939  0.00  0.00    +0.103 C 
ATOM     19  C   UNL     1      -3.059 -10.612  14.095  0.00  0.00    +0.103 C 
ATOM     22  C   UNL     1      -1.216 -10.893  15.623  0.00  0.00    +0.105 C 
ENDBRANCH  11  14
ENDBRANCH   7  11
BRANCH   8  13
ATOM     13  C   UNL     1      -5.370 -11.705   7.494  0.00  0.00    +0.064 C 
BRANCH  13  15
ATOM      2  O   UNL     1      -3.816 -12.155   4.278  0.00  0.00    -0.354 OA
ATOM      6  N   UNL     1      -4.787 -11.609   5.110  0.00  0.00    -0.083 NA
ATOM     15  C   UNL     1      -4.512 -12.090   6.325  0.00  0.00    +0.085 A 
ATOM     20  C   UNL     1      -3.389 -12.936   6.322  0.00  0.00    +0.076 A 
ATOM     21  C   UNL     1      -2.990 -12.943   5.011  0.00  0.00    +0.167 A 
BRANCH  21  23
ATOM     23  C   UNL     1      -1.931 -13.579   4.284  0.00  0.00    +0.020 A 
ATOM     25  C   UNL     1       0.129 -14.819   2.869  0.00  0.00    -0.042 A 
ATOM     26  C   UNL     1      -0.977 -14.340   4.962  0.00  0.00    +0.012 A 
ATOM     27  C   UNL     1      -1.854 -13.439   2.899  0.00  0.00    +0.012 A 
ATOM     28  C   UNL     1       0.052 -14.959   4.254  0.00  0.00    +0.005 A 
ATOM     29  C   UNL     1      -0.823 -14.058   2.190  0.00  0.00    +0.005 A 
BRANCH  25  24
ATOM     24  C   UNL     1       1.231 -15.480   2.112  0.00  0.00    -0.013 C 
ATOM     30  C   UNL     1       0.683 -16.238   0.863  0.00  0.00    +0.015 C 
ATOM     31  C   UNL     1       1.984 -16.519   3.000  0.00  0.00    +0.015 C 
ATOM     32  C   UNL     1       2.340 -14.520   1.564  0.00  0.00    +0.015 C 
ENDBRANCH  25  24
ENDBRANCH  21  23
ENDBRANCH  13  15
ENDBRANCH   8  13
TORSDOF 6
ENDMDL
MODEL 6
REMARK VINA RESULT:      -7.0      5.405     10.036
REMARK  Name = 26743300
REMARK  10 active torsions:
REMARK  status: ('A' for Active; 'I' for Inactive)
REMARK    1  A    between atoms: N_5  and  C_22
REMARK    2  A    between atoms: C_7  and  C_11
REMARK    3  A    between atoms: C_8  and  C_13
REMARK    4  A    between atoms: C_11  and  C_14
REMARK    5  A    between atoms: C_13  and  C_15
REMARK    6  A    between atoms: C_21  and  C_23
REMARK    7  A    between atoms: C_24  and  C_25
REMARK    8  A    between atoms: C_24  and  C_30
REMARK    9  A    between atoms: C_24  and  C_31
REMARK   10  A    between atoms: C_24  and  C_32
REMARK                            x       y       z     vdW  Elec       q    Type
REMARK                         _______ _______ _______ _____ _____    ______ ____
ROOT
ATOM      3  N   UNL     1     -14.945   1.742  33.603  0.00  0.00    -0.316 NA
ATOM      7  C   UNL     1     -15.035   2.615  30.786  0.00  0.00    +0.004 C 
ATOM      8  C   UNL     1     -15.137   3.604  31.972  0.00  0.00    +0.012 C 
ATOM      9  C   UNL     1     -14.298   1.348  31.251  0.00  0.00    +0.019 C 
ATOM     10  C   UNL     1     -15.714   2.928  33.227  0.00  0.00    +0.085 C 
ATOM     12  C   UNL     1     -14.902   0.757  32.525  0.00  0.00    +0.081 C 
ATOM     33  H   UNL     1     -15.361   1.317  34.431  0.00  0.00    +0.122 HD
ENDROOT
BRANCH   7  11
ATOM     11  C   UNL     1     -16.385   2.259  30.152  0.00  0.00    +0.100 C 
BRANCH  11  14
ATOM      1  O   UNL     1     -15.917   0.708  28.422  0.00  0.00    -0.276 OA
ATOM      4  N   UNL     1     -16.338   2.897  27.768  0.00  0.00    -0.299 N 
ATOM      5  N   UNL     1     -17.367   4.689  25.783  0.00  0.00    -0.302 NA
ATOM     14  C   UNL     1     -16.190   1.878  28.706  0.00  0.00    +0.216 C 
ATOM     16  C   UNL     1     -16.169   2.607  26.344  0.00  0.00    +0.123 C 
ATOM     17  C   UNL     1     -16.529   4.316  28.079  0.00  0.00    +0.123 C 
ATOM     18  C   UNL     1     -17.279   3.247  25.511  0.00  0.00    +0.103 C 
ATOM     19  C   UNL     1     -17.629   4.928  27.209  0.00  0.00    +0.103 C 
ATOM     22  C   UNL     1     -18.408   5.304  24.959  0.00  0.00    +0.105 C 
ENDBRANCH  11  14
ENDBRANCH   7  11
BRANCH   8  13
ATOM     13  C   UNL     1     -15.928   4.868  31.632  0.00  0.00    +0.064 C 
BRANCH  13  15
ATOM      2  O   UNL     1     -14.621   8.210  31.928  0.00  0.00    -0.354 OA
ATOM      6  N   UNL     1     -15.600   7.301  31.542  0.00  0.00    -0.083 NA
ATOM     15  C   UNL     1     -15.122   6.106  31.899  0.00  0.00    +0.085 A 
ATOM     20  C   UNL     1     -13.859   6.197  32.509  0.00  0.00    +0.076 A 
ATOM     21  C   UNL     1     -13.590   7.540  32.502  0.00  0.00    +0.167 A 
BRANCH  21  23
ATOM     23  C   UNL     1     -12.497   8.351  32.954  0.00  0.00    +0.020 A 
ATOM     25  C   UNL     1     -10.370   9.926  33.835  0.00  0.00    -0.042 A 
ATOM     26  C   UNL     1     -12.412   8.720  34.297  0.00  0.00    +0.012 A 
ATOM     27  C   UNL     1     -11.520   8.769  32.053  0.00  0.00    +0.012 A 
ATOM     28  C   UNL     1     -11.348   9.508  34.737  0.00  0.00    +0.005 A 
ATOM     29  C   UNL     1     -10.456   9.558  32.492  0.00  0.00    +0.005 A 
BRANCH  25  24
ATOM     24  C   UNL     1      -9.234  10.770  34.306  0.00  0.00    -0.013 C 
ATOM     30  C   UNL     1      -8.201   9.925  35.114  0.00  0.00    +0.015 C 
ATOM     31  C   UNL     1      -9.730  11.922  35.235  0.00  0.00    +0.015 C 
ATOM     32  C   UNL     1      -8.407  11.472  33.178  0.00  0.00    +0.015 C 
ENDBRANCH  25  24
ENDBRANCH  21  23
ENDBRANCH  13  15
ENDBRANCH   8  13
TORSDOF 6
ENDMDL
MODEL 7
REMARK VINA RESULT:      -6.9      8.745     12.297
REMARK  Name = 26743300
REMARK  10 active torsions:
REMARK  status: ('A' for Active; 'I' for Inactive)
REMARK    1  A    between atoms: N_5  and  C_22
REMARK    2  A    between atoms: C_7  and  C_11
REMARK    3  A    between atoms: C_8  and  C_13
REMARK    4  A    between atoms: C_11  and  C_14
REMARK    5  A    between atoms: C_13  and  C_15
REMARK    6  A    between atoms: C_21  and  C_23
REMARK    7  A    between atoms: C_24  and  C_25
REMARK    8  A    between atoms: C_24  and  C_30
REMARK    9  A    between atoms: C_24  and  C_31
REMARK   10  A    between atoms: C_24  and  C_32
REMARK                            x       y       z     vdW  Elec       q    Type
REMARK                         _______ _______ _______ _____ _____    ______ ____
ROOT
ATOM      3  N   UNL     1     -12.261  10.947  31.515  0.00  0.00    -0.316 NA
ATOM      7  C   UNL     1     -10.895   9.364  33.597  0.00  0.00    +0.004 C 
ATOM      8  C   UNL     1     -12.372   9.127  33.201  0.00  0.00    +0.012 C 
ATOM      9  C   UNL     1     -10.157  10.018  32.416  0.00  0.00    +0.019 C 
ATOM     10  C   UNL     1     -13.022  10.404  32.641  0.00  0.00    +0.085 C 
ATOM     12  C   UNL     1     -10.883  11.255  31.888  0.00  0.00    +0.081 C 
ATOM     33  H   UNL     1     -12.717  11.795  31.178  0.00  0.00    +0.122 HD
ENDROOT
BRANCH   7  11
ATOM     11  C   UNL     1     -10.717  10.191  34.876  0.00  0.00    +0.100 C 
BRANCH  11  14
ATOM      1  O   UNL     1      -8.393   9.816  35.161  0.00  0.00    -0.276 OA
ATOM      4  N   UNL     1      -9.777   9.117  36.891  0.00  0.00    -0.299 N 
ATOM      5  N   UNL     1     -10.122   8.656  39.697  0.00  0.00    -0.302 NA
ATOM     14  C   UNL     1      -9.521   9.693  35.648  0.00  0.00    +0.216 C 
ATOM     16  C   UNL     1      -8.671   8.613  37.703  0.00  0.00    +0.123 C 
ATOM     17  C   UNL     1     -11.108   8.836  37.438  0.00  0.00    +0.123 C 
ATOM     18  C   UNL     1      -8.810   9.047  39.162  0.00  0.00    +0.103 C 
ATOM     19  C   UNL     1     -11.202   9.261  38.905  0.00  0.00    +0.103 C 
ATOM     22  C   UNL     1     -10.238   9.043  41.104  0.00  0.00    +0.105 C 
ENDBRANCH  11  14
ENDBRANCH   7  11
BRANCH   8  13
ATOM     13  C   UNL     1     -13.213   8.552  34.341  0.00  0.00    +0.064 C 
BRANCH  13  15
ATOM      2  O   UNL     1     -14.001   5.049  34.597  0.00  0.00    -0.354 OA
ATOM      6  N   UNL     1     -13.744   6.296  35.155  0.00  0.00    -0.083 NA
ATOM     15  C   UNL     1     -13.527   7.102  34.112  0.00  0.00    +0.085 A 
ATOM     20  C   UNL     1     -13.634   6.428  32.884  0.00  0.00    +0.076 A 
ATOM     21  C   UNL     1     -13.932   5.140  33.244  0.00  0.00    +0.167 A 
BRANCH  21  23
ATOM     23  C   UNL     1     -14.177   3.924  32.526  0.00  0.00    +0.020 A 
ATOM     25  C   UNL     1     -14.657   1.557  31.129  0.00  0.00    -0.042 A 
ATOM     26  C   UNL     1     -14.541   2.767  33.217  0.00  0.00    +0.012 A 
ATOM     27  C   UNL     1     -14.054   3.897  31.138  0.00  0.00    +0.012 A 
ATOM     28  C   UNL     1     -14.781   1.584  32.517  0.00  0.00    +0.005 A 
ATOM     29  C   UNL     1     -14.293   2.713  30.438  0.00  0.00    +0.005 A 
BRANCH  25  24
ATOM     24  C   UNL     1     -14.912   0.292  30.382  0.00  0.00    -0.013 C 
ATOM     30  C   UNL     1     -15.985   0.500  29.268  0.00  0.00    +0.015 C 
ATOM     31  C   UNL     1     -15.432  -0.832  31.332  0.00  0.00    +0.015 C 
ATOM     32  C   UNL     1     -13.669  -0.320  29.654  0.00  0.00    +0.015 C 
ENDBRANCH  25  24
ENDBRANCH  21  23
ENDBRANCH  13  15
ENDBRANCH   8  13
TORSDOF 6
ENDMDL
MODEL 8
REMARK VINA RESULT:      -6.9     15.600     16.978
REMARK  Name = 26743300
REMARK  10 active torsions:
REMARK  status: ('A' for Active; 'I' for Inactive)
REMARK    1  A    between atoms: N_5  and  C_22
REMARK    2  A    between atoms: C_7  and  C_11
REMARK    3  A    between atoms: C_8  and  C_13
REMARK    4  A    between atoms: C_11  and  C_14
REMARK    5  A    between atoms: C_13  and  C_15
REMARK    6  A    between atoms: C_21  and  C_23
REMARK    7  A    between atoms: C_24  and  C_25
REMARK    8  A    between atoms: C_24  and  C_30
REMARK    9  A    between atoms: C_24  and  C_31
REMARK   10  A    between atoms: C_24  and  C_32
REMARK                            x       y       z     vdW  Elec       q    Type
REMARK                         _______ _______ _______ _____ _____    ______ ____
ROOT
ATOM      3  N   UNL     1     -13.391 -10.217  18.229  0.00  0.00    -0.316 NA
ATOM      7  C   UNL     1     -10.521  -9.608  18.547  0.00  0.00    +0.004 C 
ATOM      8  C   UNL     1     -11.396  -8.962  17.447  0.00  0.00    +0.012 C 
ATOM      9  C   UNL     1     -11.424 -10.045  19.713  0.00  0.00    +0.019 C 
ATOM     10  C   UNL     1     -12.583  -9.862  17.062  0.00  0.00    +0.085 C 
ATOM     12  C   UNL     1     -12.603 -10.902  19.250  0.00  0.00    +0.081 C 
ATOM     33  H   UNL     1     -14.160 -10.819  17.936  0.00  0.00    +0.122 HD
ENDROOT
BRANCH   7  11
ATOM     11  C   UNL     1      -9.661 -10.779  18.054  0.00  0.00    +0.100 C 
BRANCH  11  14
ATOM      1  O   UNL     1      -8.516 -11.429  20.025  0.00  0.00    -0.276 OA
ATOM      4  N   UNL     1      -7.240 -10.418  18.369  0.00  0.00    -0.299 N 
ATOM      5  N   UNL     1      -4.702 -10.168  17.064  0.00  0.00    -0.302 NA
ATOM     14  C   UNL     1      -8.427 -10.907  18.911  0.00  0.00    +0.216 C 
ATOM     16  C   UNL     1      -5.998 -10.508  19.135  0.00  0.00    +0.123 C 
ATOM     17  C   UNL     1      -7.124  -9.675  17.111  0.00  0.00    +0.123 C 
ATOM     18  C   UNL     1      -4.843 -11.004  18.265  0.00  0.00    +0.103 C 
ATOM     19  C   UNL     1      -5.944 -10.182  16.278  0.00  0.00    +0.103 C 
ATOM     22  C   UNL     1      -3.575 -10.626  16.250  0.00  0.00    +0.105 C 
ENDBRANCH  11  14
ENDBRANCH   7  11
BRANCH   8  13
ATOM     13  C   UNL     1     -10.598  -8.565  16.203  0.00  0.00    +0.064 C 
BRANCH  13  15
ATOM      2  O   UNL     1     -11.777  -5.335  15.136  0.00  0.00    -0.354 OA
ATOM      6  N   UNL     1     -11.093  -6.166  16.017  0.00  0.00    -0.083 NA
ATOM     15  C   UNL     1     -11.223  -7.393  15.504  0.00  0.00    +0.085 A 
ATOM     20  C   UNL     1     -11.969  -7.398  14.313  0.00  0.00    +0.076 A 
ATOM     21  C   UNL     1     -12.294  -6.080  14.127  0.00  0.00    +0.167 A 
BRANCH  21  23
ATOM     23  C   UNL     1     -13.032  -5.355  13.134  0.00  0.00    +0.020 A 
ATOM     25  C   UNL     1     -14.468  -3.942  11.205  0.00  0.00    -0.042 A 
ATOM     26  C   UNL     1     -14.265  -5.835  12.691  0.00  0.00    +0.012 A 
ATOM     27  C   UNL     1     -12.518  -4.168  12.612  0.00  0.00    +0.012 A 
ATOM     28  C   UNL     1     -14.982  -5.129  11.727  0.00  0.00    +0.005 A 
ATOM     29  C   UNL     1     -13.236  -3.461  11.646  0.00  0.00    +0.005 A 
BRANCH  25  24
ATOM     24  C   UNL     1     -15.236  -3.188  10.172  0.00  0.00    -0.013 C 
ATOM     30  C   UNL     1     -15.833  -1.872  10.761  0.00  0.00    +0.015 C 
ATOM     31  C   UNL     1     -16.422  -4.035   9.616  0.00  0.00    +0.015 C 
ATOM     32  C   UNL     1     -14.415  -2.746   8.915  0.00  0.00    +0.015 C 
ENDBRANCH  25  24
ENDBRANCH  21  23
ENDBRANCH  13  15
ENDBRANCH   8  13
TORSDOF 6
ENDMDL
MODEL 9
REMARK VINA RESULT:      -6.8      6.588     11.968
REMARK  Name = 26743300
REMARK  10 active torsions:
REMARK  status: ('A' for Active; 'I' for Inactive)
REMARK    1  A    between atoms: N_5  and  C_22
REMARK    2  A    between atoms: C_7  and  C_11
REMARK    3  A    between atoms: C_8  and  C_13
REMARK    4  A    between atoms: C_11  and  C_14
REMARK    5  A    between atoms: C_13  and  C_15
REMARK    6  A    between atoms: C_21  and  C_23
REMARK    7  A    between atoms: C_24  and  C_25
REMARK    8  A    between atoms: C_24  and  C_30
REMARK    9  A    between atoms: C_24  and  C_31
REMARK   10  A    between atoms: C_24  and  C_32
REMARK                            x       y       z     vdW  Elec       q    Type
REMARK                         _______ _______ _______ _____ _____    ______ ____
ROOT
ATOM      3  N   UNL     1     -14.453   7.635  22.058  0.00  0.00    -0.316 NA
ATOM      7  C   UNL     1     -12.081   8.806  20.750  0.00  0.00    +0.004 C 
ATOM      8  C   UNL     1     -12.742   9.433  22.001  0.00  0.00    +0.012 C 
ATOM      9  C   UNL     1     -12.410   7.304  20.708  0.00  0.00    +0.019 C 
ATOM     10  C   UNL     1     -14.237   9.081  22.092  0.00  0.00    +0.085 C 
ATOM     12  C   UNL     1     -13.908   7.031  20.844  0.00  0.00    +0.081 C 
ATOM     33  H   UNL     1     -15.453   7.442  22.110  0.00  0.00    +0.122 HD
ENDROOT
BRANCH   7  11
ATOM     11  C   UNL     1     -12.470   9.487  19.432  0.00  0.00    +0.100 C 
BRANCH  11  14
ATOM      1  O   UNL     1     -10.150   9.589  18.962  0.00  0.00    -0.276 OA
ATOM      4  N   UNL     1     -11.573   9.425  17.133  0.00  0.00    -0.299 N 
ATOM      5  N   UNL     1     -12.001   8.497  14.457  0.00  0.00    -0.302 NA
ATOM     14  C   UNL     1     -11.289   9.507  18.495  0.00  0.00    +0.216 C 
ATOM     16  C   UNL     1     -10.482   9.435  16.160  0.00  0.00    +0.123 C 
ATOM     17  C   UNL     1     -12.914   9.461  16.542  0.00  0.00    +0.123 C 
ATOM     18  C   UNL     1     -10.681   8.360  15.091  0.00  0.00    +0.103 C 
ATOM     19  C   UNL     1     -13.068   8.389  15.461  0.00  0.00    +0.103 C 
ATOM     22  C   UNL     1     -12.175   7.488  13.412  0.00  0.00    +0.105 C 
ENDBRANCH  11  14
ENDBRANCH   7  11
BRANCH   8  13
ATOM     13  C   UNL     1     -12.540  10.946  22.091  0.00  0.00    +0.064 C 
BRANCH  13  15
ATOM      2  O   UNL     1     -12.862  12.709  25.214  0.00  0.00    -0.354 OA
ATOM      6  N   UNL     1     -13.052  12.593  23.841  0.00  0.00    -0.083 NA
ATOM     15  C   UNL     1     -12.517  11.412  23.518  0.00  0.00    +0.085 A 
ATOM     20  C   UNL     1     -11.982  10.745  24.633  0.00  0.00    +0.076 A 
ATOM     21  C   UNL     1     -12.224  11.603  25.673  0.00  0.00    +0.167 A 
BRANCH  21  23
ATOM     23  C   UNL     1     -11.959  11.579  27.082  0.00  0.00    +0.020 A 
ATOM     25  C   UNL     1     -11.439  11.532  29.822  0.00  0.00    -0.042 A 
ATOM     26  C   UNL     1     -11.738  10.363  27.730  0.00  0.00    +0.012 A 
ATOM     27  C   UNL     1     -11.920  12.771  27.804  0.00  0.00    +0.012 A 
ATOM     28  C   UNL     1     -11.478  10.340  29.099  0.00  0.00    +0.005 A 
ATOM     29  C   UNL     1     -11.661  12.748  29.175  0.00  0.00    +0.005 A 
BRANCH  25  24
ATOM     24  C   UNL     1     -11.163  11.507  31.288  0.00  0.00    -0.013 C 
ATOM     30  C   UNL     1     -12.281  12.248  32.086  0.00  0.00    +0.015 C 
ATOM     31  C   UNL     1      -9.807  12.203  31.621  0.00  0.00    +0.015 C 
ATOM     32  C   UNL     1     -11.069  10.082  31.929  0.00  0.00    +0.015 C 
ENDBRANCH  25  24
ENDBRANCH  21  23
ENDBRANCH  13  15
ENDBRANCH   8  13
TORSDOF 6
ENDMDL
MODEL 10
REMARK VINA RESULT:      -6.7      8.141      9.952
REMARK  Name = 26743300
REMARK  10 active torsions:
REMARK  status: ('A' for Active; 'I' for Inactive)
REMARK    1  A    between atoms: N_5  and  C_22
REMARK    2  A    between atoms: C_7  and  C_11
REMARK    3  A    between atoms: C_8  and  C_13
REMARK    4  A    between atoms: C_11  and  C_14
REMARK    5  A    between atoms: C_13  and  C_15
REMARK    6  A    between atoms: C_21  and  C_23
REMARK    7  A    between atoms: C_24  and  C_25
REMARK    8  A    between atoms: C_24  and  C_30
REMARK    9  A    between atoms: C_24  and  C_31
REMARK   10  A    between atoms: C_24  and  C_32
REMARK                            x       y       z     vdW  Elec       q    Type
REMARK                         _______ _______ _______ _____ _____    ______ ____
ROOT
ATOM      3  N   UNL     1     -16.883   8.706  31.097  0.00  0.00    -0.316 NA
ATOM      7  C   UNL     1     -16.454   6.211  32.611  0.00  0.00    +0.004 C 
ATOM      8  C   UNL     1     -15.369   7.306  32.479  0.00  0.00    +0.012 C 
ATOM      9  C   UNL     1     -17.839   6.851  32.418  0.00  0.00    +0.019 C 
ATOM     10  C   UNL     1     -15.543   8.126  31.190  0.00  0.00    +0.085 C 
ATOM     12  C   UNL     1     -17.924   7.683  31.138  0.00  0.00    +0.081 C 
ATOM     33  H   UNL     1     -16.963   9.234  30.228  0.00  0.00    +0.122 HD
ENDROOT
BRANCH   7  11
ATOM     11  C   UNL     1     -16.263   5.025  31.658  0.00  0.00    +0.100 C 
BRANCH  11  14
ATOM      1  O   UNL     1     -16.717   3.569  33.472  0.00  0.00    -0.276 OA
ATOM      4  N   UNL     1     -15.110   2.862  31.952  0.00  0.00    -0.299 N 
ATOM      5  N   UNL     1     -13.806   0.683  30.626  0.00  0.00    -0.302 NA
ATOM     14  C   UNL     1     -16.056   3.758  32.448  0.00  0.00    +0.216 C 
ATOM     16  C   UNL     1     -14.853   1.608  32.659  0.00  0.00    +0.123 C 
ATOM     17  C   UNL     1     -14.216   3.113  30.818  0.00  0.00    +0.123 C 
ATOM     18  C   UNL     1     -14.788   0.427  31.690  0.00  0.00    +0.103 C 
ATOM     19  C   UNL     1     -14.157   1.903  29.884  0.00  0.00    +0.103 C 
ATOM     22  C   UNL     1     -13.722  -0.463  29.719  0.00  0.00    +0.105 C 
ENDBRANCH  11  14
ENDBRANCH   7  11
BRANCH   8  13
ATOM     13  C   UNL     1     -13.945   6.754  32.575  0.00  0.00    +0.064 C 
BRANCH  13  15
ATOM      2  O   UNL     1     -11.881   9.218  34.197  0.00  0.00    -0.354 OA
ATOM      6  N   UNL     1     -12.860   8.231  34.212  0.00  0.00    -0.083 NA
ATOM     15  C   UNL     1     -12.965   7.831  32.942  0.00  0.00    +0.085 A 
ATOM     20  C   UNL     1     -12.085   8.521  32.089  0.00  0.00    +0.076 A 
ATOM     21  C   UNL     1     -11.428   9.381  32.928  0.00  0.00    +0.167 A 
BRANCH  21  23
ATOM     23  C   UNL     1     -10.407  10.373  32.756  0.00  0.00    +0.020 A 
ATOM     25  C   UNL     1      -8.421  12.304  32.423  0.00  0.00    -0.042 A 
ATOM     26  C   UNL     1     -10.560  11.372  31.794  0.00  0.00    +0.012 A 
ATOM     27  C   UNL     1      -9.261  10.340  33.550  0.00  0.00    +0.012 A 
ATOM     28  C   UNL     1      -9.567  12.337  31.628  0.00  0.00    +0.005 A 
ATOM     29  C   UNL     1      -8.267  11.305  33.384  0.00  0.00    +0.005 A 
BRANCH  25  24
ATOM     24  C   UNL     1      -7.359  13.336  32.243  0.00  0.00    -0.013 C 
ATOM     30  C   UNL     1      -6.842  13.859  33.619  0.00  0.00    +0.015 C 
ATOM     31  C   UNL     1      -7.892  14.564  31.442  0.00  0.00    +0.015 C 
ATOM     32  C   UNL     1      -6.083  12.858  31.473  0.00  0.00    +0.015 C 
ENDBRANCH  25  24
ENDBRANCH  21  23
ENDBRANCH  13  15
ENDBRANCH   8  13
TORSDOF 6
ENDMDL
