MODEL 1
REMARK VINA RESULT:      -6.6      0.000      0.000
REMARK  Name = 26742843
REMARK  5 active torsions:
REMARK  status: ('A' for Active; 'I' for Inactive)
REMARK    1  A    between atoms: N_5  and  C_18
REMARK    2  A    between atoms: N_6  and  C_20
REMARK    3  A    between atoms: N_7  and  C_24
REMARK    4  A    between atoms: C_18  and  C_20
REMARK    5  A    between atoms: C_24  and  C_25
REMARK                            x       y       z     vdW  Elec       q    Type
REMARK                         _______ _______ _______ _____ _____    ______ ____
ROOT
ATOM      1  O   UNL     1      15.766  10.396  21.074  0.00  0.00    -0.276 OA
ATOM      2  O   UNL     1      23.239   7.200  21.305  0.00  0.00    -0.253 OA
ATOM      4  N   UNL     1      20.932   7.267  21.042  0.00  0.00    -0.285 N 
ATOM      5  N   UNL     1      15.782   8.217  20.272  0.00  0.00    -0.300 N 
ATOM      7  N   UNL     1      22.181   5.329  20.505  0.00  0.00    -0.296 N 
ATOM      9  C   UNL     1      18.499   6.926  21.519  0.00  0.00    +0.011 C 
ATOM     10  C   UNL     1      18.373   8.401  21.962  0.00  0.00    +0.004 C 
ATOM     11  C   UNL     1      19.733   8.853  22.523  0.00  0.00    +0.023 C 
ATOM     12  C   UNL     1      19.667   6.708  20.534  0.00  0.00    +0.113 C 
ATOM     13  C   UNL     1      17.188   6.310  20.999  0.00  0.00    +0.024 C 
ATOM     14  C   UNL     1      17.896   9.355  20.854  0.00  0.00    +0.100 C 
ATOM     15  C   UNL     1      20.863   8.650  21.521  0.00  0.00    +0.109 C 
ATOM     16  C   UNL     1      16.536   7.043  19.832  0.00  0.00    +0.108 C 
ATOM     17  C   UNL     1      16.383   9.381  20.743  0.00  0.00    +0.216 C 
ATOM     19  C   UNL     1      22.190   6.637  20.976  0.00  0.00    +0.302 C 
ATOM     27  H   UNL     1      21.323   4.844  20.287  0.00  0.00    +0.151 HD
ENDROOT
BRANCH   5  18
ATOM     18  C   UNL     1      14.330   8.122  20.206  0.00  0.00    +0.126 C 
BRANCH  18  20
ATOM     20  C   UNL     1      13.750   7.369  21.392  0.00  0.00    +0.128 C 
BRANCH  20   6
ATOM      3  O   UNL     1      11.267   5.748  20.906  0.00  0.00    -0.253 OA
ATOM      6  N   UNL     1      12.372   7.706  21.623  0.00  0.00    -0.283 N 
ATOM      8  N   UNL     1      10.118   7.596  21.773  0.00  0.00    -0.298 N 
ATOM     21  C   UNL     1      11.972   8.957  22.243  0.00  0.00    +0.128 C 
ATOM     22  C   UNL     1      10.451   8.921  22.232  0.00  0.00    +0.124 C 
ATOM     23  C   UNL     1      11.259   6.878  21.375  0.00  0.00    +0.302 C 
ATOM     28  H   UNL     1       9.172   7.237  21.697  0.00  0.00    +0.150 HD
ENDBRANCH  20   6
ENDBRANCH  18  20
ENDBRANCH   5  18
BRANCH   7  24
ATOM     24  C   UNL     1      23.392   4.551  20.370  0.00  0.00    +0.132 C 
BRANCH  24  25
ATOM     25  C   UNL     1      23.222   3.255  21.090  0.00  0.00    -0.016 C 
ATOM     26  C   UNL     1      23.883   2.135  20.776  0.00  0.00    +0.005 C 
ENDBRANCH  24  25
ENDBRANCH   7  24
TORSDOF 5
ENDMDL
MODEL 2
REMARK VINA RESULT:      -6.5     28.104     30.878
REMARK  Name = 26742843
REMARK  5 active torsions:
REMARK  status: ('A' for Active; 'I' for Inactive)
REMARK    1  A    between atoms: N_5  and  C_18
REMARK    2  A    between atoms: N_6  and  C_20
REMARK    3  A    between atoms: N_7  and  C_24
REMARK    4  A    between atoms: C_18  and  C_20
REMARK    5  A    between atoms: C_24  and  C_25
REMARK                            x       y       z     vdW  Elec       q    Type
REMARK                         _______ _______ _______ _____ _____    ______ ____
ROOT
ATOM      1  O   UNL     1      -4.919 -10.512   7.084  0.00  0.00    -0.276 OA
ATOM      2  O   UNL     1      -1.624 -10.751  14.515  0.00  0.00    -0.253 OA
ATOM      4  N   UNL     1      -3.261 -10.457  12.892  0.00  0.00    -0.285 N 
ATOM      5  N   UNL     1      -6.536 -10.299   8.737  0.00  0.00    -0.300 N 
ATOM      7  N   UNL     1      -3.786 -10.409  15.200  0.00  0.00    -0.296 N 
ATOM      9  C   UNL     1      -4.875  -9.315  11.359  0.00  0.00    +0.011 C 
ATOM     10  C   UNL     1      -3.904  -9.519  10.175  0.00  0.00    +0.004 C 
ATOM     11  C   UNL     1      -2.469  -9.544  10.729  0.00  0.00    +0.023 C 
ATOM     12  C   UNL     1      -4.670 -10.364  12.472  0.00  0.00    +0.113 C 
ATOM     13  C   UNL     1      -6.354  -9.196  10.949  0.00  0.00    +0.024 C 
ATOM     14  C   UNL     1      -4.187 -10.775   9.335  0.00  0.00    +0.100 C 
ATOM     15  C   UNL     1      -2.288 -10.605  11.807  0.00  0.00    +0.109 C 
ATOM     16  C   UNL     1      -6.909 -10.370  10.150  0.00  0.00    +0.108 C 
ATOM     17  C   UNL     1      -5.242 -10.522   8.274  0.00  0.00    +0.216 C 
ATOM     19  C   UNL     1      -2.808 -10.550  14.223  0.00  0.00    +0.302 C 
ATOM     27  H   UNL     1      -4.744 -10.191  14.971  0.00  0.00    +0.151 HD
ENDROOT
BRANCH   5  18
ATOM     18  C   UNL     1      -7.599  -9.970   7.798  0.00  0.00    +0.126 C 
BRANCH  18  20
ATOM     20  C   UNL     1      -7.721  -8.472   7.573  0.00  0.00    +0.128 C 
BRANCH  20   6
ATOM      3  O   UNL     1      -9.832  -6.707   6.365  0.00  0.00    -0.253 OA
ATOM      6  N   UNL     1      -7.974  -8.152   6.195  0.00  0.00    -0.283 N 
ATOM      8  N   UNL     1      -8.848  -7.255   4.312  0.00  0.00    -0.298 N 
ATOM     21  C   UNL     1      -7.122  -8.626   5.118  0.00  0.00    +0.128 C 
ATOM     22  C   UNL     1      -7.786  -8.112   3.849  0.00  0.00    +0.124 C 
ATOM     23  C   UNL     1      -8.987  -7.301   5.709  0.00  0.00    +0.302 C 
ATOM     28  H   UNL     1      -9.456  -6.717   3.702  0.00  0.00    +0.150 HD
ENDBRANCH  20   6
ENDBRANCH  18  20
ENDBRANCH   5  18
BRANCH   7  24
ATOM     24  C   UNL     1      -3.482 -10.489  16.611  0.00  0.00    +0.132 C 
BRANCH  24  25
ATOM     25  C   UNL     1      -4.739 -10.768  17.366  0.00  0.00    -0.016 C 
ATOM     26  C   UNL     1      -4.768 -11.274  18.604  0.00  0.00    +0.005 C 
ENDBRANCH  24  25
ENDBRANCH   7  24
TORSDOF 5
ENDMDL
MODEL 3
REMARK VINA RESULT:      -6.4      6.746     10.127
REMARK  Name = 26742843
REMARK  5 active torsions:
REMARK  status: ('A' for Active; 'I' for Inactive)
REMARK    1  A    between atoms: N_5  and  C_18
REMARK    2  A    between atoms: N_6  and  C_20
REMARK    3  A    between atoms: N_7  and  C_24
REMARK    4  A    between atoms: C_18  and  C_20
REMARK    5  A    between atoms: C_24  and  C_25
REMARK                            x       y       z     vdW  Elec       q    Type
REMARK                         _______ _______ _______ _____ _____    ______ ____
ROOT
ATOM      1  O   UNL     1      13.462   8.512  15.114  0.00  0.00    -0.276 OA
ATOM      2  O   UNL     1      10.261   8.902  22.579  0.00  0.00    -0.253 OA
ATOM      4  N   UNL     1      11.629   9.469  20.789  0.00  0.00    -0.285 N 
ATOM      5  N   UNL     1      14.166  10.416  16.241  0.00  0.00    -0.300 N 
ATOM      7  N   UNL     1      11.523  10.809  22.737  0.00  0.00    -0.296 N 
ATOM      9  C   UNL     1      13.685   9.709  19.383  0.00  0.00    +0.011 C 
ATOM     10  C   UNL     1      13.232   8.520  18.507  0.00  0.00    +0.004 C 
ATOM     11  C   UNL     1      12.384   7.576  19.378  0.00  0.00    +0.023 C 
ATOM     12  C   UNL     1      12.497  10.417  20.069  0.00  0.00    +0.113 C 
ATOM     13  C   UNL     1      14.609  10.707  18.662  0.00  0.00    +0.024 C 
ATOM     14  C   UNL     1      12.466   8.925  17.237  0.00  0.00    +0.100 C 
ATOM     15  C   UNL     1      11.205   8.295  20.022  0.00  0.00    +0.109 C 
ATOM     16  C   UNL     1      14.043  11.319  17.385  0.00  0.00    +0.108 C 
ATOM     17  C   UNL     1      13.405   9.259  16.093  0.00  0.00    +0.216 C 
ATOM     19  C   UNL     1      11.083   9.672  22.071  0.00  0.00    +0.302 C 
ATOM     27  H   UNL     1      12.235  11.414  22.352  0.00  0.00    +0.151 HD
ENDROOT
BRANCH   5  18
ATOM     18  C   UNL     1      15.151  10.774  15.230  0.00  0.00    +0.126 C 
BRANCH  18  20
ATOM     20  C   UNL     1      15.003  12.215  14.770  0.00  0.00    +0.128 C 
BRANCH  20   6
ATOM      3  O   UNL     1      16.341  11.992  12.088  0.00  0.00    -0.253 OA
ATOM      6  N   UNL     1      14.439  12.304  13.451  0.00  0.00    -0.283 N 
ATOM      8  N   UNL     1      14.195  12.302  11.203  0.00  0.00    -0.298 N 
ATOM     21  C   UNL     1      13.013  12.455  13.224  0.00  0.00    +0.128 C 
ATOM     22  C   UNL     1      12.874  12.569  11.713  0.00  0.00    +0.124 C 
ATOM     23  C   UNL     1      15.140  12.177  12.235  0.00  0.00    +0.302 C 
ATOM     28  H   UNL     1      14.429  12.258  10.216  0.00  0.00    +0.150 HD
ENDBRANCH  20   6
ENDBRANCH  18  20
ENDBRANCH   5  18
BRANCH   7  24
ATOM     24  C   UNL     1      11.049  11.161  24.057  0.00  0.00    +0.132 C 
BRANCH  24  25
ATOM     25  C   UNL     1      11.000  12.648  24.178  0.00  0.00    -0.016 C 
ATOM     26  C   UNL     1      10.586  13.294  25.273  0.00  0.00    +0.005 C 
ENDBRANCH  24  25
ENDBRANCH   7  24
TORSDOF 5
ENDMDL
MODEL 4
REMARK VINA RESULT:      -6.2      1.732      2.017
REMARK  Name = 26742843
REMARK  5 active torsions:
REMARK  status: ('A' for Active; 'I' for Inactive)
REMARK    1  A    between atoms: N_5  and  C_18
REMARK    2  A    between atoms: N_6  and  C_20
REMARK    3  A    between atoms: N_7  and  C_24
REMARK    4  A    between atoms: C_18  and  C_20
REMARK    5  A    between atoms: C_24  and  C_25
REMARK                            x       y       z     vdW  Elec       q    Type
REMARK                         _______ _______ _______ _____ _____    ______ ____
ROOT
ATOM      1  O   UNL     1      17.671  10.576  21.913  0.00  0.00    -0.276 OA
ATOM      2  O   UNL     1      24.288   5.877  21.398  0.00  0.00    -0.253 OA
ATOM      4  N   UNL     1      22.041   6.455  21.275  0.00  0.00    -0.285 N 
ATOM      5  N   UNL     1      17.192   8.543  20.898  0.00  0.00    -0.300 N 
ATOM      7  N   UNL     1      22.826   4.370  20.477  0.00  0.00    -0.296 N 
ATOM      9  C   UNL     1      19.609   6.582  21.853  0.00  0.00    +0.011 C 
ATOM     10  C   UNL     1      19.819   7.993  22.447  0.00  0.00    +0.004 C 
ATOM     11  C   UNL     1      21.262   8.085  22.972  0.00  0.00    +0.023 C 
ATOM     12  C   UNL     1      20.669   6.234  20.786  0.00  0.00    +0.113 C 
ATOM     13  C   UNL     1      18.180   6.315  21.350  0.00  0.00    +0.024 C 
ATOM     14  C   UNL     1      19.519   9.142  21.470  0.00  0.00    +0.100 C 
ATOM     15  C   UNL     1      22.287   7.760  21.893  0.00  0.00    +0.109 C 
ATOM     16  C   UNL     1      17.661   7.293  20.300  0.00  0.00    +0.108 C 
ATOM     17  C   UNL     1      18.044   9.496  21.448  0.00  0.00    +0.216 C 
ATOM     19  C   UNL     1      23.132   5.586  21.075  0.00  0.00    +0.302 C 
ATOM     27  H   UNL     1      21.877   4.103  20.260  0.00  0.00    +0.151 HD
ENDROOT
BRANCH   5  18
ATOM     18  C   UNL     1      15.752   8.762  20.906  0.00  0.00    +0.126 C 
BRANCH  18  20
ATOM     20  C   UNL     1      15.097   8.313  19.611  0.00  0.00    +0.128 C 
BRANCH  20   6
ATOM      3  O   UNL     1      13.134   7.159  17.648  0.00  0.00    -0.253 OA
ATOM      6  N   UNL     1      13.881   7.582  19.847  0.00  0.00    -0.283 N 
ATOM      8  N   UNL     1      11.977   6.402  19.538  0.00  0.00    -0.298 N 
ATOM     21  C   UNL     1      13.444   7.212  21.182  0.00  0.00    +0.128 C 
ATOM     22  C   UNL     1      12.106   6.521  20.969  0.00  0.00    +0.124 C 
ATOM     23  C   UNL     1      13.017   7.063  18.863  0.00  0.00    +0.302 C 
ATOM     28  H   UNL     1      11.205   5.939  19.070  0.00  0.00    +0.150 HD
ENDBRANCH  20   6
ENDBRANCH  18  20
ENDBRANCH   5  18
BRANCH   7  24
ATOM     24  C   UNL     1      23.837   3.375  20.196  0.00  0.00    +0.132 C 
BRANCH  24  25
ATOM     25  C   UNL     1      23.491   2.112  20.913  0.00  0.00    -0.016 C 
ATOM     26  C   UNL     1      24.396   1.220  21.330  0.00  0.00    +0.005 C 
ENDBRANCH  24  25
ENDBRANCH   7  24
TORSDOF 5
ENDMDL
MODEL 5
REMARK VINA RESULT:      -6.1     28.787     30.956
REMARK  Name = 26742843
REMARK  5 active torsions:
REMARK  status: ('A' for Active; 'I' for Inactive)
REMARK    1  A    between atoms: N_5  and  C_18
REMARK    2  A    between atoms: N_6  and  C_20
REMARK    3  A    between atoms: N_7  and  C_24
REMARK    4  A    between atoms: C_18  and  C_20
REMARK    5  A    between atoms: C_24  and  C_25
REMARK                            x       y       z     vdW  Elec       q    Type
REMARK                         _______ _______ _______ _____ _____    ______ ____
ROOT
ATOM      1  O   UNL     1     -13.901  10.310  23.012  0.00  0.00    -0.276 OA
ATOM      2  O   UNL     1     -10.170  10.048  15.792  0.00  0.00    -0.253 OA
ATOM      4  N   UNL     1     -11.349   9.272  17.637  0.00  0.00    -0.285 N 
ATOM      5  N   UNL     1     -14.273   8.286  21.937  0.00  0.00    -0.300 N 
ATOM      7  N   UNL     1     -11.023   7.921  15.721  0.00  0.00    -0.296 N 
ATOM      9  C   UNL     1     -11.849   8.071  19.775  0.00  0.00    +0.011 C 
ATOM     10  C   UNL     1     -11.733   9.399  20.555  0.00  0.00    +0.004 C 
ATOM     11  C   UNL     1     -10.750  10.314  19.804  0.00  0.00    +0.023 C 
ATOM     12  C   UNL     1     -12.231   8.292  18.295  0.00  0.00    +0.113 C 
ATOM     13  C   UNL     1     -12.749   7.020  20.448  0.00  0.00    +0.024 C 
ATOM     14  C   UNL     1     -13.074  10.114  20.788  0.00  0.00    +0.100 C 
ATOM     15  C   UNL     1     -11.164  10.535  18.355  0.00  0.00    +0.109 C 
ATOM     16  C   UNL     1     -14.180   7.466  20.729  0.00  0.00    +0.108 C 
ATOM     17  C   UNL     1     -13.790   9.589  22.019  0.00  0.00    +0.216 C 
ATOM     19  C   UNL     1     -10.801   9.142  16.346  0.00  0.00    +0.302 C 
ATOM     27  H   UNL     1     -11.490   7.157  16.188  0.00  0.00    +0.151 HD
ENDROOT
BRANCH   5  18
ATOM     18  C   UNL     1     -14.904   7.670  23.096  0.00  0.00    +0.126 C 
BRANCH  18  20
ATOM     20  C   UNL     1     -16.052   6.754  22.706  0.00  0.00    +0.128 C 
BRANCH  20   6
ATOM      3  O   UNL     1     -14.500   4.316  21.881  0.00  0.00    -0.253 OA
ATOM      6  N   UNL     1     -15.955   5.468  23.340  0.00  0.00    -0.283 N 
ATOM      8  N   UNL     1     -15.367   3.339  23.825  0.00  0.00    -0.298 N 
ATOM     21  C   UNL     1     -16.594   5.178  24.612  0.00  0.00    +0.128 C 
ATOM     22  C   UNL     1     -16.287   3.710  24.870  0.00  0.00    +0.124 C 
ATOM     23  C   UNL     1     -15.191   4.373  22.890  0.00  0.00    +0.302 C 
ATOM     28  H   UNL     1     -14.932   2.425  23.743  0.00  0.00    +0.150 HD
ENDBRANCH  20   6
ENDBRANCH  18  20
ENDBRANCH   5  18
BRANCH   7  24
ATOM     24  C   UNL     1     -10.533   7.636  14.391  0.00  0.00    +0.132 C 
BRANCH  24  25
ATOM     25  C   UNL     1     -11.620   7.903  13.403  0.00  0.00    -0.016 C 
ATOM     26  C   UNL     1     -12.816   7.306  13.430  0.00  0.00    +0.005 C 
ENDBRANCH  24  25
ENDBRANCH   7  24
TORSDOF 5
ENDMDL
MODEL 6
REMARK VINA RESULT:      -5.9     28.781     33.112
REMARK  Name = 26742843
REMARK  5 active torsions:
REMARK  status: ('A' for Active; 'I' for Inactive)
REMARK    1  A    between atoms: N_5  and  C_18
REMARK    2  A    between atoms: N_6  and  C_20
REMARK    3  A    between atoms: N_7  and  C_24
REMARK    4  A    between atoms: C_18  and  C_20
REMARK    5  A    between atoms: C_24  and  C_25
REMARK                            x       y       z     vdW  Elec       q    Type
REMARK                         _______ _______ _______ _____ _____    ______ ____
ROOT
ATOM      1  O   UNL     1     -10.251 -11.925  17.927  0.00  0.00    -0.276 OA
ATOM      2  O   UNL     1     -14.872  -6.448  14.083  0.00  0.00    -0.253 OA
ATOM      4  N   UNL     1     -12.991  -7.329  15.122  0.00  0.00    -0.285 N 
ATOM      5  N   UNL     1      -9.010 -10.073  17.277  0.00  0.00    -0.300 N 
ATOM      7  N   UNL     1     -12.926  -5.237  14.017  0.00  0.00    -0.296 N 
ATOM      9  C   UNL     1     -11.230  -7.729  16.855  0.00  0.00    +0.011 C 
ATOM     10  C   UNL     1     -11.932  -9.041  17.274  0.00  0.00    +0.004 C 
ATOM     11  C   UNL     1     -13.437  -8.891  16.995  0.00  0.00    +0.023 C 
ATOM     12  C   UNL     1     -11.543  -7.338  15.395  0.00  0.00    +0.113 C 
ATOM     13  C   UNL     1      -9.719  -7.702  17.145  0.00  0.00    +0.024 C 
ATOM     14  C   UNL     1     -11.373 -10.301  16.594  0.00  0.00    +0.100 C 
ATOM     15  C   UNL     1     -13.718  -8.530  15.541  0.00  0.00    +0.109 C 
ATOM     16  C   UNL     1      -8.910  -8.829  16.512  0.00  0.00    +0.108 C 
ATOM     17  C   UNL     1     -10.163 -10.851  17.327  0.00  0.00    +0.216 C 
ATOM     19  C   UNL     1     -13.680  -6.344  14.389  0.00  0.00    +0.302 C 
ATOM     27  H   UNL     1     -11.966  -5.120  14.310  0.00  0.00    +0.151 HD
ENDROOT
BRANCH   5  18
ATOM     18  C   UNL     1      -7.823 -10.481  18.016  0.00  0.00    +0.126 C 
BRANCH  18  20
ATOM     20  C   UNL     1      -6.542 -10.168  17.262  0.00  0.00    +0.128 C 
BRANCH  20   6
ATOM      3  O   UNL     1      -3.790 -10.552  16.118  0.00  0.00    -0.253 OA
ATOM      6  N   UNL     1      -5.413 -10.877  17.800  0.00  0.00    -0.283 N 
ATOM      8  N   UNL     1      -3.345 -11.747  18.082  0.00  0.00    -0.298 N 
ATOM     21  C   UNL     1      -5.437 -11.493  19.115  0.00  0.00    +0.128 C 
ATOM     22  C   UNL     1      -4.082 -12.173  19.245  0.00  0.00    +0.124 C 
ATOM     23  C   UNL     1      -4.144 -11.002  17.200  0.00  0.00    +0.302 C 
ATOM     28  H   UNL     1      -2.378 -11.994  17.895  0.00  0.00    +0.150 HD
ENDBRANCH  20   6
ENDBRANCH  18  20
ENDBRANCH   5  18
BRANCH   7  24
ATOM     24  C   UNL     1     -13.486  -4.145  13.254  0.00  0.00    +0.132 C 
BRANCH  24  25
ATOM     25  C   UNL     1     -12.446  -3.617  12.321  0.00  0.00    -0.016 C 
ATOM     26  C   UNL     1     -12.122  -4.197  11.161  0.00  0.00    +0.005 C 
ENDBRANCH  24  25
ENDBRANCH   7  24
TORSDOF 5
ENDMDL
MODEL 7
REMARK VINA RESULT:      -5.9     28.430     31.998
REMARK  Name = 26742843
REMARK  5 active torsions:
REMARK  status: ('A' for Active; 'I' for Inactive)
REMARK    1  A    between atoms: N_5  and  C_18
REMARK    2  A    between atoms: N_6  and  C_20
REMARK    3  A    between atoms: N_7  and  C_24
REMARK    4  A    between atoms: C_18  and  C_20
REMARK    5  A    between atoms: C_24  and  C_25
REMARK                            x       y       z     vdW  Elec       q    Type
REMARK                         _______ _______ _______ _____ _____    ______ ____
ROOT
ATOM      1  O   UNL     1     -13.852  10.501  18.165  0.00  0.00    -0.276 OA
ATOM      2  O   UNL     1     -17.784   5.167  22.878  0.00  0.00    -0.253 OA
ATOM      4  N   UNL     1     -16.045   6.522  22.146  0.00  0.00    -0.285 N 
ATOM      5  N   UNL     1     -12.670  10.057  20.114  0.00  0.00    -0.300 N 
ATOM      7  N   UNL     1     -15.941   5.393  24.224  0.00  0.00    -0.296 N 
ATOM      9  C   UNL     1     -13.858   7.204  21.138  0.00  0.00    +0.011 C 
ATOM     10  C   UNL     1     -14.582   7.634  19.843  0.00  0.00    +0.004 C 
ATOM     11  C   UNL     1     -15.845   6.768  19.687  0.00  0.00    +0.023 C 
ATOM     12  C   UNL     1     -14.786   7.252  22.371  0.00  0.00    +0.113 C 
ATOM     13  C   UNL     1     -12.529   7.937  21.392  0.00  0.00    +0.024 C 
ATOM     14  C   UNL     1     -14.935   9.129  19.782  0.00  0.00    +0.100 C 
ATOM     15  C   UNL     1     -16.754   6.854  20.907  0.00  0.00    +0.109 C 
ATOM     16  C   UNL     1     -12.621   9.459  21.449  0.00  0.00    +0.108 C 
ATOM     17  C   UNL     1     -13.775   9.964  19.273  0.00  0.00    +0.216 C 
ATOM     19  C   UNL     1     -16.667   5.658  23.068  0.00  0.00    +0.302 C 
ATOM     27  H   UNL     1     -15.006   5.746  24.361  0.00  0.00    +0.151 HD
ENDROOT
BRANCH   5  18
ATOM     18  C   UNL     1     -11.479  10.772  19.676  0.00  0.00    +0.126 C 
BRANCH  18  20
ATOM     20  C   UNL     1     -10.349   9.828  19.299  0.00  0.00    +0.128 C 
BRANCH  20   6
ATOM      3  O   UNL     1     -11.203   7.091  18.397  0.00  0.00    -0.253 OA
ATOM      6  N   UNL     1     -10.505   9.305  17.969  0.00  0.00    -0.283 N 
ATOM      8  N   UNL     1     -10.962   7.937  16.227  0.00  0.00    -0.298 N 
ATOM     21  C   UNL     1     -10.323  10.126  16.785  0.00  0.00    +0.128 C 
ATOM     22  C   UNL     1     -10.520   9.168  15.620  0.00  0.00    +0.124 C 
ATOM     23  C   UNL     1     -10.923   8.003  17.630  0.00  0.00    +0.302 C 
ATOM     28  H   UNL     1     -11.224   7.106  15.708  0.00  0.00    +0.150 HD
ENDBRANCH  20   6
ENDBRANCH  18  20
ENDBRANCH   5  18
BRANCH   7  24
ATOM     24  C   UNL     1     -16.447   4.533  25.270  0.00  0.00    +0.132 C 
BRANCH  24  25
ATOM     25  C   UNL     1     -15.876   3.165  25.096  0.00  0.00    -0.016 C 
ATOM     26  C   UNL     1     -16.495   2.044  25.483  0.00  0.00    +0.005 C 
ENDBRANCH  24  25
ENDBRANCH   7  24
TORSDOF 5
ENDMDL
MODEL 8
REMARK VINA RESULT:      -5.6     29.558     33.596
REMARK  Name = 26742843
REMARK  5 active torsions:
REMARK  status: ('A' for Active; 'I' for Inactive)
REMARK    1  A    between atoms: N_5  and  C_18
REMARK    2  A    between atoms: N_6  and  C_20
REMARK    3  A    between atoms: N_7  and  C_24
REMARK    4  A    between atoms: C_18  and  C_20
REMARK    5  A    between atoms: C_24  and  C_25
REMARK                            x       y       z     vdW  Elec       q    Type
REMARK                         _______ _______ _______ _____ _____    ______ ____
ROOT
ATOM      1  O   UNL     1     -11.844 -10.005  17.678  0.00  0.00    -0.276 OA
ATOM      2  O   UNL     1     -15.638  -5.098  12.420  0.00  0.00    -0.253 OA
ATOM      4  N   UNL     1     -13.908  -5.924  13.731  0.00  0.00    -0.285 N 
ATOM      5  N   UNL     1     -10.360  -8.530  16.671  0.00  0.00    -0.300 N 
ATOM      7  N   UNL     1     -13.550  -4.185  12.167  0.00  0.00    -0.296 N 
ATOM      9  C   UNL     1     -12.248  -6.105  15.596  0.00  0.00    +0.011 C 
ATOM     10  C   UNL     1     -13.122  -7.181  16.277  0.00  0.00    +0.004 C 
ATOM     11  C   UNL     1     -14.590  -6.922  15.896  0.00  0.00    +0.023 C 
ATOM     12  C   UNL     1     -12.479  -6.043  14.071  0.00  0.00    +0.113 C 
ATOM     13  C   UNL     1     -10.752  -6.192  15.946  0.00  0.00    +0.024 C 
ATOM     14  C   UNL     1     -12.719  -8.627  15.944  0.00  0.00    +0.100 C 
ATOM     15  C   UNL     1     -14.793  -6.891  14.386  0.00  0.00    +0.109 C 
ATOM     16  C   UNL     1     -10.084  -7.529  15.640  0.00  0.00    +0.108 C 
ATOM     17  C   UNL     1     -11.605  -9.126  16.846  0.00  0.00    +0.216 C 
ATOM     19  C   UNL     1     -14.448  -5.069  12.752  0.00  0.00    +0.302 C 
ATOM     27  H   UNL     1     -12.589  -4.118  12.471  0.00  0.00    +0.151 HD
ENDROOT
BRANCH   5  18
ATOM     18  C   UNL     1      -9.251  -8.889  17.544  0.00  0.00    +0.126 C 
BRANCH  18  20
ATOM     20  C   UNL     1      -8.019  -9.312  16.762  0.00  0.00    +0.128 C 
BRANCH  20   6
ATOM      3  O   UNL     1      -5.112  -9.922  16.306  0.00  0.00    -0.253 OA
ATOM      6  N   UNL     1      -7.099 -10.064  17.572  0.00  0.00    -0.283 N 
ATOM      8  N   UNL     1      -5.220 -11.046  18.357  0.00  0.00    -0.298 N 
ATOM     21  C   UNL     1      -7.470 -10.613  18.864  0.00  0.00    +0.128 C 
ATOM     22  C   UNL     1      -6.234 -11.369  19.329  0.00  0.00    +0.124 C 
ATOM     23  C   UNL     1      -5.738 -10.296  17.289  0.00  0.00    +0.302 C 
ATOM     28  H   UNL     1      -4.256 -11.362  18.410  0.00  0.00    +0.150 HD
ENDBRANCH  20   6
ENDBRANCH  18  20
ENDBRANCH   5  18
BRANCH   7  24
ATOM     24  C   UNL     1     -13.948  -3.249  11.139  0.00  0.00    +0.132 C 
BRANCH  24  25
ATOM     25  C   UNL     1     -13.143  -3.504   9.908  0.00  0.00    -0.016 C 
ATOM     26  C   UNL     1     -11.809  -3.597   9.896  0.00  0.00    +0.005 C 
ENDBRANCH  24  25
ENDBRANCH   7  24
TORSDOF 5
ENDMDL
MODEL 9
REMARK VINA RESULT:      -5.6      2.457      9.459
REMARK  Name = 26742843
REMARK  5 active torsions:
REMARK  status: ('A' for Active; 'I' for Inactive)
REMARK    1  A    between atoms: N_5  and  C_18
REMARK    2  A    between atoms: N_6  and  C_20
REMARK    3  A    between atoms: N_7  and  C_24
REMARK    4  A    between atoms: C_18  and  C_20
REMARK    5  A    between atoms: C_24  and  C_25
REMARK                            x       y       z     vdW  Elec       q    Type
REMARK                         _______ _______ _______ _____ _____    ______ ____
ROOT
ATOM      1  O   UNL     1      18.799   4.659  19.714  0.00  0.00    -0.276 OA
ATOM      2  O   UNL     1      12.633   9.880  18.785  0.00  0.00    -0.253 OA
ATOM      4  N   UNL     1      14.641   9.039  19.598  0.00  0.00    -0.285 N 
ATOM      5  N   UNL     1      19.240   6.689  20.752  0.00  0.00    -0.300 N 
ATOM      7  N   UNL     1      13.939  11.247  20.082  0.00  0.00    -0.296 N 
ATOM      9  C   UNL     1      16.303   8.029  21.172  0.00  0.00    +0.011 C 
ATOM     10  C   UNL     1      16.155   6.665  20.462  0.00  0.00    +0.004 C 
ATOM     11  C   UNL     1      14.735   6.578  19.877  0.00  0.00    +0.023 C 
ATOM     12  C   UNL     1      15.953   9.213  20.245  0.00  0.00    +0.113 C 
ATOM     13  C   UNL     1      17.658   8.232  21.873  0.00  0.00    +0.024 C 
ATOM     14  C   UNL     1      17.210   6.401  19.375  0.00  0.00    +0.100 C 
ATOM     15  C   UNL     1      14.425   7.745  18.947  0.00  0.00    +0.109 C 
ATOM     16  C   UNL     1      18.886   8.090  20.980  0.00  0.00    +0.108 C 
ATOM     17  C   UNL     1      18.490   5.829  19.955  0.00  0.00    +0.216 C 
ATOM     19  C   UNL     1      13.664  10.043  19.445  0.00  0.00    +0.302 C 
ATOM     27  H   UNL     1      14.752  11.371  20.667  0.00  0.00    +0.151 HD
ENDROOT
BRANCH   5  18
ATOM     18  C   UNL     1      20.443   6.204  21.415  0.00  0.00    +0.126 C 
BRANCH  18  20
ATOM     20  C   UNL     1      21.629   6.127  20.468  0.00  0.00    +0.128 C 
BRANCH  20   6
ATOM      3  O   UNL     1      24.575   5.668  20.088  0.00  0.00    -0.253 OA
ATOM      6  N   UNL     1      22.409   4.938  20.676  0.00  0.00    -0.283 N 
ATOM      8  N   UNL     1      24.140   3.490  20.832  0.00  0.00    -0.298 N 
ATOM     21  C   UNL     1      21.835   3.716  21.213  0.00  0.00    +0.128 C 
ATOM     22  C   UNL     1      22.982   2.717  21.204  0.00  0.00    +0.124 C 
ATOM     23  C   UNL     1      23.798   4.808  20.483  0.00  0.00    +0.302 C 
ATOM     28  H   UNL     1      25.083   3.119  20.780  0.00  0.00    +0.150 HD
ENDBRANCH  20   6
ENDBRANCH  18  20
ENDBRANCH   5  18
BRANCH   7  24
ATOM     24  C   UNL     1      13.040  12.378  20.012  0.00  0.00    +0.132 C 
BRANCH  24  25
ATOM     25  C   UNL     1      12.460  12.624  21.365  0.00  0.00    -0.016 C 
ATOM     26  C   UNL     1      11.164  12.864  21.589  0.00  0.00    +0.005 C 
ENDBRANCH  24  25
ENDBRANCH   7  24
TORSDOF 5
ENDMDL
MODEL 10
REMARK VINA RESULT:      -5.6     28.118     31.346
REMARK  Name = 26742843
REMARK  5 active torsions:
REMARK  status: ('A' for Active; 'I' for Inactive)
REMARK    1  A    between atoms: N_5  and  C_18
REMARK    2  A    between atoms: N_6  and  C_20
REMARK    3  A    between atoms: N_7  and  C_24
REMARK    4  A    between atoms: C_18  and  C_20
REMARK    5  A    between atoms: C_24  and  C_25
REMARK                            x       y       z     vdW  Elec       q    Type
REMARK                         _______ _______ _______ _____ _____    ______ ____
ROOT
ATOM      1  O   UNL     1      -4.942 -10.216   7.090  0.00  0.00    -0.276 OA
ATOM      2  O   UNL     1      -1.595 -10.802  14.477  0.00  0.00    -0.253 OA
ATOM      4  N   UNL     1      -3.239 -10.418  12.881  0.00  0.00    -0.285 N 
ATOM      5  N   UNL     1      -6.543 -10.044   8.763  0.00  0.00    -0.300 N 
ATOM      7  N   UNL     1      -3.745 -10.454  15.193  0.00  0.00    -0.296 N 
ATOM      9  C   UNL     1      -4.847  -9.190  11.408  0.00  0.00    +0.011 C 
ATOM     10  C   UNL     1      -3.888  -9.363  10.209  0.00  0.00    +0.004 C 
ATOM     11  C   UNL     1      -2.449  -9.431  10.749  0.00  0.00    +0.023 C 
ATOM     12  C   UNL     1      -4.649 -10.287  12.477  0.00  0.00    +0.113 C 
ATOM     13  C   UNL     1      -6.326  -9.033  11.015  0.00  0.00    +0.024 C 
ATOM     14  C   UNL     1      -4.197 -10.580   9.322  0.00  0.00    +0.100 C 
ATOM     15  C   UNL     1      -2.277 -10.537  11.783  0.00  0.00    +0.109 C 
ATOM     16  C   UNL     1      -6.906 -10.166  10.175  0.00  0.00    +0.108 C 
ATOM     17  C   UNL     1      -5.256 -10.268   8.281  0.00  0.00    +0.216 C 
ATOM     19  C   UNL     1      -2.777 -10.571  14.203  0.00  0.00    +0.302 C 
ATOM     27  H   UNL     1      -4.702 -10.212  14.981  0.00  0.00    +0.151 HD
ENDROOT
BRANCH   5  18
ATOM     18  C   UNL     1      -7.607  -9.661   7.846  0.00  0.00    +0.126 C 
BRANCH  18  20
ATOM     20  C   UNL     1      -8.533 -10.822   7.525  0.00  0.00    +0.128 C 
BRANCH  20   6
ATOM      3  O   UNL     1      -6.996 -13.404   7.489  0.00  0.00    -0.253 OA
ATOM      6  N   UNL     1      -8.060 -11.595   6.409  0.00  0.00    -0.283 N 
ATOM      8  N   UNL     1      -7.118 -13.226   5.157  0.00  0.00    -0.298 N 
ATOM     21  C   UNL     1      -8.352 -11.234   5.033  0.00  0.00    +0.128 C 
ATOM     22  C   UNL     1      -7.617 -12.272   4.199  0.00  0.00    +0.124 C 
ATOM     23  C   UNL     1      -7.350 -12.811   6.479  0.00  0.00    +0.302 C 
ATOM     28  H   UNL     1      -6.616 -14.074   4.912  0.00  0.00    +0.150 HD
ENDBRANCH  20   6
ENDBRANCH  18  20
ENDBRANCH   5  18
BRANCH   7  24
ATOM     24  C   UNL     1      -3.432 -10.595  16.598  0.00  0.00    +0.132 C 
BRANCH  24  25
ATOM     25  C   UNL     1      -4.557 -11.298  17.281  0.00  0.00    -0.016 C 
ATOM     26  C   UNL     1      -5.487 -10.679  18.016  0.00  0.00    +0.005 C 
ENDBRANCH  24  25
ENDBRANCH   7  24
TORSDOF 5
ENDMDL
