MODEL 1
REMARK VINA RESULT:      -7.7      0.000      0.000
REMARK  Name = 75366944
REMARK  8 active torsions:
REMARK  status: ('A' for Active; 'I' for Inactive)
REMARK    1  A    between atoms: O_3  and  C_11
REMARK    2  A    between atoms: N_6  and  C_15
REMARK    3  A    between atoms: N_8  and  C_21
REMARK    4  A    between atoms: C_9  and  C_14
REMARK    5  A    between atoms: C_10  and  C_15
REMARK    6  A    between atoms: C_14  and  C_16
REMARK    7  A    between atoms: C_19  and  C_20
REMARK    8  A    between atoms: C_21  and  C_24
REMARK                            x       y       z     vdW  Elec       q    Type
REMARK                         _______ _______ _______ _____ _____    ______ ____
ROOT
ATOM      2  O   UNL     1      10.645   8.504  19.731  0.00  0.00    -0.369 OA
ATOM      9  C   UNL     1      11.828   8.305  18.954  0.00  0.00    +0.125 C 
ATOM     10  C   UNL     1      10.830   8.442  21.151  0.00  0.00    +0.164 C 
ATOM     11  C   UNL     1      11.483   7.119  21.572  0.00  0.00    +0.145 C 
ATOM     12  C   UNL     1      12.449   6.942  19.257  0.00  0.00    +0.034 C 
ATOM     13  C   UNL     1      12.729   6.799  20.750  0.00  0.00    +0.036 C 
ENDROOT
BRANCH  11   3
ATOM      3  O   UNL     1      10.546   6.059  21.374  0.00  0.00    -0.389 OA
ATOM     28  H   UNL     1      11.004   5.222  21.561  0.00  0.00    +0.210 HD
ENDBRANCH  11   3
BRANCH   9  14
ATOM     14  C   UNL     1      11.435   8.408  17.485  0.00  0.00    +0.090 C 
BRANCH  14  16
ATOM      4  O   UNL     1      13.493   9.904  14.933  0.00  0.00    -0.354 OA
ATOM      7  N   UNL     1      12.414   9.132  15.347  0.00  0.00    -0.083 NA
ATOM     16  C   UNL     1      12.466   9.152  16.682  0.00  0.00    +0.087 A 
ATOM     17  C   UNL     1      13.547   9.913  17.162  0.00  0.00    +0.076 A 
ATOM     19  C   UNL     1      14.160  10.364  16.022  0.00  0.00    +0.167 A 
BRANCH  19  20
ATOM      1  F   UNL     1      18.600  13.546  14.971  0.00  0.00    -0.205 F 
ATOM     20  C   UNL     1      15.305  11.183  15.752  0.00  0.00    +0.020 A 
ATOM     22  C   UNL     1      15.749  12.098  16.707  0.00  0.00    +0.014 A 
ATOM     23  C   UNL     1      15.974  11.066  14.533  0.00  0.00    +0.014 A 
ATOM     25  C   UNL     1      16.863  12.896  16.443  0.00  0.00    +0.039 A 
ATOM     26  C   UNL     1      17.087  11.865  14.269  0.00  0.00    +0.039 A 
ATOM     27  C   UNL     1      17.531  12.779  15.225  0.00  0.00    +0.123 A 
ENDBRANCH  19  20
ENDBRANCH  14  16
ENDBRANCH   9  14
BRANCH  10  15
ATOM     15  C   UNL     1      11.584   9.668  21.662  0.00  0.00    +0.140 C 
BRANCH  15   6
ATOM      5  O   UNL     1      12.426  11.639  23.596  0.00  0.00    -0.253 OA
ATOM      6  N   UNL     1      10.743  10.479  22.489  0.00  0.00    -0.297 N 
ATOM      8  N   UNL     1      10.197  12.066  24.079  0.00  0.00    -0.300 N 
ATOM     18  C   UNL     1      11.230  11.417  23.407  0.00  0.00    +0.300 C 
ATOM     29  H   UNL     1       9.739  10.337  22.439  0.00  0.00    +0.150 HD
ATOM     30  H   UNL     1       9.238  11.812  23.860  0.00  0.00    +0.150 HD
BRANCH   8  21
ATOM     21  C   UNL     1      10.430  13.080  25.080  0.00  0.00    +0.102 C 
ATOM     24  C   UNL     1      10.152  14.467  24.538  0.00  0.00    +0.024 C 
ENDBRANCH   8  21
ENDBRANCH  15   6
ENDBRANCH  10  15
TORSDOF 7
ENDMDL
MODEL 2
REMARK VINA RESULT:      -7.4      5.114      6.000
REMARK  Name = 75366944
REMARK  8 active torsions:
REMARK  status: ('A' for Active; 'I' for Inactive)
REMARK    1  A    between atoms: O_3  and  C_11
REMARK    2  A    between atoms: N_6  and  C_15
REMARK    3  A    between atoms: N_8  and  C_21
REMARK    4  A    between atoms: C_9  and  C_14
REMARK    5  A    between atoms: C_10  and  C_15
REMARK    6  A    between atoms: C_14  and  C_16
REMARK    7  A    between atoms: C_19  and  C_20
REMARK    8  A    between atoms: C_21  and  C_24
REMARK                            x       y       z     vdW  Elec       q    Type
REMARK                         _______ _______ _______ _____ _____    ______ ____
ROOT
ATOM      2  O   UNL     1      13.454   8.863  19.568  0.00  0.00    -0.369 OA
ATOM      9  C   UNL     1      13.909   7.520  19.745  0.00  0.00    +0.125 C 
ATOM     10  C   UNL     1      12.554   9.340  20.576  0.00  0.00    +0.164 C 
ATOM     11  C   UNL     1      11.335   8.420  20.719  0.00  0.00    +0.145 C 
ATOM     12  C   UNL     1      12.729   6.550  19.774  0.00  0.00    +0.034 C 
ATOM     13  C   UNL     1      11.730   6.951  20.856  0.00  0.00    +0.036 C 
ENDROOT
BRANCH  11   3
ATOM      3  O   UNL     1      10.524   8.545  19.548  0.00  0.00    -0.389 OA
ATOM     28  H   UNL     1       9.864   9.238  19.720  0.00  0.00    +0.210 HD
ENDBRANCH  11   3
BRANCH   9  14
ATOM     14  C   UNL     1      14.848   7.197  18.589  0.00  0.00    +0.090 C 
BRANCH  14  16
ATOM      4  O   UNL     1      17.910   5.379  19.146  0.00  0.00    -0.354 OA
ATOM      7  N   UNL     1      16.728   5.615  18.453  0.00  0.00    -0.083 NA
ATOM     16  C   UNL     1      16.165   6.656  19.074  0.00  0.00    +0.087 A 
ATOM     17  C   UNL     1      16.938   7.113  20.156  0.00  0.00    +0.076 A 
ATOM     19  C   UNL     1      18.024   6.277  20.156  0.00  0.00    +0.167 A 
BRANCH  19  20
ATOM      1  F   UNL     1      22.594   5.819  23.296  0.00  0.00    -0.205 F 
ATOM     20  C   UNL     1      19.203   6.160  20.965  0.00  0.00    +0.020 A 
ATOM     22  C   UNL     1      20.259   5.351  20.545  0.00  0.00    +0.014 A 
ATOM     23  C   UNL     1      19.292   6.854  22.172  0.00  0.00    +0.014 A 
ATOM     25  C   UNL     1      21.405   5.236  21.332  0.00  0.00    +0.039 A 
ATOM     26  C   UNL     1      20.437   6.738  22.959  0.00  0.00    +0.039 A 
ATOM     27  C   UNL     1      21.494   5.929  22.539  0.00  0.00    +0.123 A 
ENDBRANCH  19  20
ENDBRANCH  14  16
ENDBRANCH   9  14
BRANCH  10  15
ATOM     15  C   UNL     1      13.282   9.574  21.899  0.00  0.00    +0.140 C 
BRANCH  15   6
ATOM      5  O   UNL     1      13.069  12.057  23.354  0.00  0.00    -0.253 OA
ATOM      6  N   UNL     1      12.356   9.884  22.946  0.00  0.00    -0.297 N 
ATOM      8  N   UNL     1      11.322  11.149  24.581  0.00  0.00    -0.300 N 
ATOM     18  C   UNL     1      12.316  11.118  23.606  0.00  0.00    +0.300 C 
ATOM     29  H   UNL     1      11.722   9.155  23.257  0.00  0.00    +0.150 HD
ATOM     30  H   UNL     1      10.750  10.322  24.721  0.00  0.00    +0.150 HD
BRANCH   8  21
ATOM     21  C   UNL     1      11.071  12.307  25.405  0.00  0.00    +0.102 C 
ATOM     24  C   UNL     1      10.258  13.350  24.665  0.00  0.00    +0.024 C 
ENDBRANCH   8  21
ENDBRANCH  15   6
ENDBRANCH  10  15
TORSDOF 7
ENDMDL
MODEL 3
REMARK VINA RESULT:      -6.9      4.062      6.419
REMARK  Name = 75366944
REMARK  8 active torsions:
REMARK  status: ('A' for Active; 'I' for Inactive)
REMARK    1  A    between atoms: O_3  and  C_11
REMARK    2  A    between atoms: N_6  and  C_15
REMARK    3  A    between atoms: N_8  and  C_21
REMARK    4  A    between atoms: C_9  and  C_14
REMARK    5  A    between atoms: C_10  and  C_15
REMARK    6  A    between atoms: C_14  and  C_16
REMARK    7  A    between atoms: C_19  and  C_20
REMARK    8  A    between atoms: C_21  and  C_24
REMARK                            x       y       z     vdW  Elec       q    Type
REMARK                         _______ _______ _______ _____ _____    ______ ____
ROOT
ATOM      2  O   UNL     1      12.841  11.323  23.521  0.00  0.00    -0.369 OA
ATOM      9  C   UNL     1      12.894  12.478  22.681  0.00  0.00    +0.125 C 
ATOM     10  C   UNL     1      11.566  11.063  24.122  0.00  0.00    +0.164 C 
ATOM     11  C   UNL     1      11.065  12.276  24.916  0.00  0.00    +0.145 C 
ATOM     12  C   UNL     1      12.514  13.733  23.466  0.00  0.00    +0.034 C 
ATOM     13  C   UNL     1      11.140  13.570  24.109  0.00  0.00    +0.036 C 
ENDROOT
BRANCH  11   3
ATOM      3  O   UNL     1      11.885  12.439  26.076  0.00  0.00    -0.389 OA
ATOM     28  H   UNL     1      11.502  13.157  26.609  0.00  0.00    +0.210 HD
ENDBRANCH  11   3
BRANCH   9  14
ATOM     14  C   UNL     1      14.313  12.586  22.138  0.00  0.00    +0.090 C 
BRANCH  14  16
ATOM      4  O   UNL     1      14.708   9.680  20.043  0.00  0.00    -0.354 OA
ATOM      7  N   UNL     1      14.043  10.839  20.426  0.00  0.00    -0.083 NA
ATOM     16  C   UNL     1      14.748  11.318  21.455  0.00  0.00    +0.087 A 
ATOM     17  C   UNL     1      15.857  10.511  21.763  0.00  0.00    +0.076 A 
ATOM     19  C   UNL     1      15.786   9.496  20.846  0.00  0.00    +0.167 A 
BRANCH  19  20
ATOM      1  F   UNL     1      18.859   4.986  19.763  0.00  0.00    -0.205 F 
ATOM     20  C   UNL     1      16.578   8.333  20.568  0.00  0.00    +0.020 A 
ATOM     22  C   UNL     1      17.830   8.182  21.165  0.00  0.00    +0.014 A 
ATOM     23  C   UNL     1      16.097   7.354  19.699  0.00  0.00    +0.014 A 
ATOM     25  C   UNL     1      18.601   7.051  20.894  0.00  0.00    +0.039 A 
ATOM     26  C   UNL     1      16.868   6.223  19.427  0.00  0.00    +0.039 A 
ATOM     27  C   UNL     1      18.119   6.073  20.025  0.00  0.00    +0.123 A 
ENDBRANCH  19  20
ENDBRANCH  14  16
ENDBRANCH   9  14
BRANCH  10  15
ATOM     15  C   UNL     1      10.558  10.572  23.085  0.00  0.00    +0.140 C 
BRANCH  15   6
ATOM      5  O   UNL     1      10.855   7.797  22.348  0.00  0.00    -0.253 OA
ATOM      6  N   UNL     1      11.223  10.053  21.929  0.00  0.00    -0.297 N 
ATOM      8  N   UNL     1      12.023   8.461  20.456  0.00  0.00    -0.300 N 
ATOM     18  C   UNL     1      11.325   8.687  21.640  0.00  0.00    +0.300 C 
ATOM     29  H   UNL     1      11.685  10.709  21.306  0.00  0.00    +0.150 HD
ATOM     30  H   UNL     1      12.380   9.259  19.940  0.00  0.00    +0.150 HD
BRANCH   8  21
ATOM     21  C   UNL     1      12.267   7.138  19.934  0.00  0.00    +0.102 C 
ATOM     24  C   UNL     1      12.730   7.188  18.491  0.00  0.00    +0.024 C 
ENDBRANCH   8  21
ENDBRANCH  15   6
ENDBRANCH  10  15
TORSDOF 7
ENDMDL
MODEL 4
REMARK VINA RESULT:      -6.9     26.833     28.884
REMARK  Name = 75366944
REMARK  8 active torsions:
REMARK  status: ('A' for Active; 'I' for Inactive)
REMARK    1  A    between atoms: O_3  and  C_11
REMARK    2  A    between atoms: N_6  and  C_15
REMARK    3  A    between atoms: N_8  and  C_21
REMARK    4  A    between atoms: C_9  and  C_14
REMARK    5  A    between atoms: C_10  and  C_15
REMARK    6  A    between atoms: C_14  and  C_16
REMARK    7  A    between atoms: C_19  and  C_20
REMARK    8  A    between atoms: C_21  and  C_24
REMARK                            x       y       z     vdW  Elec       q    Type
REMARK                         _______ _______ _______ _____ _____    ______ ____
ROOT
ATOM      2  O   UNL     1      -3.159  -9.612  10.328  0.00  0.00    -0.369 OA
ATOM      9  C   UNL     1      -3.488 -10.347  11.509  0.00  0.00    +0.125 C 
ATOM     10  C   UNL     1      -4.260  -9.345   9.449  0.00  0.00    +0.164 C 
ATOM     11  C   UNL     1      -4.979 -10.638   9.044  0.00  0.00    +0.145 C 
ATOM     12  C   UNL     1      -4.101 -11.699  11.149  0.00  0.00    +0.034 C 
ATOM     13  C   UNL     1      -5.318 -11.515  10.247  0.00  0.00    +0.036 C 
ENDROOT
BRANCH  11   3
ATOM      3  O   UNL     1      -4.121 -11.392   8.184  0.00  0.00    -0.389 OA
ATOM     28  H   UNL     1      -4.355 -11.170   7.267  0.00  0.00    +0.210 HD
ENDBRANCH  11   3
BRANCH   9  14
ATOM     14  C   UNL     1      -2.203 -10.529  12.308  0.00  0.00    +0.090 C 
BRANCH  14  16
ATOM      4  O   UNL     1      -2.066 -10.364  15.906  0.00  0.00    -0.354 OA
ATOM      7  N   UNL     1      -1.494 -10.233  14.646  0.00  0.00    -0.083 NA
ATOM     16  C   UNL     1      -2.466 -10.557  13.789  0.00  0.00    +0.087 A 
ATOM     17  C   UNL     1      -3.663 -10.898  14.445  0.00  0.00    +0.076 A 
ATOM     19  C   UNL     1      -3.357 -10.760  15.773  0.00  0.00    +0.167 A 
BRANCH  19  20
ATOM      1  F   UNL     1      -6.173 -11.442  20.523  0.00  0.00    -0.205 F 
ATOM     20  C   UNL     1      -4.084 -10.936  16.997  0.00  0.00    +0.020 A 
ATOM     22  C   UNL     1      -5.340 -10.348  17.154  0.00  0.00    +0.014 A 
ATOM     23  C   UNL     1      -3.534 -11.695  18.030  0.00  0.00    +0.014 A 
ATOM     25  C   UNL     1      -6.045 -10.519  18.345  0.00  0.00    +0.039 A 
ATOM     26  C   UNL     1      -4.240 -11.865  19.222  0.00  0.00    +0.039 A 
ATOM     27  C   UNL     1      -5.495 -11.277  19.378  0.00  0.00    +0.123 A 
ENDBRANCH  19  20
ENDBRANCH  14  16
ENDBRANCH   9  14
BRANCH  10  15
ATOM     15  C   UNL     1      -5.201  -8.302  10.048  0.00  0.00    +0.140 C 
BRANCH  15   6
ATOM      5  O   UNL     1      -8.031  -8.327   9.478  0.00  0.00    -0.253 OA
ATOM      6  N   UNL     1      -5.881  -7.574   9.020  0.00  0.00    -0.297 N 
ATOM      8  N   UNL     1      -7.659  -6.833   7.742  0.00  0.00    -0.300 N 
ATOM     18  C   UNL     1      -7.263  -7.640   8.807  0.00  0.00    +0.300 C 
ATOM     29  H   UNL     1      -5.325  -7.012   8.382  0.00  0.00    +0.150 HD
ATOM     30  H   UNL     1      -6.952  -6.304   7.242  0.00  0.00    +0.150 HD
BRANCH   8  21
ATOM     21  C   UNL     1      -9.034  -6.722   7.316  0.00  0.00    +0.102 C 
ATOM     24  C   UNL     1      -9.780  -5.674   8.117  0.00  0.00    +0.024 C 
ENDBRANCH   8  21
ENDBRANCH  15   6
ENDBRANCH  10  15
TORSDOF 7
ENDMDL
MODEL 5
REMARK VINA RESULT:      -6.9     27.124     28.767
REMARK  Name = 75366944
REMARK  8 active torsions:
REMARK  status: ('A' for Active; 'I' for Inactive)
REMARK    1  A    between atoms: O_3  and  C_11
REMARK    2  A    between atoms: N_6  and  C_15
REMARK    3  A    between atoms: N_8  and  C_21
REMARK    4  A    between atoms: C_9  and  C_14
REMARK    5  A    between atoms: C_10  and  C_15
REMARK    6  A    between atoms: C_14  and  C_16
REMARK    7  A    between atoms: C_19  and  C_20
REMARK    8  A    between atoms: C_21  and  C_24
REMARK                            x       y       z     vdW  Elec       q    Type
REMARK                         _______ _______ _______ _____ _____    ______ ____
ROOT
ATOM      2  O   UNL     1      -4.755  -9.136  11.696  0.00  0.00    -0.369 OA
ATOM      9  C   UNL     1      -4.191 -10.419  11.415  0.00  0.00    +0.125 C 
ATOM     10  C   UNL     1      -6.050  -8.901  11.129  0.00  0.00    +0.164 C 
ATOM     11  C   UNL     1      -6.044  -9.118   9.611  0.00  0.00    +0.145 C 
ATOM     12  C   UNL     1      -4.057 -10.631   9.908  0.00  0.00    +0.034 C 
ATOM     13  C   UNL     1      -5.405 -10.447   9.217  0.00  0.00    +0.036 C 
ENDROOT
BRANCH  11   3
ATOM      3  O   UNL     1      -5.286  -8.072   8.999  0.00  0.00    -0.389 OA
ATOM     28  H   UNL     1      -5.828  -7.264   9.021  0.00  0.00    +0.210 HD
ENDBRANCH  11   3
BRANCH   9  14
ATOM     14  C   UNL     1      -2.829 -10.481  12.095  0.00  0.00    +0.090 C 
BRANCH  14  16
ATOM      4  O   UNL     1      -2.351 -10.443  15.668  0.00  0.00    -0.354 OA
ATOM      7  N   UNL     1      -1.891 -10.303  14.364  0.00  0.00    -0.083 NA
ATOM     16  C   UNL     1      -2.956 -10.543  13.593  0.00  0.00    +0.087 A 
ATOM     17  C   UNL     1      -4.105 -10.838  14.349  0.00  0.00    +0.076 A 
ATOM     19  C   UNL     1      -3.670 -10.761  15.646  0.00  0.00    +0.167 A 
BRANCH  19  20
ATOM      1  F   UNL     1      -6.071 -11.441  20.619  0.00  0.00    -0.205 F 
ATOM     20  C   UNL     1      -4.290 -10.937  16.927  0.00  0.00    +0.020 A 
ATOM     22  C   UNL     1      -5.520 -10.335  17.196  0.00  0.00    +0.014 A 
ATOM     23  C   UNL     1      -3.662 -11.709  17.905  0.00  0.00    +0.014 A 
ATOM     25  C   UNL     1      -6.121 -10.506  18.443  0.00  0.00    +0.039 A 
ATOM     26  C   UNL     1      -4.263 -11.879  19.152  0.00  0.00    +0.039 A 
ATOM     27  C   UNL     1      -5.493 -11.277  19.420  0.00  0.00    +0.123 A 
ENDBRANCH  19  20
ENDBRANCH  14  16
ENDBRANCH   9  14
BRANCH  10  15
ATOM     15  C   UNL     1      -7.121  -9.722  11.845  0.00  0.00    +0.140 C 
BRANCH  15   6
ATOM      5  O   UNL     1      -9.192 -10.524  13.689  0.00  0.00    -0.253 OA
ATOM      6  N   UNL     1      -7.300  -9.270  13.191  0.00  0.00    -0.297 N 
ATOM      8  N   UNL     1      -8.273  -9.109  15.282  0.00  0.00    -0.300 N 
ATOM     18  C   UNL     1      -8.334  -9.709  14.026  0.00  0.00    +0.300 C 
ATOM     29  H   UNL     1      -6.667  -8.560  13.547  0.00  0.00    +0.150 HD
ATOM     30  H   UNL     1      -7.531  -8.442  15.468  0.00  0.00    +0.150 HD
BRANCH   8  21
ATOM     21  C   UNL     1      -9.226  -9.390  16.329  0.00  0.00    +0.102 C 
ATOM     24  C   UNL     1      -9.518  -8.156  17.158  0.00  0.00    +0.024 C 
ENDBRANCH   8  21
ENDBRANCH  15   6
ENDBRANCH  10  15
TORSDOF 7
ENDMDL
MODEL 6
REMARK VINA RESULT:      -6.8      5.723      6.700
REMARK  Name = 75366944
REMARK  8 active torsions:
REMARK  status: ('A' for Active; 'I' for Inactive)
REMARK    1  A    between atoms: O_3  and  C_11
REMARK    2  A    between atoms: N_6  and  C_15
REMARK    3  A    between atoms: N_8  and  C_21
REMARK    4  A    between atoms: C_9  and  C_14
REMARK    5  A    between atoms: C_10  and  C_15
REMARK    6  A    between atoms: C_14  and  C_16
REMARK    7  A    between atoms: C_19  and  C_20
REMARK    8  A    between atoms: C_21  and  C_24
REMARK                            x       y       z     vdW  Elec       q    Type
REMARK                         _______ _______ _______ _____ _____    ______ ____
ROOT
ATOM      2  O   UNL     1      13.433   8.680  19.878  0.00  0.00    -0.369 OA
ATOM      9  C   UNL     1      13.732   7.342  20.283  0.00  0.00    +0.125 C 
ATOM     10  C   UNL     1      12.439   9.348  20.665  0.00  0.00    +0.164 C 
ATOM     11  C   UNL     1      11.134   8.543  20.718  0.00  0.00    +0.145 C 
ATOM     12  C   UNL     1      12.478   6.472  20.236  0.00  0.00    +0.034 C 
ATOM     13  C   UNL     1      11.368   7.081  21.090  0.00  0.00    +0.036 C 
ENDROOT
BRANCH  11   3
ATOM      3  O   UNL     1      10.522   8.571  19.426  0.00  0.00    -0.389 OA
ATOM     28  H   UNL     1      10.155   7.687  19.255  0.00  0.00    +0.210 HD
ENDBRANCH  11   3
BRANCH   9  14
ATOM     14  C   UNL     1      14.801   6.805  19.338  0.00  0.00    +0.090 C 
BRANCH  14  16
ATOM      4  O   UNL     1      17.703   7.274  21.423  0.00  0.00    -0.354 OA
ATOM      7  N   UNL     1      16.360   7.468  21.123  0.00  0.00    -0.083 NA
ATOM     16  C   UNL     1      16.164   6.813  19.976  0.00  0.00    +0.087 A 
ATOM     17  C   UNL     1      17.336   6.192  19.508  0.00  0.00    +0.076 A 
ATOM     19  C   UNL     1      18.273   6.513  20.455  0.00  0.00    +0.167 A 
BRANCH  19  20
ATOM      1  F   UNL     1      23.680   5.393  21.136  0.00  0.00    -0.205 F 
ATOM     20  C   UNL     1      19.667   6.224  20.629  0.00  0.00    +0.020 A 
ATOM     22  C   UNL     1      20.152   4.941  20.372  0.00  0.00    +0.014 A 
ATOM     23  C   UNL     1      20.538   7.226  21.058  0.00  0.00    +0.014 A 
ATOM     25  C   UNL     1      21.507   4.660  20.543  0.00  0.00    +0.039 A 
ATOM     26  C   UNL     1      21.894   6.945  21.229  0.00  0.00    +0.039 A 
ATOM     27  C   UNL     1      22.377   5.662  20.971  0.00  0.00    +0.123 A 
ENDBRANCH  19  20
ENDBRANCH  14  16
ENDBRANCH   9  14
BRANCH  10  15
ATOM     15  C   UNL     1      12.978   9.700  22.050  0.00  0.00    +0.140 C 
BRANCH  15   6
ATOM      5  O   UNL     1      14.933  11.819  22.186  0.00  0.00    -0.253 OA
ATOM      6  N   UNL     1      14.402   9.559  22.097  0.00  0.00    -0.297 N 
ATOM      8  N   UNL     1      16.614  10.220  22.197  0.00  0.00    -0.300 N 
ATOM     18  C   UNL     1      15.287  10.641  22.163  0.00  0.00    +0.300 C 
ATOM     29  H   UNL     1      14.794   8.624  22.036  0.00  0.00    +0.150 HD
ATOM     30  H   UNL     1      16.811   9.225  22.168  0.00  0.00    +0.150 HD
BRANCH   8  21
ATOM     21  C   UNL     1      17.725  11.140  22.266  0.00  0.00    +0.102 C 
ATOM     24  C   UNL     1      18.986  10.532  21.686  0.00  0.00    +0.024 C 
ENDBRANCH   8  21
ENDBRANCH  15   6
ENDBRANCH  10  15
TORSDOF 7
ENDMDL
MODEL 7
REMARK VINA RESULT:      -6.7      6.374      8.007
REMARK  Name = 75366944
REMARK  8 active torsions:
REMARK  status: ('A' for Active; 'I' for Inactive)
REMARK    1  A    between atoms: O_3  and  C_11
REMARK    2  A    between atoms: N_6  and  C_15
REMARK    3  A    between atoms: N_8  and  C_21
REMARK    4  A    between atoms: C_9  and  C_14
REMARK    5  A    between atoms: C_10  and  C_15
REMARK    6  A    between atoms: C_14  and  C_16
REMARK    7  A    between atoms: C_19  and  C_20
REMARK    8  A    between atoms: C_21  and  C_24
REMARK                            x       y       z     vdW  Elec       q    Type
REMARK                         _______ _______ _______ _____ _____    ______ ____
ROOT
ATOM      2  O   UNL     1      19.763   6.917  22.209  0.00  0.00    -0.369 OA
ATOM      9  C   UNL     1      19.990   6.824  20.801  0.00  0.00    +0.125 C 
ATOM     10  C   UNL     1      20.374   8.043  22.853  0.00  0.00    +0.164 C 
ATOM     11  C   UNL     1      21.884   8.085  22.591  0.00  0.00    +0.145 C 
ATOM     12  C   UNL     1      21.485   6.744  20.500  0.00  0.00    +0.034 C 
ATOM     13  C   UNL     1      22.221   7.934  21.109  0.00  0.00    +0.036 C 
ENDROOT
BRANCH  11   3
ATOM      3  O   UNL     1      22.504   7.003  23.290  0.00  0.00    -0.389 OA
ATOM     28  H   UNL     1      23.359   7.321  23.626  0.00  0.00    +0.210 HD
ENDBRANCH  11   3
BRANCH   9  14
ATOM     14  C   UNL     1      19.268   5.578  20.301  0.00  0.00    +0.090 C 
BRANCH  14  16
ATOM      4  O   UNL     1      16.162   5.990  18.521  0.00  0.00    -0.354 OA
ATOM      7  N   UNL     1      17.484   5.571  18.607  0.00  0.00    -0.083 NA
ATOM     16  C   UNL     1      17.868   5.889  19.846  0.00  0.00    +0.087 A 
ATOM     17  C   UNL     1      16.841   6.507  20.581  0.00  0.00    +0.076 A 
ATOM     19  C   UNL     1      15.790   6.546  19.702  0.00  0.00    +0.167 A 
BRANCH  19  20
ATOM      1  F   UNL     1      10.555   8.411  19.953  0.00  0.00    -0.205 F 
ATOM     20  C   UNL     1      14.441   7.028  19.768  0.00  0.00    +0.020 A 
ATOM     22  C   UNL     1      13.769   7.057  20.990  0.00  0.00    +0.014 A 
ATOM     23  C   UNL     1      13.801   7.465  18.608  0.00  0.00    +0.014 A 
ATOM     25  C   UNL     1      12.456   7.525  21.052  0.00  0.00    +0.039 A 
ATOM     26  C   UNL     1      12.488   7.932  18.671  0.00  0.00    +0.039 A 
ATOM     27  C   UNL     1      11.816   7.962  19.893  0.00  0.00    +0.123 A 
ENDBRANCH  19  20
ENDBRANCH  14  16
ENDBRANCH   9  14
BRANCH  10  15
ATOM     15  C   UNL     1      19.667   9.343  22.475  0.00  0.00    +0.140 C 
BRANCH  15   6
ATOM      5  O   UNL     1      17.681  11.313  21.763  0.00  0.00    -0.253 OA
ATOM      6  N   UNL     1      18.247   9.165  22.444  0.00  0.00    -0.297 N 
ATOM      8  N   UNL     1      16.026   9.731  22.142  0.00  0.00    -0.300 N 
ATOM     18  C   UNL     1      17.346  10.174  22.086  0.00  0.00    +0.300 C 
ATOM     29  H   UNL     1      17.869   8.269  22.739  0.00  0.00    +0.150 HD
ATOM     30  H   UNL     1      15.845   8.773  22.425  0.00  0.00    +0.150 HD
BRANCH   8  21
ATOM     21  C   UNL     1      14.903  10.578  21.820  0.00  0.00    +0.102 C 
ATOM     24  C   UNL     1      14.659  10.630  20.325  0.00  0.00    +0.024 C 
ENDBRANCH   8  21
ENDBRANCH  15   6
ENDBRANCH  10  15
TORSDOF 7
ENDMDL
MODEL 8
REMARK VINA RESULT:      -6.6     27.047     28.359
REMARK  Name = 75366944
REMARK  8 active torsions:
REMARK  status: ('A' for Active; 'I' for Inactive)
REMARK    1  A    between atoms: O_3  and  C_11
REMARK    2  A    between atoms: N_6  and  C_15
REMARK    3  A    between atoms: N_8  and  C_21
REMARK    4  A    between atoms: C_9  and  C_14
REMARK    5  A    between atoms: C_10  and  C_15
REMARK    6  A    between atoms: C_14  and  C_16
REMARK    7  A    between atoms: C_19  and  C_20
REMARK    8  A    between atoms: C_21  and  C_24
REMARK                            x       y       z     vdW  Elec       q    Type
REMARK                         _______ _______ _______ _____ _____    ______ ____
ROOT
ATOM      2  O   UNL     1      -6.456 -11.711  17.294  0.00  0.00    -0.369 OA
ATOM      9  C   UNL     1      -5.116 -11.479  17.735  0.00  0.00    +0.125 C 
ATOM     10  C   UNL     1      -7.467 -10.989  18.009  0.00  0.00    +0.164 C 
ATOM     11  C   UNL     1      -7.389 -11.262  19.516  0.00  0.00    +0.145 C 
ATOM     12  C   UNL     1      -4.962 -11.850  19.209  0.00  0.00    +0.034 C 
ATOM     13  C   UNL     1      -5.974 -11.091  20.064  0.00  0.00    +0.036 C 
ENDROOT
BRANCH  11   3
ATOM      3  O   UNL     1      -7.791 -12.611  19.762  0.00  0.00    -0.389 OA
ATOM     28  H   UNL     1      -6.989 -13.161  19.772  0.00  0.00    +0.210 HD
ENDBRANCH  11   3
BRANCH   9  14
ATOM     14  C   UNL     1      -4.194 -12.322  16.864  0.00  0.00    +0.090 C 
BRANCH  14  16
ATOM      4  O   UNL     1      -2.546 -10.469  14.248  0.00  0.00    -0.354 OA
ATOM      7  N   UNL     1      -2.580 -11.049  15.511  0.00  0.00    -0.083 NA
ATOM     16  C   UNL     1      -3.795 -11.596  15.608  0.00  0.00    +0.087 A 
ATOM     17  C   UNL     1      -4.564 -11.394  14.448  0.00  0.00    +0.076 A 
ATOM     19  C   UNL     1      -3.732 -10.682  13.625  0.00  0.00    +0.167 A 
BRANCH  19  20
ATOM      1  F   UNL     1      -4.178  -8.585   8.491  0.00  0.00    -0.205 F 
ATOM     20  C   UNL     1      -3.848 -10.141  12.302  0.00  0.00    +0.020 A 
ATOM     22  C   UNL     1      -5.094  -9.740  11.818  0.00  0.00    +0.014 A 
ATOM     23  C   UNL     1      -2.714 -10.015  11.499  0.00  0.00    +0.014 A 
ATOM     25  C   UNL     1      -5.205  -9.215  10.530  0.00  0.00    +0.039 A 
ATOM     26  C   UNL     1      -2.826  -9.490  10.211  0.00  0.00    +0.039 A 
ATOM     27  C   UNL     1      -4.072  -9.090   9.728  0.00  0.00    +0.123 A 
ENDBRANCH  19  20
ENDBRANCH  14  16
ENDBRANCH   9  14
BRANCH  10  15
ATOM     15  C   UNL     1      -7.426  -9.501  17.669  0.00  0.00    +0.140 C 
BRANCH  15   6
ATOM      5  O   UNL     1      -9.274  -8.671  15.613  0.00  0.00    -0.253 OA
ATOM      6  N   UNL     1      -8.710  -8.896  17.855  0.00  0.00    -0.297 N 
ATOM      8  N   UNL     1     -10.738  -7.956  17.265  0.00  0.00    -0.300 N 
ATOM     18  C   UNL     1      -9.552  -8.520  16.802  0.00  0.00    +0.300 C 
ATOM     29  H   UNL     1      -9.010  -8.689  18.803  0.00  0.00    +0.150 HD
ATOM     30  H   UNL     1     -10.878  -7.868  18.266  0.00  0.00    +0.150 HD
BRANCH   8  21
ATOM     21  C   UNL     1     -11.777  -7.485  16.380  0.00  0.00    +0.102 C 
ATOM     24  C   UNL     1     -11.585  -6.023  16.029  0.00  0.00    +0.024 C 
ENDBRANCH   8  21
ENDBRANCH  15   6
ENDBRANCH  10  15
TORSDOF 7
ENDMDL
MODEL 9
REMARK VINA RESULT:      -6.6     27.905     31.205
REMARK  Name = 75366944
REMARK  8 active torsions:
REMARK  status: ('A' for Active; 'I' for Inactive)
REMARK    1  A    between atoms: O_3  and  C_11
REMARK    2  A    between atoms: N_6  and  C_15
REMARK    3  A    between atoms: N_8  and  C_21
REMARK    4  A    between atoms: C_9  and  C_14
REMARK    5  A    between atoms: C_10  and  C_15
REMARK    6  A    between atoms: C_14  and  C_16
REMARK    7  A    between atoms: C_19  and  C_20
REMARK    8  A    between atoms: C_21  and  C_24
REMARK                            x       y       z     vdW  Elec       q    Type
REMARK                         _______ _______ _______ _____ _____    ______ ____
ROOT
ATOM      2  O   UNL     1     -16.086   2.169  24.591  0.00  0.00    -0.369 OA
ATOM      9  C   UNL     1     -17.146   2.157  25.550  0.00  0.00    +0.125 C 
ATOM     10  C   UNL     1     -16.151   3.225  23.624  0.00  0.00    +0.164 C 
ATOM     11  C   UNL     1     -17.492   3.221  22.880  0.00  0.00    +0.145 C 
ATOM     12  C   UNL     1     -18.501   2.034  24.855  0.00  0.00    +0.034 C 
ATOM     13  C   UNL     1     -18.684   3.152  23.832  0.00  0.00    +0.036 C 
ENDROOT
BRANCH  11   3
ATOM      3  O   UNL     1     -17.545   2.071  22.031  0.00  0.00    -0.389 OA
ATOM     28  H   UNL     1     -16.766   1.524  22.228  0.00  0.00    +0.210 HD
ENDBRANCH  11   3
BRANCH   9  14
ATOM     14  C   UNL     1     -16.906   0.977  26.484  0.00  0.00    +0.090 C 
BRANCH  14  16
ATOM      4  O   UNL     1     -15.580   1.248  29.824  0.00  0.00    -0.354 OA
ATOM      7  N   UNL     1     -16.093   0.515  28.760  0.00  0.00    -0.083 NA
ATOM     16  C   UNL     1     -16.334   1.417  27.804  0.00  0.00    +0.087 A 
ATOM     17  C   UNL     1     -15.996   2.722  28.204  0.00  0.00    +0.076 A 
ATOM     19  C   UNL     1     -15.526   2.560  29.480  0.00  0.00    +0.167 A 
BRANCH  19  20
ATOM      1  F   UNL     1     -13.536   5.999  33.374  0.00  0.00    -0.205 F 
ATOM     20  C   UNL     1     -15.012   3.446  30.483  0.00  0.00    +0.020 A 
ATOM     22  C   UNL     1     -13.842   3.120  31.170  0.00  0.00    +0.014 A 
ATOM     23  C   UNL     1     -15.683   4.635  30.773  0.00  0.00    +0.014 A 
ATOM     25  C   UNL     1     -13.343   3.983  32.147  0.00  0.00    +0.039 A 
ATOM     26  C   UNL     1     -15.184   5.497  31.750  0.00  0.00    +0.039 A 
ATOM     27  C   UNL     1     -14.014   5.170  32.436  0.00  0.00    +0.123 A 
ENDBRANCH  19  20
ENDBRANCH  14  16
ENDBRANCH   9  14
BRANCH  10  15
ATOM     15  C   UNL     1     -15.826   4.575  24.260  0.00  0.00    +0.140 C 
BRANCH  15   6
ATOM      5  O   UNL     1     -15.739   6.162  21.852  0.00  0.00    -0.253 OA
ATOM      6  N   UNL     1     -14.669   5.162  23.655  0.00  0.00    -0.297 N 
ATOM      8  N   UNL     1     -13.443   6.372  22.114  0.00  0.00    -0.300 N 
ATOM     18  C   UNL     1     -14.709   5.923  22.481  0.00  0.00    +0.300 C 
ATOM     29  H   UNL     1     -13.763   4.982  24.077  0.00  0.00    +0.150 HD
ATOM     30  H   UNL     1     -12.649   6.119  22.694  0.00  0.00    +0.150 HD
BRANCH   8  21
ATOM     21  C   UNL     1     -13.210   7.178  20.939  0.00  0.00    +0.102 C 
ATOM     24  C   UNL     1     -11.739   7.216  20.576  0.00  0.00    +0.024 C 
ENDBRANCH   8  21
ENDBRANCH  15   6
ENDBRANCH  10  15
TORSDOF 7
ENDMDL
MODEL 10
REMARK VINA RESULT:      -6.6     17.410     20.774
REMARK  Name = 75366944
REMARK  8 active torsions:
REMARK  status: ('A' for Active; 'I' for Inactive)
REMARK    1  A    between atoms: O_3  and  C_11
REMARK    2  A    between atoms: N_6  and  C_15
REMARK    3  A    between atoms: N_8  and  C_21
REMARK    4  A    between atoms: C_9  and  C_14
REMARK    5  A    between atoms: C_10  and  C_15
REMARK    6  A    between atoms: C_14  and  C_16
REMARK    7  A    between atoms: C_19  and  C_20
REMARK    8  A    between atoms: C_21  and  C_24
REMARK                            x       y       z     vdW  Elec       q    Type
REMARK                         _______ _______ _______ _____ _____    ______ ____
ROOT
ATOM      2  O   UNL     1      12.830   3.155   0.644  0.00  0.00    -0.369 OA
ATOM      9  C   UNL     1      13.095   3.707  -0.648  0.00  0.00    +0.125 C 
ATOM     10  C   UNL     1      13.262   3.957   1.751  0.00  0.00    +0.164 C 
ATOM     11  C   UNL     1      14.756   4.287   1.651  0.00  0.00    +0.145 C 
ATOM     12  C   UNL     1      14.593   3.943  -0.835  0.00  0.00    +0.034 C 
ATOM     13  C   UNL     1      15.141   4.832   0.278  0.00  0.00    +0.036 C 
ENDROOT
BRANCH  11   3
ATOM      3  O   UNL     1      15.509   3.091   1.871  0.00  0.00    -0.389 OA
ATOM     28  H   UNL     1      15.299   2.772   2.766  0.00  0.00    +0.210 HD
ENDBRANCH  11   3
BRANCH   9  14
ATOM     14  C   UNL     1      12.567   2.723  -1.685  0.00  0.00    +0.090 C 
BRANCH  14  16
ATOM      4  O   UNL     1       9.337   3.050  -3.249  0.00  0.00    -0.354 OA
ATOM      7  N   UNL     1      10.410   2.296  -2.789  0.00  0.00    -0.083 NA
ATOM     16  C   UNL     1      11.267   3.187  -2.283  0.00  0.00    +0.087 A 
ATOM     17  C   UNL     1      10.794   4.506  -2.396  0.00  0.00    +0.076 A 
ATOM     19  C   UNL     1       9.577   4.364  -3.010  0.00  0.00    +0.167 A 
BRANCH  19  20
ATOM      1  F   UNL     1       5.597   7.891  -4.643  0.00  0.00    -0.205 F 
ATOM     20  C   UNL     1       8.550   5.272  -3.431  0.00  0.00    +0.020 A 
ATOM     22  C   UNL     1       7.915   5.087  -4.659  0.00  0.00    +0.014 A 
ATOM     23  C   UNL     1       8.187   6.342  -2.612  0.00  0.00    +0.014 A 
ATOM     25  C   UNL     1       6.917   5.971  -5.068  0.00  0.00    +0.039 A 
ATOM     26  C   UNL     1       7.190   7.227  -3.022  0.00  0.00    +0.039 A 
ATOM     27  C   UNL     1       6.555   7.041  -4.250  0.00  0.00    +0.123 A 
ENDBRANCH  19  20
ENDBRANCH  14  16
ENDBRANCH   9  14
BRANCH  10  15
ATOM     15  C   UNL     1      12.386   5.198   1.907  0.00  0.00    +0.140 C 
BRANCH  15   6
ATOM      5  O   UNL     1      10.128   4.746   3.646  0.00  0.00    -0.253 OA
ATOM      6  N   UNL     1      12.268   5.573   3.283  0.00  0.00    -0.297 N 
ATOM      8  N   UNL     1      11.287   5.788   5.365  0.00  0.00    -0.300 N 
ATOM     18  C   UNL     1      11.135   5.317   4.063  0.00  0.00    +0.300 C 
ATOM     29  H   UNL     1      13.032   6.092   3.706  0.00  0.00    +0.150 HD
ATOM     30  H   UNL     1      12.153   6.253   5.617  0.00  0.00    +0.150 HD
BRANCH   8  21
ATOM     21  C   UNL     1      10.261   5.650   6.371  0.00  0.00    +0.102 C 
ATOM     24  C   UNL     1      10.805   5.924   7.759  0.00  0.00    +0.024 C 
ENDBRANCH   8  21
ENDBRANCH  15   6
ENDBRANCH  10  15
TORSDOF 7
ENDMDL
