MODEL 1
REMARK VINA RESULT:      -6.9      0.000      0.000
REMARK  Name = 7144163
REMARK  6 active torsions:
REMARK  status: ('A' for Active; 'I' for Inactive)
REMARK    1  A    between atoms: S_2  and  C_22
REMARK    2  A    between atoms: S_2  and  C_28
REMARK    3  A    between atoms: O_5  and  C_31
REMARK    4  A    between atoms: C_16  and  C_21
REMARK    5  A    between atoms: C_18  and  C_22
REMARK    6  A    between atoms: C_28  and  C_31
REMARK                            x       y       z     vdW  Elec       q    Type
REMARK                         _______ _______ _______ _____ _____    ______ ____
ROOT
ATOM      3  O   UNL     1      -7.790 -14.797  17.442  0.00  0.00    -0.268 OA
ATOM      4  O   UNL     1      -9.435  -9.874  18.335  0.00  0.00    -0.275 OA
ATOM      7  N   UNL     1      -7.239  -9.842  17.577  0.00  0.00    -0.300 N 
ATOM      8  N   UNL     1      -6.543 -12.881  16.939  0.00  0.00    -0.311 N 
ATOM      9  C   UNL     1      -5.654 -11.337  18.783  0.00  0.00    +0.027 C 
ATOM     10  C   UNL     1      -5.248 -10.788  16.422  0.00  0.00    +0.054 C 
ATOM     11  C   UNL     1      -4.568 -10.996  17.774  0.00  0.00    +0.018 C 
ATOM     12  C   UNL     1      -6.684 -10.200  18.882  0.00  0.00    +0.113 C 
ATOM     13  C   UNL     1      -6.301 -12.660  18.371  0.00  0.00    +0.130 C 
ATOM     14  C   UNL     1      -6.242  -9.613  16.522  0.00  0.00    +0.117 C 
ATOM     15  C   UNL     1      -5.969 -12.054  15.952  0.00  0.00    +0.035 A 
ATOM     16  C   UNL     1      -6.093 -12.382  14.640  0.00  0.00    +0.009 A 
ATOM     17  C   UNL     1      -7.280 -14.035  16.622  0.00  0.00    +0.252 A 
ATOM     18  C   UNL     1      -8.616  -9.677  17.433  0.00  0.00    +0.225 C 
ATOM     19  C   UNL     1      -6.851 -13.565  14.273  0.00  0.00    +0.016 A 
ATOM     20  C   UNL     1      -7.430 -14.349  15.182  0.00  0.00    +0.071 A 
ENDROOT
BRANCH  16  21
ATOM      1  S   UNL     1      -3.868 -11.815  13.124  0.00  0.00    -0.088 S 
ATOM     21  C   UNL     1      -5.492 -11.557  13.569  0.00  0.00    +0.022 A 
ATOM     23  C   UNL     1      -6.077 -10.554  12.834  0.00  0.00    +0.024 A 
ATOM     24  C   UNL     1      -5.182  -9.970  11.875  0.00  0.00    -0.010 A 
ATOM     25  C   UNL     1      -3.922 -10.574  11.926  0.00  0.00    +0.020 A 
ATOM     26  C   UNL     1      -5.387  -8.929  10.938  0.00  0.00    +0.009 A 
ATOM     27  C   UNL     1      -2.875 -10.168  11.076  0.00  0.00    +0.015 A 
ATOM     29  C   UNL     1      -4.351  -8.523  10.093  0.00  0.00    +0.001 A 
ATOM     30  C   UNL     1      -3.108  -9.137  10.163  0.00  0.00    +0.001 A 
ENDBRANCH  16  21
BRANCH  18  22
ATOM     22  C   UNL     1      -9.106  -9.236  16.077  0.00  0.00    +0.165 C 
BRANCH  22   2
ATOM      2  S   UNL     1     -10.857  -8.853  16.227  0.00  0.00    -0.140 S 
BRANCH   2  28
ATOM     28  C   UNL     1     -10.722  -7.190  16.927  0.00  0.00    +0.189 C 
BRANCH  28  31
ATOM      6  O   UNL     1     -11.992  -5.767  15.455  0.00  0.00    -0.250 OA
ATOM     31  C   UNL     1     -10.903  -6.173  15.837  0.00  0.00    +0.315 C 
BRANCH  31   5
ATOM      5  O   UNL     1      -9.724  -5.737  15.327  0.00  0.00    -0.480 OA
ATOM     32  H   UNL     1      -9.460  -6.244  14.529  0.00  0.00    +0.295 HD
ENDBRANCH  31   5
ENDBRANCH  28  31
ENDBRANCH   2  28
ENDBRANCH  22   2
ENDBRANCH  18  22
TORSDOF 6
ENDMDL
MODEL 2
REMARK VINA RESULT:      -6.8     25.340     28.078
REMARK  Name = 7144163
REMARK  6 active torsions:
REMARK  status: ('A' for Active; 'I' for Inactive)
REMARK    1  A    between atoms: S_2  and  C_22
REMARK    2  A    between atoms: S_2  and  C_28
REMARK    3  A    between atoms: O_5  and  C_31
REMARK    4  A    between atoms: C_16  and  C_21
REMARK    5  A    between atoms: C_18  and  C_22
REMARK    6  A    between atoms: C_28  and  C_31
REMARK                            x       y       z     vdW  Elec       q    Type
REMARK                         _______ _______ _______ _____ _____    ______ ____
ROOT
ATOM      3  O   UNL     1       7.101   9.231   4.718  0.00  0.00    -0.268 OA
ATOM      4  O   UNL     1      11.670   9.247   7.338  0.00  0.00    -0.275 OA
ATOM      7  N   UNL     1      11.353   7.179   6.327  0.00  0.00    -0.300 N 
ATOM      8  N   UNL     1       8.651   7.477   4.673  0.00  0.00    -0.311 N 
ATOM      9  C   UNL     1       9.160   6.083   6.764  0.00  0.00    +0.027 C 
ATOM     10  C   UNL     1      10.351   5.624   4.664  0.00  0.00    +0.054 C 
ATOM     11  C   UNL     1       9.513   4.987   5.771  0.00  0.00    +0.018 C 
ATOM     12  C   UNL     1      10.431   6.709   7.360  0.00  0.00    +0.113 C 
ATOM     13  C   UNL     1       8.292   7.122   6.052  0.00  0.00    +0.130 C 
ATOM     14  C   UNL     1      11.646   6.204   5.268  0.00  0.00    +0.117 C 
ATOM     15  C   UNL     1       9.574   6.717   3.926  0.00  0.00    +0.035 A 
ATOM     16  C   UNL     1       9.763   6.988   2.608  0.00  0.00    +0.009 A 
ATOM     17  C   UNL     1       7.927   8.545   4.115  0.00  0.00    +0.252 A 
ATOM     18  C   UNL     1      11.931   8.444   6.439  0.00  0.00    +0.225 C 
ATOM     19  C   UNL     1       9.036   8.087   1.999  0.00  0.00    +0.016 A 
ATOM     20  C   UNL     1       8.180   8.842   2.687  0.00  0.00    +0.071 A 
ENDROOT
BRANCH  16  21
ATOM      1  S   UNL     1      12.345   6.671   1.708  0.00  0.00    -0.088 S 
ATOM     21  C   UNL     1      10.707   6.206   1.778  0.00  0.00    +0.022 A 
ATOM     23  C   UNL     1      10.450   5.097   1.010  0.00  0.00    +0.024 A 
ATOM     24  C   UNL     1      11.618   4.601   0.338  0.00  0.00    -0.010 A 
ATOM     25  C   UNL     1      12.741   5.380   0.635  0.00  0.00    +0.020 A 
ATOM     26  C   UNL     1      11.781   3.497  -0.534  0.00  0.00    +0.009 A 
ATOM     27  C   UNL     1      14.006   5.086   0.090  0.00  0.00    +0.015 A 
ATOM     29  C   UNL     1      13.035   3.203  -1.076  0.00  0.00    +0.001 A 
ATOM     30  C   UNL     1      14.135   3.991  -0.766  0.00  0.00    +0.001 A 
ENDBRANCH  16  21
BRANCH  18  22
ATOM     22  C   UNL     1      12.927   8.828   5.374  0.00  0.00    +0.165 C 
BRANCH  22   2
ATOM      2  S   UNL     1      14.542   8.953   6.157  0.00  0.00    -0.140 S 
BRANCH   2  28
ATOM     28  C   UNL     1      15.199   7.328   5.703  0.00  0.00    +0.189 C 
BRANCH  28  31
ATOM      6  O   UNL     1      16.052   8.318   3.678  0.00  0.00    -0.250 OA
ATOM     31  C   UNL     1      15.599   7.338   4.256  0.00  0.00    +0.315 C 
BRANCH  31   5
ATOM      5  O   UNL     1      15.418   6.136   3.654  0.00  0.00    -0.480 OA
ATOM     32  H   UNL     1      16.167   5.906   3.063  0.00  0.00    +0.295 HD
ENDBRANCH  31   5
ENDBRANCH  28  31
ENDBRANCH   2  28
ENDBRANCH  22   2
ENDBRANCH  18  22
TORSDOF 6
ENDMDL
MODEL 3
REMARK VINA RESULT:      -6.5     25.396     27.721
REMARK  Name = 7144163
REMARK  6 active torsions:
REMARK  status: ('A' for Active; 'I' for Inactive)
REMARK    1  A    between atoms: S_2  and  C_22
REMARK    2  A    between atoms: S_2  and  C_28
REMARK    3  A    between atoms: O_5  and  C_31
REMARK    4  A    between atoms: C_16  and  C_21
REMARK    5  A    between atoms: C_18  and  C_22
REMARK    6  A    between atoms: C_28  and  C_31
REMARK                            x       y       z     vdW  Elec       q    Type
REMARK                         _______ _______ _______ _____ _____    ______ ____
ROOT
ATOM      3  O   UNL     1      11.020   6.329   7.646  0.00  0.00    -0.268 OA
ATOM      4  O   UNL     1      10.854  10.910   5.053  0.00  0.00    -0.275 OA
ATOM      7  N   UNL     1      12.146   9.385   3.868  0.00  0.00    -0.300 N 
ATOM      8  N   UNL     1      11.944   6.674   5.522  0.00  0.00    -0.311 N 
ATOM      9  C   UNL     1      13.939   8.244   5.166  0.00  0.00    +0.027 C 
ATOM     10  C   UNL     1      12.918   7.103   3.244  0.00  0.00    +0.054 C 
ATOM     11  C   UNL     1      14.239   7.357   3.968  0.00  0.00    +0.018 C 
ATOM     12  C   UNL     1      13.321   9.578   4.717  0.00  0.00    +0.113 C 
ATOM     13  C   UNL     1      13.017   7.480   6.118  0.00  0.00    +0.130 C 
ATOM     14  C   UNL     1      12.334   8.445   2.756  0.00  0.00    +0.117 C 
ATOM     15  C   UNL     1      11.910   6.382   4.144  0.00  0.00    +0.035 A 
ATOM     16  C   UNL     1      10.988   5.511   3.659  0.00  0.00    +0.009 A 
ATOM     17  C   UNL     1      11.028   6.119   6.433  0.00  0.00    +0.252 A 
ATOM     18  C   UNL     1      10.989  10.125   4.111  0.00  0.00    +0.225 C 
ATOM     19  C   UNL     1      10.023   4.921   4.569  0.00  0.00    +0.016 A 
ATOM     20  C   UNL     1      10.010   5.201   5.872  0.00  0.00    +0.071 A 
ENDROOT
BRANCH  16  21
ATOM      1  S   UNL     1      11.984   3.975   1.604  0.00  0.00    -0.088 S 
ATOM     21  C   UNL     1      10.926   5.159   2.223  0.00  0.00    +0.022 A 
ATOM     23  C   UNL     1      10.097   5.670   1.253  0.00  0.00    +0.024 A 
ATOM     24  C   UNL     1      10.323   5.085  -0.038  0.00  0.00    -0.010 A 
ATOM     25  C   UNL     1      11.343   4.129   0.010  0.00  0.00    +0.020 A 
ATOM     26  C   UNL     1       9.692   5.328  -1.283  0.00  0.00    +0.009 A 
ATOM     27  C   UNL     1      11.743   3.420  -1.139  0.00  0.00    +0.015 A 
ATOM     29  C   UNL     1      10.087   4.626  -2.425  0.00  0.00    +0.001 A 
ATOM     30  C   UNL     1      11.102   3.683  -2.352  0.00  0.00    +0.001 A 
ENDBRANCH  16  21
BRANCH  18  22
ATOM     22  C   UNL     1       9.845   9.924   3.149  0.00  0.00    +0.165 C 
BRANCH  22   2
ATOM      2  S   UNL     1       8.316  10.000   4.095  0.00  0.00    -0.140 S 
BRANCH   2  28
ATOM     28  C   UNL     1       8.378   8.359   4.858  0.00  0.00    +0.189 C 
BRANCH  28  31
ATOM      6  O   UNL     1       7.914   7.659   7.117  0.00  0.00    -0.250 OA
ATOM     31  C   UNL     1       8.364   8.503   6.352  0.00  0.00    +0.315 C 
BRANCH  31   5
ATOM      5  O   UNL     1       8.921   9.667   6.771  0.00  0.00    -0.480 OA
ATOM     32  H   UNL     1       8.536  10.444   6.311  0.00  0.00    +0.295 HD
ENDBRANCH  31   5
ENDBRANCH  28  31
ENDBRANCH   2  28
ENDBRANCH  22   2
ENDBRANCH  18  22
TORSDOF 6
ENDMDL
MODEL 4
REMARK VINA RESULT:      -6.5     25.146     27.594
REMARK  Name = 7144163
REMARK  6 active torsions:
REMARK  status: ('A' for Active; 'I' for Inactive)
REMARK    1  A    between atoms: S_2  and  C_22
REMARK    2  A    between atoms: S_2  and  C_28
REMARK    3  A    between atoms: O_5  and  C_31
REMARK    4  A    between atoms: C_16  and  C_21
REMARK    5  A    between atoms: C_18  and  C_22
REMARK    6  A    between atoms: C_28  and  C_31
REMARK                            x       y       z     vdW  Elec       q    Type
REMARK                         _______ _______ _______ _____ _____    ______ ____
ROOT
ATOM      3  O   UNL     1      13.613   6.976   6.283  0.00  0.00    -0.268 OA
ATOM      4  O   UNL     1       9.369   6.869   3.164  0.00  0.00    -0.275 OA
ATOM      7  N   UNL     1       8.722   7.291   5.355  0.00  0.00    -0.300 N 
ATOM      8  N   UNL     1      11.442   7.490   6.995  0.00  0.00    -0.311 N 
ATOM      9  C   UNL     1       9.598   5.710   7.068  0.00  0.00    +0.027 C 
ATOM     10  C   UNL     1       9.090   8.028   7.703  0.00  0.00    +0.054 C 
ATOM     11  C   UNL     1       9.005   6.576   8.168  0.00  0.00    +0.018 C 
ATOM     12  C   UNL     1       8.820   5.887   5.754  0.00  0.00    +0.113 C 
ATOM     13  C   UNL     1      11.076   6.070   6.910  0.00  0.00    +0.130 C 
ATOM     14  C   UNL     1       8.265   8.204   6.411  0.00  0.00    +0.117 C 
ATOM     15  C   UNL     1      10.540   8.463   7.469  0.00  0.00    +0.035 A 
ATOM     16  C   UNL     1      10.965   9.737   7.675  0.00  0.00    +0.009 A 
ATOM     17  C   UNL     1      12.781   7.788   6.687  0.00  0.00    +0.252 A 
ATOM     18  C   UNL     1       8.987   7.655   4.036  0.00  0.00    +0.225 C 
ATOM     19  C   UNL     1      12.340  10.083   7.364  0.00  0.00    +0.016 A 
ATOM     20  C   UNL     1      13.208   9.192   6.886  0.00  0.00    +0.071 A 
ENDROOT
BRANCH  16  21
ATOM      1  S   UNL     1       9.330  11.873   7.098  0.00  0.00    -0.088 S 
ATOM     21  C   UNL     1      10.060  10.788   8.190  0.00  0.00    +0.022 A 
ATOM     23  C   UNL     1       9.696  11.039   9.491  0.00  0.00    +0.024 A 
ATOM     24  C   UNL     1       8.793  12.149   9.613  0.00  0.00    -0.010 A 
ATOM     25  C   UNL     1       8.505  12.706   8.363  0.00  0.00    +0.020 A 
ATOM     26  C   UNL     1       8.190  12.724  10.758  0.00  0.00    +0.009 A 
ATOM     27  C   UNL     1       7.639  13.809   8.231  0.00  0.00    +0.015 A 
ATOM     29  C   UNL     1       7.331  13.819  10.629  0.00  0.00    +0.001 A 
ATOM     30  C   UNL     1       7.060  14.354   9.378  0.00  0.00    +0.001 A 
ENDBRANCH  16  21
BRANCH  18  22
ATOM     22  C   UNL     1       8.793   9.108   3.683  0.00  0.00    +0.165 C 
BRANCH  22   2
ATOM      2  S   UNL     1       7.776   9.180   2.201  0.00  0.00    -0.140 S 
BRANCH   2  28
ATOM     28  C   UNL     1       6.791  10.643   2.609  0.00  0.00    +0.189 C 
BRANCH  28  31
ATOM      6  O   UNL     1       4.510   9.867   2.648  0.00  0.00    -0.250 OA
ATOM     31  C   UNL     1       5.510  10.215   3.263  0.00  0.00    +0.315 C 
BRANCH  31   5
ATOM      5  O   UNL     1       5.580  10.239   4.618  0.00  0.00    -0.480 OA
ATOM     32  H   UNL     1       5.265  11.093   4.986  0.00  0.00    +0.295 HD
ENDBRANCH  31   5
ENDBRANCH  28  31
ENDBRANCH   2  28
ENDBRANCH  22   2
ENDBRANCH  18  22
TORSDOF 6
ENDMDL
MODEL 5
REMARK VINA RESULT:      -6.2     25.374     27.814
REMARK  Name = 7144163
REMARK  6 active torsions:
REMARK  status: ('A' for Active; 'I' for Inactive)
REMARK    1  A    between atoms: S_2  and  C_22
REMARK    2  A    between atoms: S_2  and  C_28
REMARK    3  A    between atoms: O_5  and  C_31
REMARK    4  A    between atoms: C_16  and  C_21
REMARK    5  A    between atoms: C_18  and  C_22
REMARK    6  A    between atoms: C_28  and  C_31
REMARK                            x       y       z     vdW  Elec       q    Type
REMARK                         _______ _______ _______ _____ _____    ______ ____
ROOT
ATOM      3  O   UNL     1       7.105   9.339   4.678  0.00  0.00    -0.268 OA
ATOM      4  O   UNL     1      11.782   9.047   7.084  0.00  0.00    -0.275 OA
ATOM      7  N   UNL     1      11.331   7.042   6.002  0.00  0.00    -0.300 N 
ATOM      8  N   UNL     1       8.573   7.525   4.488  0.00  0.00    -0.311 N 
ATOM      9  C   UNL     1       9.113   6.020   6.492  0.00  0.00    +0.027 C 
ATOM     10  C   UNL     1      10.188   5.604   4.322  0.00  0.00    +0.054 C 
ATOM     11  C   UNL     1       9.373   4.955   5.439  0.00  0.00    +0.018 C 
ATOM     12  C   UNL     1      10.435   6.566   7.056  0.00  0.00    +0.113 C 
ATOM     13  C   UNL     1       8.261   7.125   5.866  0.00  0.00    +0.130 C 
ATOM     14  C   UNL     1      11.533   6.103   4.890  0.00  0.00    +0.117 C 
ATOM     15  C   UNL     1       9.427   6.761   3.668  0.00  0.00    +0.035 A 
ATOM     16  C   UNL     1       9.570   7.082   2.355  0.00  0.00    +0.009 A 
ATOM     17  C   UNL     1       7.873   8.646   4.010  0.00  0.00    +0.252 A 
ATOM     18  C   UNL     1      11.967   8.275   6.140  0.00  0.00    +0.225 C 
ATOM     19  C   UNL     1       8.866   8.236   1.827  0.00  0.00    +0.016 A 
ATOM     20  C   UNL     1       8.075   8.995   2.585  0.00  0.00    +0.071 A 
ENDROOT
BRANCH  16  21
ATOM      1  S   UNL     1      12.084   6.721   1.295  0.00  0.00    -0.088 S 
ATOM     21  C   UNL     1      10.441   6.299   1.450  0.00  0.00    +0.022 A 
ATOM     23  C   UNL     1      10.108   5.218   0.670  0.00  0.00    +0.024 A 
ATOM     24  C   UNL     1      11.220   4.710  -0.083  0.00  0.00    -0.010 A 
ATOM     25  C   UNL     1      12.380   5.450   0.167  0.00  0.00    +0.020 A 
ATOM     26  C   UNL     1      11.300   3.627  -0.992  0.00  0.00    +0.009 A 
ATOM     27  C   UNL     1      13.602   5.138  -0.460  0.00  0.00    +0.015 A 
ATOM     29  C   UNL     1      12.511   3.315  -1.615  0.00  0.00    +0.001 A 
ATOM     30  C   UNL     1      13.649   4.064  -1.351  0.00  0.00    +0.001 A 
ENDBRANCH  16  21
BRANCH  18  22
ATOM     22  C   UNL     1      12.931   8.664   5.047  0.00  0.00    +0.165 C 
BRANCH  22   2
ATOM      2  S   UNL     1      12.773  10.437   4.785  0.00  0.00    -0.140 S 
BRANCH   2  28
ATOM     28  C   UNL     1      11.241  10.441   3.821  0.00  0.00    +0.189 C 
BRANCH  28  31
ATOM      6  O   UNL     1       9.571  12.178   3.846  0.00  0.00    -0.250 OA
ATOM     31  C   UNL     1      10.250  11.367   4.463  0.00  0.00    +0.315 C 
BRANCH  31   5
ATOM      5  O   UNL     1      10.172  11.201   5.807  0.00  0.00    -0.480 OA
ATOM     32  H   UNL     1      10.902  10.641   6.150  0.00  0.00    +0.295 HD
ENDBRANCH  31   5
ENDBRANCH  28  31
ENDBRANCH   2  28
ENDBRANCH  22   2
ENDBRANCH  18  22
TORSDOF 6
ENDMDL
MODEL 6
REMARK VINA RESULT:      -6.1     25.241     27.684
REMARK  Name = 7144163
REMARK  6 active torsions:
REMARK  status: ('A' for Active; 'I' for Inactive)
REMARK    1  A    between atoms: S_2  and  C_22
REMARK    2  A    between atoms: S_2  and  C_28
REMARK    3  A    between atoms: O_5  and  C_31
REMARK    4  A    between atoms: C_16  and  C_21
REMARK    5  A    between atoms: C_18  and  C_22
REMARK    6  A    between atoms: C_28  and  C_31
REMARK                            x       y       z     vdW  Elec       q    Type
REMARK                         _______ _______ _______ _____ _____    ______ ____
ROOT
ATOM      3  O   UNL     1       9.875  10.092   8.528  0.00  0.00    -0.268 OA
ATOM      4  O   UNL     1      12.906   6.772   5.784  0.00  0.00    -0.275 OA
ATOM      7  N   UNL     1      10.684   6.498   5.165  0.00  0.00    -0.300 N 
ATOM      8  N   UNL     1       9.093   8.714   6.804  0.00  0.00    -0.311 N 
ATOM      9  C   UNL     1       9.072   6.160   7.034  0.00  0.00    +0.027 C 
ATOM     10  C   UNL     1       8.310   7.211   4.947  0.00  0.00    +0.054 C 
ATOM     11  C   UNL     1       7.918   6.225   6.046  0.00  0.00    +0.018 C 
ATOM     12  C   UNL     1      10.359   5.687   6.339  0.00  0.00    +0.113 C 
ATOM     13  C   UNL     1       9.243   7.539   7.673  0.00  0.00    +0.130 C 
ATOM     14  C   UNL     1       9.574   6.699   4.225  0.00  0.00    +0.117 C 
ATOM     15  C   UNL     1       8.551   8.615   5.507  0.00  0.00    +0.035 A 
ATOM     16  C   UNL     1       8.290   9.743   4.795  0.00  0.00    +0.009 A 
ATOM     17  C   UNL     1       9.413   9.948   7.396  0.00  0.00    +0.252 A 
ATOM     18  C   UNL     1      11.989   6.954   4.980  0.00  0.00    +0.225 C 
ATOM     19  C   UNL     1       8.610  11.035   5.372  0.00  0.00    +0.016 A 
ATOM     20  C   UNL     1       9.152  11.159   6.584  0.00  0.00    +0.071 A 
ENDROOT
BRANCH  16  21
ATOM      1  S   UNL     1       8.734   9.649   2.081  0.00  0.00    -0.088 S 
ATOM     21  C   UNL     1       7.703   9.690   3.438  0.00  0.00    +0.022 A 
ATOM     23  C   UNL     1       6.377   9.667   3.081  0.00  0.00    +0.024 A 
ATOM     24  C   UNL     1       6.182   9.615   1.659  0.00  0.00    -0.010 A 
ATOM     25  C   UNL     1       7.405   9.600   0.982  0.00  0.00    +0.020 A 
ATOM     26  C   UNL     1       4.992   9.579   0.893  0.00  0.00    +0.009 A 
ATOM     27  C   UNL     1       7.468   9.550  -0.425  0.00  0.00    +0.015 A 
ATOM     29  C   UNL     1       5.051   9.529  -0.502  0.00  0.00    +0.001 A 
ATOM     30  C   UNL     1       6.276   9.516  -1.152  0.00  0.00    +0.001 A 
ENDBRANCH  16  21
BRANCH  18  22
ATOM     22  C   UNL     1      12.262   7.721   3.710  0.00  0.00    +0.165 C 
BRANCH  22   2
ATOM      2  S   UNL     1      13.470   6.788   2.758  0.00  0.00    -0.140 S 
BRANCH   2  28
ATOM     28  C   UNL     1      12.332   5.830   1.725  0.00  0.00    +0.189 C 
BRANCH  28  31
ATOM      6  O   UNL     1      13.266   3.612   1.624  0.00  0.00    -0.250 OA
ATOM     31  C   UNL     1      12.432   4.377   2.088  0.00  0.00    +0.315 C 
BRANCH  31   5
ATOM      5  O   UNL     1      11.503   4.001   3.003  0.00  0.00    -0.480 OA
ATOM     32  H   UNL     1      11.025   4.772   3.378  0.00  0.00    +0.295 HD
ENDBRANCH  31   5
ENDBRANCH  28  31
ENDBRANCH   2  28
ENDBRANCH  22   2
ENDBRANCH  18  22
TORSDOF 6
ENDMDL
MODEL 7
REMARK VINA RESULT:      -6.0     25.298     28.305
REMARK  Name = 7144163
REMARK  6 active torsions:
REMARK  status: ('A' for Active; 'I' for Inactive)
REMARK    1  A    between atoms: S_2  and  C_22
REMARK    2  A    between atoms: S_2  and  C_28
REMARK    3  A    between atoms: O_5  and  C_31
REMARK    4  A    between atoms: C_16  and  C_21
REMARK    5  A    between atoms: C_18  and  C_22
REMARK    6  A    between atoms: C_28  and  C_31
REMARK                            x       y       z     vdW  Elec       q    Type
REMARK                         _______ _______ _______ _____ _____    ______ ____
ROOT
ATOM      3  O   UNL     1       9.824  10.150   8.404  0.00  0.00    -0.268 OA
ATOM      4  O   UNL     1      13.019   7.000   5.645  0.00  0.00    -0.275 OA
ATOM      7  N   UNL     1      10.816   6.637   5.005  0.00  0.00    -0.300 N 
ATOM      8  N   UNL     1       9.117   8.760   6.657  0.00  0.00    -0.311 N 
ATOM      9  C   UNL     1       9.206   6.206   6.855  0.00  0.00    +0.027 C 
ATOM     10  C   UNL     1       8.414   7.248   4.776  0.00  0.00    +0.054 C 
ATOM     11  C   UNL     1       8.057   6.233   5.860  0.00  0.00    +0.018 C 
ATOM     12  C   UNL     1      10.518   5.798   6.165  0.00  0.00    +0.113 C 
ATOM     13  C   UNL     1       9.311   7.583   7.513  0.00  0.00    +0.130 C 
ATOM     14  C   UNL     1       9.705   6.801   4.058  0.00  0.00    +0.117 C 
ATOM     15  C   UNL     1       8.590   8.654   5.355  0.00  0.00    +0.035 A 
ATOM     16  C   UNL     1       8.285   9.778   4.654  0.00  0.00    +0.009 A 
ATOM     17  C   UNL     1       9.378  10.000   7.266  0.00  0.00    +0.252 A 
ATOM     18  C   UNL     1      12.101   7.151   4.836  0.00  0.00    +0.225 C 
ATOM     19  C   UNL     1       8.544  11.076   5.250  0.00  0.00    +0.016 A 
ATOM     20  C   UNL     1       9.070  11.208   6.467  0.00  0.00    +0.071 A 
ENDROOT
BRANCH  16  21
ATOM      1  S   UNL     1       6.034   9.924   3.078  0.00  0.00    -0.088 S 
ATOM     21  C   UNL     1       7.712   9.717   3.291  0.00  0.00    +0.022 A 
ATOM     23  C   UNL     1       8.363   9.507   2.100  0.00  0.00    +0.024 A 
ATOM     24  C   UNL     1       7.476   9.512   0.971  0.00  0.00    -0.010 A 
ATOM     25  C   UNL     1       6.153   9.733   1.368  0.00  0.00    +0.020 A 
ATOM     26  C   UNL     1       7.740   9.336  -0.409  0.00  0.00    +0.009 A 
ATOM     27  C   UNL     1       5.102   9.781   0.432  0.00  0.00    +0.015 A 
ATOM     29  C   UNL     1       6.699   9.383  -1.340  0.00  0.00    +0.001 A 
ATOM     30  C   UNL     1       5.394   9.603  -0.922  0.00  0.00    +0.001 A 
ENDBRANCH  16  21
BRANCH  18  22
ATOM     22  C   UNL     1      12.350   7.945   3.578  0.00  0.00    +0.165 C 
BRANCH  22   2
ATOM      2  S   UNL     1      13.678   9.109   3.922  0.00  0.00    -0.140 S 
BRANCH   2  28
ATOM     28  C   UNL     1      14.991   8.331   2.947  0.00  0.00    +0.189 C 
BRANCH  28  31
ATOM      6  O   UNL     1      16.820   7.976   4.476  0.00  0.00    -0.250 OA
ATOM     31  C   UNL     1      15.870   7.519   3.854  0.00  0.00    +0.315 C 
BRANCH  31   5
ATOM      5  O   UNL     1      15.490   6.218   3.924  0.00  0.00    -0.480 OA
ATOM     32  H   UNL     1      14.517   6.125   4.018  0.00  0.00    +0.295 HD
ENDBRANCH  31   5
ENDBRANCH  28  31
ENDBRANCH   2  28
ENDBRANCH  22   2
ENDBRANCH  18  22
TORSDOF 6
ENDMDL
MODEL 8
REMARK VINA RESULT:      -5.9     20.566     23.620
REMARK  Name = 7144163
REMARK  6 active torsions:
REMARK  status: ('A' for Active; 'I' for Inactive)
REMARK    1  A    between atoms: S_2  and  C_22
REMARK    2  A    between atoms: S_2  and  C_28
REMARK    3  A    between atoms: O_5  and  C_31
REMARK    4  A    between atoms: C_16  and  C_21
REMARK    5  A    between atoms: C_18  and  C_22
REMARK    6  A    between atoms: C_28  and  C_31
REMARK                            x       y       z     vdW  Elec       q    Type
REMARK                         _______ _______ _______ _____ _____    ______ ____
ROOT
ATOM      3  O   UNL     1      -0.673   9.685   4.190  0.00  0.00    -0.268 OA
ATOM      4  O   UNL     1      -3.772  13.944   4.240  0.00  0.00    -0.275 OA
ATOM      7  N   UNL     1      -4.841  12.209   3.125  0.00  0.00    -0.300 N 
ATOM      8  N   UNL     1      -2.872   9.723   3.387  0.00  0.00    -0.311 N 
ATOM      9  C   UNL     1      -3.524  11.101   1.326  0.00  0.00    +0.027 C 
ATOM     10  C   UNL     1      -5.237   9.823   2.538  0.00  0.00    +0.054 C 
ATOM     11  C   UNL     1      -4.625  10.066   1.160  0.00  0.00    +0.018 C 
ATOM     12  C   UNL     1      -4.090  12.415   1.887  0.00  0.00    +0.113 C 
ATOM     13  C   UNL     1      -2.438  10.515   2.229  0.00  0.00    +0.130 C 
ATOM     14  C   UNL     1      -5.845  11.138   3.069  0.00  0.00    +0.117 C 
ATOM     15  C   UNL     1      -4.203   9.280   3.528  0.00  0.00    +0.035 A 
ATOM     16  C   UNL     1      -4.528   8.425   4.533  0.00  0.00    +0.009 A 
ATOM     17  C   UNL     1      -1.852   9.340   4.275  0.00  0.00    +0.252 A 
ATOM     18  C   UNL     1      -4.621  13.049   4.216  0.00  0.00    +0.225 C 
ATOM     19  C   UNL     1      -3.502   8.010   5.471  0.00  0.00    +0.016 A 
ATOM     20  C   UNL     1      -2.242   8.436   5.381  0.00  0.00    +0.071 A 
ENDROOT
BRANCH  16  21
ATOM      1  S   UNL     1      -7.045   8.863   5.555  0.00  0.00    -0.088 S 
ATOM     21  C   UNL     1      -5.907   7.918   4.709  0.00  0.00    +0.022 A 
ATOM     23  C   UNL     1      -6.443   6.732   4.270  0.00  0.00    +0.024 A 
ATOM     24  C   UNL     1      -7.825   6.578   4.629  0.00  0.00    -0.010 A 
ATOM     25  C   UNL     1      -8.289   7.686   5.344  0.00  0.00    +0.020 A 
ATOM     26  C   UNL     1      -8.731   5.520   4.373  0.00  0.00    +0.009 A 
ATOM     27  C   UNL     1      -9.618   7.763   5.805  0.00  0.00    +0.015 A 
ATOM     29  C   UNL     1     -10.050   5.593   4.828  0.00  0.00    +0.001 A 
ATOM     30  C   UNL     1     -10.487   6.703   5.536  0.00  0.00    +0.001 A 
ENDBRANCH  16  21
BRANCH  18  22
ATOM     22  C   UNL     1      -5.485  12.821   5.430  0.00  0.00    +0.165 C 
BRANCH  22   2
ATOM      2  S   UNL     1      -4.467  13.104   6.886  0.00  0.00    -0.140 S 
BRANCH   2  28
ATOM     28  C   UNL     1      -3.628  11.502   6.957  0.00  0.00    +0.189 C 
BRANCH  28  31
ATOM      6  O   UNL     1      -5.494  10.685   8.244  0.00  0.00    -0.250 OA
ATOM     31  C   UNL     1      -4.300  10.631   7.978  0.00  0.00    +0.315 C 
BRANCH  31   5
ATOM      5  O   UNL     1      -3.443   9.761   8.570  0.00  0.00    -0.480 OA
ATOM     32  H   UNL     1      -3.434   9.863   9.546  0.00  0.00    +0.295 HD
ENDBRANCH  31   5
ENDBRANCH  28  31
ENDBRANCH   2  28
ENDBRANCH  22   2
ENDBRANCH  18  22
TORSDOF 6
ENDMDL
MODEL 9
REMARK VINA RESULT:      -5.7     26.065     29.114
REMARK  Name = 7144163
REMARK  6 active torsions:
REMARK  status: ('A' for Active; 'I' for Inactive)
REMARK    1  A    between atoms: S_2  and  C_22
REMARK    2  A    between atoms: S_2  and  C_28
REMARK    3  A    between atoms: O_5  and  C_31
REMARK    4  A    between atoms: C_16  and  C_21
REMARK    5  A    between atoms: C_18  and  C_22
REMARK    6  A    between atoms: C_28  and  C_31
REMARK                            x       y       z     vdW  Elec       q    Type
REMARK                         _______ _______ _______ _____ _____    ______ ____
ROOT
ATOM      3  O   UNL     1      15.476   7.155  -0.844  0.00  0.00    -0.268 OA
ATOM      4  O   UNL     1      11.236   4.744  -2.832  0.00  0.00    -0.275 OA
ATOM      7  N   UNL     1      11.499   4.153  -0.601  0.00  0.00    -0.300 N 
ATOM      8  N   UNL     1      13.985   5.860   0.416  0.00  0.00    -0.311 N 
ATOM      9  C   UNL     1      13.760   3.333   0.045  0.00  0.00    +0.027 C 
ATOM     10  C   UNL     1      12.354   4.458   1.717  0.00  0.00    +0.054 C 
ATOM     11  C   UNL     1      13.331   3.303   1.503  0.00  0.00    +0.018 C 
ATOM     12  C   UNL     1      12.547   3.173  -0.885  0.00  0.00    +0.113 C 
ATOM     13  C   UNL     1      14.509   4.641  -0.214  0.00  0.00    +0.130 C 
ATOM     14  C   UNL     1      11.118   4.259   0.814  0.00  0.00    +0.117 C 
ATOM     15  C   UNL     1      13.008   5.812   1.430  0.00  0.00    +0.035 A 
ATOM     16  C   UNL     1      12.661   6.948   2.090  0.00  0.00    +0.009 A 
ATOM     17  C   UNL     1      14.608   7.058   0.024  0.00  0.00    +0.252 A 
ATOM     18  C   UNL     1      10.899   4.849  -1.650  0.00  0.00    +0.225 C 
ATOM     19  C   UNL     1      13.280   8.205   1.711  0.00  0.00    +0.016 A 
ATOM     20  C   UNL     1      14.186   8.286   0.736  0.00  0.00    +0.071 A 
ENDROOT
BRANCH  16  21
ATOM      1  S   UNL     1      10.031   7.312   2.811  0.00  0.00    -0.088 S 
ATOM     21  C   UNL     1      11.655   6.944   3.174  0.00  0.00    +0.022 A 
ATOM     23  C   UNL     1      11.838   6.672   4.509  0.00  0.00    +0.024 A 
ATOM     24  C   UNL     1      10.623   6.764   5.269  0.00  0.00    -0.010 A 
ATOM     25  C   UNL     1       9.542   7.112   4.453  0.00  0.00    +0.020 A 
ATOM     26  C   UNL     1      10.383   6.564   6.650  0.00  0.00    +0.009 A 
ATOM     27  C   UNL     1       8.243   7.262   4.977  0.00  0.00    +0.015 A 
ATOM     29  C   UNL     1       9.095   6.712   7.172  0.00  0.00    +0.001 A 
ATOM     30  C   UNL     1       8.038   7.058   6.343  0.00  0.00    +0.001 A 
ENDBRANCH  16  21
BRANCH  18  22
ATOM     22  C   UNL     1       9.778   5.788  -1.284  0.00  0.00    +0.165 C 
BRANCH  22   2
ATOM      2  S   UNL     1       9.408   6.788  -2.733  0.00  0.00    -0.140 S 
BRANCH   2  28
ATOM     28  C   UNL     1       7.832   6.031  -3.201  0.00  0.00    +0.189 C 
BRANCH  28  31
ATOM      6  O   UNL     1       7.753   5.574  -5.566  0.00  0.00    -0.250 OA
ATOM     31  C   UNL     1       8.026   5.196  -4.434  0.00  0.00    +0.315 C 
BRANCH  31   5
ATOM      5  O   UNL     1       8.553   3.976  -4.163  0.00  0.00    -0.480 OA
ATOM     32  H   UNL     1       7.858   3.311  -3.970  0.00  0.00    +0.295 HD
ENDBRANCH  31   5
ENDBRANCH  28  31
ENDBRANCH   2  28
ENDBRANCH  22   2
ENDBRANCH  18  22
TORSDOF 6
ENDMDL
MODEL 10
REMARK VINA RESULT:      -5.6      2.205      3.089
REMARK  Name = 7144163
REMARK  6 active torsions:
REMARK  status: ('A' for Active; 'I' for Inactive)
REMARK    1  A    between atoms: S_2  and  C_22
REMARK    2  A    between atoms: S_2  and  C_28
REMARK    3  A    between atoms: O_5  and  C_31
REMARK    4  A    between atoms: C_16  and  C_21
REMARK    5  A    between atoms: C_18  and  C_22
REMARK    6  A    between atoms: C_28  and  C_31
REMARK                            x       y       z     vdW  Elec       q    Type
REMARK                         _______ _______ _______ _____ _____    ______ ____
ROOT
ATOM      3  O   UNL     1     -11.078 -14.050  16.299  0.00  0.00    -0.268 OA
ATOM      4  O   UNL     1     -11.143  -9.082  18.047  0.00  0.00    -0.275 OA
ATOM      7  N   UNL     1      -9.092 -10.058  18.535  0.00  0.00    -0.300 N 
ATOM      8  N   UNL     1      -9.228 -12.958  17.232  0.00  0.00    -0.311 N 
ATOM      9  C   UNL     1      -9.187 -12.258  19.698  0.00  0.00    +0.027 C 
ATOM     10  C   UNL     1      -7.277 -11.735  18.242  0.00  0.00    +0.054 C 
ATOM     11  C   UNL     1      -7.679 -12.393  19.561  0.00  0.00    +0.018 C 
ATOM     12  C   UNL     1      -9.605 -10.779  19.699  0.00  0.00    +0.113 C 
ATOM     13  C   UNL     1      -9.849 -13.037  18.560  0.00  0.00    +0.130 C 
ATOM     14  C   UNL     1      -7.658 -10.240  18.277  0.00  0.00    +0.117 C 
ATOM     15  C   UNL     1      -7.938 -12.423  17.045  0.00  0.00    +0.035 A 
ATOM     16  C   UNL     1      -7.341 -12.507  15.827  0.00  0.00    +0.009 A 
ATOM     17  C   UNL     1      -9.955 -13.556  16.188  0.00  0.00    +0.252 A 
ATOM     18  C   UNL     1      -9.940  -9.220  17.811  0.00  0.00    +0.225 C 
ATOM     19  C   UNL     1      -8.063 -13.115  14.724  0.00  0.00    +0.016 A 
ATOM     20  C   UNL     1      -9.296 -13.602  14.863  0.00  0.00    +0.071 A 
ENDROOT
BRANCH  16  21
ATOM      1  S   UNL     1      -5.550 -11.448  14.025  0.00  0.00    -0.088 S 
ATOM     21  C   UNL     1      -5.980 -11.977  15.587  0.00  0.00    +0.022 A 
ATOM     23  C   UNL     1      -4.948 -11.837  16.483  0.00  0.00    +0.024 A 
ATOM     24  C   UNL     1      -3.765 -11.283  15.888  0.00  0.00    -0.010 A 
ATOM     25  C   UNL     1      -3.957 -11.019  14.529  0.00  0.00    +0.020 A 
ATOM     26  C   UNL     1      -2.502 -10.983  16.456  0.00  0.00    +0.009 A 
ATOM     27  C   UNL     1      -2.933 -10.470  13.732  0.00  0.00    +0.015 A 
ATOM     29  C   UNL     1      -1.484 -10.439  15.668  0.00  0.00    +0.001 A 
ATOM     30  C   UNL     1      -1.699 -10.186  14.321  0.00  0.00    +0.001 A 
ENDBRANCH  16  21
BRANCH  18  22
ATOM     22  C   UNL     1      -9.321  -8.455  16.669  0.00  0.00    +0.165 C 
BRANCH  22   2
ATOM      2  S   UNL     1     -10.621  -8.109  15.475  0.00  0.00    -0.140 S 
BRANCH   2  28
ATOM     28  C   UNL     1     -10.610  -6.301  15.565  0.00  0.00    +0.189 C 
BRANCH  28  31
ATOM      6  O   UNL     1     -12.990  -6.092  15.258  0.00  0.00    -0.250 OA
ATOM     31  C   UNL     1     -11.858  -5.761  14.930  0.00  0.00    +0.315 C 
BRANCH  31   5
ATOM      5  O   UNL     1     -11.600  -4.851  13.958  0.00  0.00    -0.480 OA
ATOM     32  H   UNL     1     -11.196  -4.033  14.320  0.00  0.00    +0.295 HD
ENDBRANCH  31   5
ENDBRANCH  28  31
ENDBRANCH   2  28
ENDBRANCH  22   2
ENDBRANCH  18  22
TORSDOF 6
ENDMDL
