MODEL 1
REMARK VINA RESULT:      -6.0      0.000      0.000
REMARK  Name = 56775024
REMARK  6 active torsions:
REMARK  status: ('A' for Active; 'I' for Inactive)
REMARK    1  A    between atoms: N_3  and  C_10
REMARK    2  A    between atoms: N_4  and  C_14
REMARK    3  A    between atoms: C_10  and  C_11
REMARK    4  A    between atoms: C_11  and  C_15
REMARK    5  A    between atoms: C_11  and  C_16
REMARK    6  A    between atoms: C_14  and  C_17
REMARK                            x       y       z     vdW  Elec       q    Type
REMARK                         _______ _______ _______ _____ _____    ______ ____
ROOT
ATOM      1  O   UNL     1      13.187  10.598  17.949  0.00  0.00    -0.364 OA
ATOM      2  O   UNL     1      13.932   7.333  16.850  0.00  0.00    -0.273 OA
ATOM      3  N   UNL     1      12.623  10.753  21.191  0.00  0.00    -0.298 NA
ATOM      4  N   UNL     1      14.059   8.208  19.003  0.00  0.00    -0.288 N 
ATOM      6  C   UNL     1      13.930   9.364  19.885  0.00  0.00    +0.120 C 
ATOM      7  C   UNL     1      13.900  10.715  19.176  0.00  0.00    +0.154 C 
ATOM      8  C   UNL     1      12.621   9.387  20.670  0.00  0.00    +0.109 C 
ATOM      9  C   UNL     1      13.089  11.625  20.104  0.00  0.00    +0.118 C 
ATOM     12  C   UNL     1      13.920   8.294  17.621  0.00  0.00    +0.242 C 
ATOM     13  C   UNL     1      13.831   9.702  17.073  0.00  0.00    +0.256 C 
ENDROOT
BRANCH   3  10
ATOM     10  C   UNL     1      11.331  11.155  21.724  0.00  0.00    +0.087 C 
BRANCH  10  11
ATOM     11  C   UNL     1      11.463  12.077  22.950  0.00  0.00    -0.003 C 
ATOM     15  C   UNL     1      10.929  11.431  24.231  0.00  0.00    +0.008 C 
ATOM     16  C   UNL     1      10.722  13.391  22.689  0.00  0.00    +0.008 C 
ENDBRANCH  10  11
ENDBRANCH   3  10
BRANCH   4  14
ATOM     14  C   UNL     1      14.250   6.909  19.638  0.00  0.00    +0.143 C 
BRANCH  14  17
ATOM      5  N   UNL     1      18.395   6.093  20.412  0.00  0.00    -0.263 NA
ATOM     17  C   UNL     1      15.698   6.624  19.909  0.00  0.00    -0.027 A 
ATOM     18  C   UNL     1      16.245   6.913  21.154  0.00  0.00    +0.025 A 
ATOM     19  C   UNL     1      16.498   6.070  18.915  0.00  0.00    +0.025 A 
ATOM     20  C   UNL     1      17.587   6.631  21.353  0.00  0.00    +0.111 A 
ATOM     21  C   UNL     1      17.829   5.826  19.214  0.00  0.00    +0.111 A 
ENDBRANCH  14  17
ENDBRANCH   4  14
TORSDOF 4
ENDMDL
MODEL 2
REMARK VINA RESULT:      -5.8      3.224      4.615
REMARK  Name = 56775024
REMARK  6 active torsions:
REMARK  status: ('A' for Active; 'I' for Inactive)
REMARK    1  A    between atoms: N_3  and  C_10
REMARK    2  A    between atoms: N_4  and  C_14
REMARK    3  A    between atoms: C_10  and  C_11
REMARK    4  A    between atoms: C_11  and  C_15
REMARK    5  A    between atoms: C_11  and  C_16
REMARK    6  A    between atoms: C_14  and  C_17
REMARK                            x       y       z     vdW  Elec       q    Type
REMARK                         _______ _______ _______ _____ _____    ______ ____
ROOT
ATOM      1  O   UNL     1      11.175   8.875  22.665  0.00  0.00    -0.364 OA
ATOM      2  O   UNL     1      11.193   5.799  20.947  0.00  0.00    -0.273 OA
ATOM      3  N   UNL     1      13.699  10.819  21.825  0.00  0.00    -0.298 NA
ATOM      4  N   UNL     1      12.267   7.785  20.384  0.00  0.00    -0.288 N 
ATOM      6  C   UNL     1      12.517   9.191  20.685  0.00  0.00    +0.120 C 
ATOM      7  C   UNL     1      11.535   9.825  21.667  0.00  0.00    +0.154 C 
ATOM      8  C   UNL     1      13.858   9.437  21.372  0.00  0.00    +0.109 C 
ATOM      9  C   UNL     1      12.331  10.942  22.350  0.00  0.00    +0.118 C 
ATOM     12  C   UNL     1      11.367   7.008  21.107  0.00  0.00    +0.242 C 
ATOM     13  C   UNL     1      10.512   7.771  22.096  0.00  0.00    +0.256 C 
ENDROOT
BRANCH   3  10
ATOM     10  C   UNL     1      14.712  11.216  22.789  0.00  0.00    +0.087 C 
BRANCH  10  11
ATOM     11  C   UNL     1      14.134  12.073  23.929  0.00  0.00    -0.003 C 
ATOM     15  C   UNL     1      14.474  13.558  23.778  0.00  0.00    +0.008 C 
ATOM     16  C   UNL     1      14.653  11.561  25.275  0.00  0.00    +0.008 C 
ENDBRANCH  10  11
ENDBRANCH   3  10
BRANCH   4  14
ATOM     14  C   UNL     1      13.078   7.178  19.336  0.00  0.00    +0.143 C 
BRANCH  14  17
ATOM      5  N   UNL     1      12.612   9.197  15.574  0.00  0.00    -0.263 NA
ATOM     17  C   UNL     1      12.916   7.883  18.021  0.00  0.00    -0.027 A 
ATOM     18  C   UNL     1      14.022   8.113  17.212  0.00  0.00    +0.025 A 
ATOM     19  C   UNL     1      11.658   8.309  17.609  0.00  0.00    +0.025 A 
ATOM     20  C   UNL     1      13.819   8.768  16.008  0.00  0.00    +0.111 A 
ATOM     21  C   UNL     1      11.560   8.956  16.387  0.00  0.00    +0.111 A 
ENDBRANCH  14  17
ENDBRANCH   4  14
TORSDOF 4
ENDMDL
MODEL 3
REMARK VINA RESULT:      -5.7      2.607      4.158
REMARK  Name = 56775024
REMARK  6 active torsions:
REMARK  status: ('A' for Active; 'I' for Inactive)
REMARK    1  A    between atoms: N_3  and  C_10
REMARK    2  A    between atoms: N_4  and  C_14
REMARK    3  A    between atoms: C_10  and  C_11
REMARK    4  A    between atoms: C_11  and  C_15
REMARK    5  A    between atoms: C_11  and  C_16
REMARK    6  A    between atoms: C_14  and  C_17
REMARK                            x       y       z     vdW  Elec       q    Type
REMARK                         _______ _______ _______ _____ _____    ______ ____
ROOT
ATOM      1  O   UNL     1      11.895   8.000  22.047  0.00  0.00    -0.364 OA
ATOM      2  O   UNL     1      14.595   6.499  20.351  0.00  0.00    -0.273 OA
ATOM      3  N   UNL     1      11.990  11.292  21.931  0.00  0.00    -0.298 NA
ATOM      4  N   UNL     1      13.751   8.656  20.121  0.00  0.00    -0.288 N 
ATOM      6  C   UNL     1      12.744   9.643  20.497  0.00  0.00    +0.120 C 
ATOM      7  C   UNL     1      11.511   9.074  21.193  0.00  0.00    +0.154 C 
ATOM      8  C   UNL     1      13.244  10.663  21.517  0.00  0.00    +0.109 C 
ATOM      9  C   UNL     1      11.000  10.216  22.078  0.00  0.00    +0.118 C 
ATOM     12  C   UNL     1      13.721   7.339  20.569  0.00  0.00    +0.242 C 
ATOM     13  C   UNL     1      12.459   6.943  21.307  0.00  0.00    +0.256 C 
ENDROOT
BRANCH   3  10
ATOM     10  C   UNL     1      12.133  12.095  23.134  0.00  0.00    +0.087 C 
BRANCH  10  11
ATOM     11  C   UNL     1      10.793  12.309  23.860  0.00  0.00    -0.003 C 
ATOM     15  C   UNL     1      10.203  13.699  23.606  0.00  0.00    +0.008 C 
ATOM     16  C   UNL     1      10.981  12.098  25.365  0.00  0.00    +0.008 C 
ENDBRANCH  10  11
ENDBRANCH   3  10
BRANCH   4  14
ATOM     14  C   UNL     1      14.872   9.127  19.316  0.00  0.00    +0.143 C 
BRANCH  14  17
ATOM      5  N   UNL     1      13.678  10.099  15.306  0.00  0.00    -0.263 NA
ATOM     17  C   UNL     1      14.454   9.466  17.915  0.00  0.00    -0.027 A 
ATOM     18  C   UNL     1      13.989   8.470  17.065  0.00  0.00    +0.025 A 
ATOM     19  C   UNL     1      14.533  10.779  17.462  0.00  0.00    +0.025 A 
ATOM     20  C   UNL     1      13.616   8.835  15.781  0.00  0.00    +0.111 A 
ATOM     21  C   UNL     1      14.137  11.041  16.160  0.00  0.00    +0.111 A 
ENDBRANCH  14  17
ENDBRANCH   4  14
TORSDOF 4
ENDMDL
MODEL 4
REMARK VINA RESULT:      -5.5     15.748     18.065
REMARK  Name = 56775024
REMARK  6 active torsions:
REMARK  status: ('A' for Active; 'I' for Inactive)
REMARK    1  A    between atoms: N_3  and  C_10
REMARK    2  A    between atoms: N_4  and  C_14
REMARK    3  A    between atoms: C_10  and  C_11
REMARK    4  A    between atoms: C_11  and  C_15
REMARK    5  A    between atoms: C_11  and  C_16
REMARK    6  A    between atoms: C_14  and  C_17
REMARK                            x       y       z     vdW  Elec       q    Type
REMARK                         _______ _______ _______ _____ _____    ______ ____
ROOT
ATOM      1  O   UNL     1       9.451   6.921   2.417  0.00  0.00    -0.364 OA
ATOM      2  O   UNL     1      10.049   4.928  -0.427  0.00  0.00    -0.273 OA
ATOM      3  N   UNL     1      10.413   5.470   5.215  0.00  0.00    -0.298 NA
ATOM      4  N   UNL     1      11.024   4.783   1.682  0.00  0.00    -0.288 N 
ATOM      6  C   UNL     1      11.155   5.326   3.030  0.00  0.00    +0.120 C 
ATOM      7  C   UNL     1      10.622   6.745   3.209  0.00  0.00    +0.154 C 
ATOM      8  C   UNL     1      10.358   4.552   4.077  0.00  0.00    +0.109 C 
ATOM      9  C   UNL     1      10.208   6.824   4.682  0.00  0.00    +0.118 C 
ATOM     12  C   UNL     1      10.260   5.396   0.693  0.00  0.00    +0.242 C 
ATOM     13  C   UNL     1       9.740   6.773   1.047  0.00  0.00    +0.256 C 
ENDROOT
BRANCH   3  10
ATOM     10  C   UNL     1       9.465   5.126   6.262  0.00  0.00    +0.087 C 
BRANCH  10  11
ATOM     11  C   UNL     1       9.986   5.484   7.666  0.00  0.00    -0.003 C 
ATOM     15  C   UNL     1       9.815   4.337   8.666  0.00  0.00    +0.008 C 
ATOM     16  C   UNL     1       9.262   6.729   8.184  0.00  0.00    +0.008 C 
ENDBRANCH  10  11
ENDBRANCH   3  10
BRANCH   4  14
ATOM     14  C   UNL     1      11.657   3.496   1.421  0.00  0.00    +0.143 C 
BRANCH  14  17
ATOM      5  N   UNL     1      15.658   3.944  -0.077  0.00  0.00    -0.263 NA
ATOM     17  C   UNL     1      13.054   3.653   0.898  0.00  0.00    -0.027 A 
ATOM     18  C   UNL     1      13.269   3.915  -0.450  0.00  0.00    +0.025 A 
ATOM     19  C   UNL     1      14.140   3.536   1.760  0.00  0.00    +0.025 A 
ATOM     20  C   UNL     1      14.578   4.051  -0.884  0.00  0.00    +0.111 A 
ATOM     21  C   UNL     1      15.410   3.688   1.227  0.00  0.00    +0.111 A 
ENDBRANCH  14  17
ENDBRANCH   4  14
TORSDOF 4
ENDMDL
MODEL 5
REMARK VINA RESULT:      -5.4     27.406     28.581
REMARK  Name = 56775024
REMARK  6 active torsions:
REMARK  status: ('A' for Active; 'I' for Inactive)
REMARK    1  A    between atoms: N_3  and  C_10
REMARK    2  A    between atoms: N_4  and  C_14
REMARK    3  A    between atoms: C_10  and  C_11
REMARK    4  A    between atoms: C_11  and  C_15
REMARK    5  A    between atoms: C_11  and  C_16
REMARK    6  A    between atoms: C_14  and  C_17
REMARK                            x       y       z     vdW  Elec       q    Type
REMARK                         _______ _______ _______ _____ _____    ______ ____
ROOT
ATOM      1  O   UNL     1      -4.109 -14.267  15.396  0.00  0.00    -0.364 OA
ATOM      2  O   UNL     1      -1.518 -14.618  13.033  0.00  0.00    -0.273 OA
ATOM      3  N   UNL     1      -4.747 -11.119  16.130  0.00  0.00    -0.298 NA
ATOM      4  N   UNL     1      -2.834 -12.751  13.483  0.00  0.00    -0.288 N 
ATOM      6  C   UNL     1      -3.940 -12.161  14.231  0.00  0.00    +0.120 C 
ATOM      7  C   UNL     1      -4.869 -13.165  14.908  0.00  0.00    +0.154 C 
ATOM      8  C   UNL     1      -3.489 -11.300  15.407  0.00  0.00    +0.109 C 
ATOM      9  C   UNL     1      -5.438 -12.417  16.118  0.00  0.00    +0.118 C 
ATOM     12  C   UNL     1      -2.496 -14.098  13.573  0.00  0.00    +0.242 C 
ATOM     13  C   UNL     1      -3.481 -14.955  14.340  0.00  0.00    +0.256 C 
ENDROOT
BRANCH   3  10
ATOM     10  C   UNL     1      -4.556 -10.593  17.472  0.00  0.00    +0.087 C 
BRANCH  10  11
ATOM     11  C   UNL     1      -4.976 -11.597  18.561  0.00  0.00    -0.003 C 
ATOM     15  C   UNL     1      -5.980 -11.003  19.552  0.00  0.00    +0.008 C 
ATOM     16  C   UNL     1      -3.737 -12.088  19.316  0.00  0.00    +0.008 C 
ENDBRANCH  10  11
ENDBRANCH   3  10
BRANCH   4  14
ATOM     14  C   UNL     1      -2.012 -11.844  12.691  0.00  0.00    +0.143 C 
BRANCH  14  17
ATOM      5  N   UNL     1      -4.133 -10.323   9.279  0.00  0.00    -0.263 NA
ATOM     17  C   UNL     1      -2.752 -11.312  11.499  0.00  0.00    -0.027 A 
ATOM     18  C   UNL     1      -2.720  -9.954  11.206  0.00  0.00    +0.025 A 
ATOM     19  C   UNL     1      -3.475 -12.177  10.684  0.00  0.00    +0.025 A 
ATOM     20  C   UNL     1      -3.421  -9.513  10.095  0.00  0.00    +0.111 A 
ATOM     21  C   UNL     1      -4.143 -11.637   9.596  0.00  0.00    +0.111 A 
ENDBRANCH  14  17
ENDBRANCH   4  14
TORSDOF 4
ENDMDL
MODEL 6
REMARK VINA RESULT:      -5.3     27.462     28.664
REMARK  Name = 56775024
REMARK  6 active torsions:
REMARK  status: ('A' for Active; 'I' for Inactive)
REMARK    1  A    between atoms: N_3  and  C_10
REMARK    2  A    between atoms: N_4  and  C_14
REMARK    3  A    between atoms: C_10  and  C_11
REMARK    4  A    between atoms: C_11  and  C_15
REMARK    5  A    between atoms: C_11  and  C_16
REMARK    6  A    between atoms: C_14  and  C_17
REMARK                            x       y       z     vdW  Elec       q    Type
REMARK                         _______ _______ _______ _____ _____    ______ ____
ROOT
ATOM      1  O   UNL     1      -7.833 -11.707  18.720  0.00  0.00    -0.364 OA
ATOM      2  O   UNL     1      -4.331 -11.625  19.104  0.00  0.00    -0.273 OA
ATOM      3  N   UNL     1      -8.943  -9.383  16.665  0.00  0.00    -0.298 NA
ATOM      4  N   UNL     1      -5.627 -10.726  17.394  0.00  0.00    -0.288 N 
ATOM      6  C   UNL     1      -6.948 -10.543  16.800  0.00  0.00    +0.120 C 
ATOM      7  C   UNL     1      -8.028 -11.485  17.326  0.00  0.00    +0.154 C 
ATOM      8  C   UNL     1      -7.557  -9.172  17.080  0.00  0.00    +0.109 C 
ATOM      9  C   UNL     1      -9.339 -10.711  17.155  0.00  0.00    +0.118 C 
ATOM     12  C   UNL     1      -5.409 -11.515  18.518  0.00  0.00    +0.242 C 
ATOM     13  C   UNL     1      -6.598 -12.340  18.963  0.00  0.00    +0.256 C 
ENDROOT
BRANCH   3  10
ATOM     10  C   UNL     1      -9.834  -8.326  17.116  0.00  0.00    +0.087 C 
BRANCH  10  11
ATOM     11  C   UNL     1     -10.225  -7.363  15.980  0.00  0.00    -0.003 C 
ATOM     15  C   UNL     1     -11.207  -6.282  16.439  0.00  0.00    +0.008 C 
ATOM     16  C   UNL     1     -10.836  -8.154  14.820  0.00  0.00    +0.008 C 
ENDBRANCH  10  11
ENDBRANCH   3  10
BRANCH   4  14
ATOM     14  C   UNL     1      -4.530  -9.960  16.815  0.00  0.00    +0.143 C 
BRANCH  14  17
ATOM      5  N   UNL     1      -1.932 -12.421  14.439  0.00  0.00    -0.263 NA
ATOM     17  C   UNL     1      -3.623 -10.819  15.984  0.00  0.00    -0.027 A 
ATOM     18  C   UNL     1      -4.151 -11.838  15.200  0.00  0.00    +0.025 A 
ATOM     19  C   UNL     1      -2.249 -10.600  15.997  0.00  0.00    +0.025 A 
ATOM     20  C   UNL     1      -3.271 -12.604  14.452  0.00  0.00    +0.111 A 
ATOM     21  C   UNL     1      -1.454 -11.422  15.213  0.00  0.00    +0.111 A 
ENDBRANCH  14  17
ENDBRANCH   4  14
TORSDOF 4
ENDMDL
MODEL 7
REMARK VINA RESULT:      -5.2     27.103     28.698
REMARK  Name = 56775024
REMARK  6 active torsions:
REMARK  status: ('A' for Active; 'I' for Inactive)
REMARK    1  A    between atoms: N_3  and  C_10
REMARK    2  A    between atoms: N_4  and  C_14
REMARK    3  A    between atoms: C_10  and  C_11
REMARK    4  A    between atoms: C_11  and  C_15
REMARK    5  A    between atoms: C_11  and  C_16
REMARK    6  A    between atoms: C_14  and  C_17
REMARK                            x       y       z     vdW  Elec       q    Type
REMARK                         _______ _______ _______ _____ _____    ______ ____
ROOT
ATOM      1  O   UNL     1      -3.707 -13.689  13.908  0.00  0.00    -0.364 OA
ATOM      2  O   UNL     1      -6.641 -13.155  15.786  0.00  0.00    -0.273 OA
ATOM      3  N   UNL     1      -2.134 -10.888  13.177  0.00  0.00    -0.298 NA
ATOM      4  N   UNL     1      -4.816 -11.738  15.504  0.00  0.00    -0.288 N 
ATOM      6  C   UNL     1      -3.486 -11.520  14.942  0.00  0.00    +0.120 C 
ATOM      7  C   UNL     1      -2.767 -12.784  14.479  0.00  0.00    +0.154 C 
ATOM      8  C   UNL     1      -3.494 -10.674  13.672  0.00  0.00    +0.109 C 
ATOM      9  C   UNL     1      -1.831 -12.314  13.361  0.00  0.00    +0.118 C 
ATOM     12  C   UNL     1      -5.485 -12.954  15.407  0.00  0.00    +0.242 C 
ATOM     13  C   UNL     1      -4.659 -14.099  14.862  0.00  0.00    +0.256 C 
ENDROOT
BRANCH   3  10
ATOM     10  C   UNL     1      -1.959 -10.445  11.803  0.00  0.00    +0.087 C 
BRANCH  10  11
ATOM     11  C   UNL     1      -3.294 -10.349  11.043  0.00  0.00    -0.003 C 
ATOM     15  C   UNL     1      -3.600 -11.612  10.232  0.00  0.00    +0.008 C 
ATOM     16  C   UNL     1      -3.271  -9.134  10.112  0.00  0.00    +0.008 C 
ENDBRANCH  10  11
ENDBRANCH   3  10
BRANCH   4  14
ATOM     14  C   UNL     1      -5.479 -10.586  16.103  0.00  0.00    +0.143 C 
BRANCH  14  17
ATOM      5  N   UNL     1      -6.232 -11.164  20.292  0.00  0.00    -0.263 NA
ATOM     17  C   UNL     1      -5.741 -10.787  17.567  0.00  0.00    -0.027 A 
ATOM     18  C   UNL     1      -4.730 -11.252  18.400  0.00  0.00    +0.025 A 
ATOM     19  C   UNL     1      -6.998 -10.511  18.094  0.00  0.00    +0.025 A 
ATOM     20  C   UNL     1      -5.024 -11.421  19.743  0.00  0.00    +0.111 A 
ATOM     21  C   UNL     1      -7.191 -10.714  19.452  0.00  0.00    +0.111 A 
ENDBRANCH  14  17
ENDBRANCH   4  14
TORSDOF 4
ENDMDL
MODEL 8
REMARK VINA RESULT:      -5.2     14.777     17.243
REMARK  Name = 56775024
REMARK  6 active torsions:
REMARK  status: ('A' for Active; 'I' for Inactive)
REMARK    1  A    between atoms: N_3  and  C_10
REMARK    2  A    between atoms: N_4  and  C_14
REMARK    3  A    between atoms: C_10  and  C_11
REMARK    4  A    between atoms: C_11  and  C_15
REMARK    5  A    between atoms: C_11  and  C_16
REMARK    6  A    between atoms: C_14  and  C_17
REMARK                            x       y       z     vdW  Elec       q    Type
REMARK                         _______ _______ _______ _____ _____    ______ ____
ROOT
ATOM      1  O   UNL     1      11.101   8.589   4.190  0.00  0.00    -0.364 OA
ATOM      2  O   UNL     1       9.447   7.267   1.373  0.00  0.00    -0.273 OA
ATOM      3  N   UNL     1      11.807   6.293   6.446  0.00  0.00    -0.298 NA
ATOM      4  N   UNL     1      10.735   6.153   2.959  0.00  0.00    -0.288 N 
ATOM      6  C   UNL     1      11.580   6.224   4.147  0.00  0.00    +0.120 C 
ATOM      7  C   UNL     1      12.101   7.619   4.484  0.00  0.00    +0.154 C 
ATOM      8  C   UNL     1      10.857   5.834   5.433  0.00  0.00    +0.109 C 
ATOM      9  C   UNL     1      12.306   7.602   6.002  0.00  0.00    +0.118 C 
ATOM     12  C   UNL     1      10.235   7.283   2.320  0.00  0.00    +0.242 C 
ATOM     13  C   UNL     1      10.795   8.599   2.815  0.00  0.00    +0.256 C 
ENDROOT
BRANCH   3  10
ATOM     10  C   UNL     1      11.232   6.331   7.781  0.00  0.00    +0.087 C 
BRANCH  10  11
ATOM     11  C   UNL     1       9.741   5.947   7.789  0.00  0.00    -0.003 C 
ATOM     15  C   UNL     1       8.829   7.140   8.090  0.00  0.00    +0.008 C 
ATOM     16  C   UNL     1       9.498   4.841   8.819  0.00  0.00    +0.008 C 
ENDBRANCH  10  11
ENDBRANCH   3  10
BRANCH   4  14
ATOM     14  C   UNL     1      10.342   4.824   2.505  0.00  0.00    +0.143 C 
BRANCH  14  17
ATOM      5  N   UNL     1      13.055   3.264  -0.437  0.00  0.00    -0.263 NA
ATOM     17  C   UNL     1      11.289   4.278   1.478  0.00  0.00    -0.027 A 
ATOM     18  C   UNL     1      12.503   3.726   1.872  0.00  0.00    +0.025 A 
ATOM     19  C   UNL     1      10.957   4.324   0.128  0.00  0.00    +0.025 A 
ATOM     20  C   UNL     1      13.343   3.237   0.884  0.00  0.00    +0.111 A 
ATOM     21  C   UNL     1      11.867   3.808  -0.782  0.00  0.00    +0.111 A 
ENDBRANCH  14  17
ENDBRANCH   4  14
TORSDOF 4
ENDMDL
MODEL 9
REMARK VINA RESULT:      -5.1     29.175     31.804
REMARK  Name = 56775024
REMARK  6 active torsions:
REMARK  status: ('A' for Active; 'I' for Inactive)
REMARK    1  A    between atoms: N_3  and  C_10
REMARK    2  A    between atoms: N_4  and  C_14
REMARK    3  A    between atoms: C_10  and  C_11
REMARK    4  A    between atoms: C_11  and  C_15
REMARK    5  A    between atoms: C_11  and  C_16
REMARK    6  A    between atoms: C_14  and  C_17
REMARK                            x       y       z     vdW  Elec       q    Type
REMARK                         _______ _______ _______ _____ _____    ______ ____
ROOT
ATOM      1  O   UNL     1     -16.013   3.868  33.803  0.00  0.00    -0.364 OA
ATOM      2  O   UNL     1     -16.853   7.279  33.523  0.00  0.00    -0.273 OA
ATOM      3  N   UNL     1     -13.610   2.975  31.733  0.00  0.00    -0.298 NA
ATOM      4  N   UNL     1     -14.904   6.201  32.847  0.00  0.00    -0.288 N 
ATOM      6  C   UNL     1     -14.124   4.969  32.782  0.00  0.00    +0.120 C 
ATOM      7  C   UNL     1     -14.591   3.860  33.720  0.00  0.00    +0.154 C 
ATOM      8  C   UNL     1     -14.185   4.282  31.420  0.00  0.00    +0.109 C 
ATOM      9  C   UNL     1     -14.170   2.560  33.027  0.00  0.00    +0.118 C 
ATOM     12  C   UNL     1     -16.120   6.289  33.519  0.00  0.00    +0.242 C 
ATOM     13  C   UNL     1     -16.480   5.078  34.352  0.00  0.00    +0.256 C 
ENDROOT
BRANCH   3  10
ATOM     10  C   UNL     1     -13.832   1.995  30.681  0.00  0.00    +0.087 C 
BRANCH  10  11
ATOM     11  C   UNL     1     -15.158   1.234  30.858  0.00  0.00    -0.003 C 
ATOM     15  C   UNL     1     -14.957  -0.280  30.961  0.00  0.00    +0.008 C 
ATOM     16  C   UNL     1     -16.095   1.551  29.690  0.00  0.00    +0.008 C 
ENDBRANCH  10  11
ENDBRANCH   3  10
BRANCH   4  14
ATOM     14  C   UNL     1     -14.406   7.342  32.088  0.00  0.00    +0.143 C 
BRANCH  14  17
ATOM      5  N   UNL     1     -11.229   9.377  34.142  0.00  0.00    -0.263 NA
ATOM     17  C   UNL     1     -13.296   8.052  32.806  0.00  0.00    -0.027 A 
ATOM     18  C   UNL     1     -13.355   8.226  34.184  0.00  0.00    +0.025 A 
ATOM     19  C   UNL     1     -12.205   8.541  32.095  0.00  0.00    +0.025 A 
ATOM     20  C   UNL     1     -12.305   8.889  34.799  0.00  0.00    +0.111 A 
ATOM     21  C   UNL     1     -11.207   9.191  32.803  0.00  0.00    +0.111 A 
ENDBRANCH  14  17
ENDBRANCH   4  14
TORSDOF 4
ENDMDL
MODEL 10
REMARK VINA RESULT:      -5.0     30.732     32.502
REMARK  Name = 56775024
REMARK  6 active torsions:
REMARK  status: ('A' for Active; 'I' for Inactive)
REMARK    1  A    between atoms: N_3  and  C_10
REMARK    2  A    between atoms: N_4  and  C_14
REMARK    3  A    between atoms: C_10  and  C_11
REMARK    4  A    between atoms: C_11  and  C_15
REMARK    5  A    between atoms: C_11  and  C_16
REMARK    6  A    between atoms: C_14  and  C_17
REMARK                            x       y       z     vdW  Elec       q    Type
REMARK                         _______ _______ _______ _____ _____    ______ ____
ROOT
ATOM      1  O   UNL     1     -13.983   3.309  33.133  0.00  0.00    -0.364 OA
ATOM      2  O   UNL     1     -16.393   5.425  34.591  0.00  0.00    -0.273 OA
ATOM      3  N   UNL     1     -14.618   2.644  29.969  0.00  0.00    -0.298 NA
ATOM      4  N   UNL     1     -15.916   5.101  32.336  0.00  0.00    -0.288 N 
ATOM      6  C   UNL     1     -15.087   4.459  31.321  0.00  0.00    +0.120 C 
ATOM      7  C   UNL     1     -13.779   3.866  31.838  0.00  0.00    +0.154 C 
ATOM      8  C   UNL     1     -15.750   3.248  30.670  0.00  0.00    +0.109 C 
ATOM      9  C   UNL     1     -13.465   2.715  30.877  0.00  0.00    +0.118 C 
ATOM     12  C   UNL     1     -15.670   4.977  33.700  0.00  0.00    +0.242 C 
ATOM     13  C   UNL     1     -14.363   4.302  34.056  0.00  0.00    +0.256 C 
ENDROOT
BRANCH   3  10
ATOM     10  C   UNL     1     -14.896   1.292  29.513  0.00  0.00    +0.087 C 
BRANCH  10  11
ATOM     11  C   UNL     1     -14.153   0.228  30.342  0.00  0.00    -0.003 C 
ATOM     15  C   UNL     1     -13.429  -0.799  29.468  0.00  0.00    +0.008 C 
ATOM     16  C   UNL     1     -15.142  -0.489  31.266  0.00  0.00    +0.008 C 
ENDBRANCH  10  11
ENDBRANCH   3  10
BRANCH   4  14
ATOM     14  C   UNL     1     -17.096   5.818  31.870  0.00  0.00    +0.143 C 
BRANCH  14  17
ATOM      5  N   UNL     1     -16.070   9.155  29.366  0.00  0.00    -0.263 NA
ATOM     17  C   UNL     1     -16.737   6.984  30.996  0.00  0.00    -0.027 A 
ATOM     18  C   UNL     1     -15.949   8.014  31.495  0.00  0.00    +0.025 A 
ATOM     19  C   UNL     1     -17.193   7.037  29.683  0.00  0.00    +0.025 A 
ATOM     20  C   UNL     1     -15.646   9.068  30.648  0.00  0.00    +0.111 A 
ATOM     21  C   UNL     1     -16.835   8.135  28.916  0.00  0.00    +0.111 A 
ENDBRANCH  14  17
ENDBRANCH   4  14
TORSDOF 4
ENDMDL
