MODEL 1
REMARK VINA RESULT:      -7.1      0.000      0.000
REMARK  Name = 7134352
REMARK  12 active torsions:
REMARK  status: ('A' for Active; 'I' for Inactive)
REMARK    1  A    between atoms: S_1  and  N_12
REMARK    2  A    between atoms: S_1  and  C_23
REMARK    3  A    between atoms: O_7  and  C_22
REMARK    4  A    between atoms: O_7  and  C_29
REMARK    5  A    between atoms: O_9  and  C_31
REMARK    6  A    between atoms: N_12  and  C_15
REMARK    7  A    between atoms: N_13  and  C_24
REMARK    8  A    between atoms: C_17  and  C_20
REMARK    9  A    between atoms: C_21  and  C_22
REMARK   10  A    between atoms: C_24  and  C_25
REMARK   11  A    between atoms: C_25  and  C_30
REMARK   12  A    between atoms: C_29  and  C_31
REMARK                            x       y       z     vdW  Elec       q    Type
REMARK                         _______ _______ _______ _____ _____    ______ ____
ROOT
ATOM      4  O   UNL     1      11.975   5.998  19.755  0.00  0.00    -0.273 OA
ATOM     11  N   UNL     1      12.282   8.144  20.604  0.00  0.00    -0.288 N 
ATOM     15  C   UNL     1      11.490  10.188  22.523  0.00  0.00    +0.080 C 
ATOM     16  C   UNL     1      11.995  10.577  21.133  0.00  0.00    +0.052 C 
ATOM     17  C   UNL     1      12.858   9.493  20.483  0.00  0.00    +0.163 C 
ATOM     18  C   UNL     1      10.813   8.822  22.484  0.00  0.00    +0.039 C 
ATOM     19  C   UNL     1      11.759   7.768  21.924  0.00  0.00    +0.110 C 
ATOM     21  C   UNL     1      12.339   7.167  19.603  0.00  0.00    +0.242 C 
ENDROOT
BRANCH  17  20
ATOM      3  O   UNL     1      14.613  10.248  21.916  0.00  0.00    -0.274 OA
ATOM     13  N   UNL     1      14.989   8.400  20.552  0.00  0.00    -0.313 N 
ATOM     20  C   UNL     1      14.234   9.435  21.077  0.00  0.00    +0.234 C 
ATOM     33  H   UNL     1      14.565   7.746  19.902  0.00  0.00    +0.149 HD
BRANCH  13  24
ATOM     24  C   UNL     1      16.356   8.142  20.942  0.00  0.00    +0.113 C 
BRANCH  24  25
ATOM     25  C   UNL     1      16.708   6.662  20.863  0.00  0.00    +0.114 C 
BRANCH  25  30
ATOM      8  O   UNL     1      15.991   6.095  18.613  0.00  0.00    -0.276 OA
ATOM     14  N   UNL     1      18.195   5.782  19.187  0.00  0.00    -0.329 N 
ATOM     30  C   UNL     1      16.895   6.163  19.441  0.00  0.00    +0.212 C 
ATOM     34  H   UNL     1      18.466   5.426  18.276  0.00  0.00    +0.145 HD
ATOM     35  H   UNL     1      18.926   5.845  19.888  0.00  0.00    +0.145 HD
ENDBRANCH  25  30
ENDBRANCH  24  25
ENDBRANCH  13  24
ENDBRANCH  17  20
BRANCH  15  12
ATOM     12  N   UNL     1      10.520  11.208  22.994  0.00  0.00    -0.186 NA
ATOM     32  H   UNL     1       9.531  10.999  22.812  0.00  0.00    +0.148 HD
BRANCH  12   1
ATOM      1  S   UNL     1      10.917  12.094  24.401  0.00  0.00    +0.065 S 
ATOM      5  O   UNL     1      10.790  11.235  25.563  0.00  0.00    -0.153 OA
ATOM      6  O   UNL     1      10.260  13.385  24.343  0.00  0.00    -0.153 OA
BRANCH   1  23
ATOM      2  S   UNL     1      13.046  13.719  23.157  0.00  0.00    -0.077 S 
ATOM     23  C   UNL     1      12.660  12.501  24.297  0.00  0.00    +0.142 A 
ATOM     26  C   UNL     1      13.777  12.033  24.952  0.00  0.00    +0.036 A 
ATOM     27  C   UNL     1      14.967  12.682  24.513  0.00  0.00    +0.010 A 
ATOM     28  C   UNL     1      14.713  13.622  23.538  0.00  0.00    +0.047 A 
ENDBRANCH   1  23
ENDBRANCH  12   1
ENDBRANCH  15  12
BRANCH  21  22
ATOM     22  C   UNL     1      12.873   7.600  18.260  0.00  0.00    +0.256 C 
BRANCH  22   7
ATOM      7  O   UNL     1      11.790   7.554  17.363  0.00  0.00    -0.359 OA
BRANCH   7  29
ATOM     29  C   UNL     1      11.460   8.846  16.855  0.00  0.00    +0.280 C 
BRANCH  29  31
ATOM     10  O   UNL     1      13.092   8.742  15.058  0.00  0.00    -0.248 OA
ATOM     31  C   UNL     1      12.577   9.350  15.985  0.00  0.00    +0.331 C 
BRANCH  31   9
ATOM      9  O   UNL     1      12.943  10.598  16.369  0.00  0.00    -0.479 OA
ATOM     36  H   UNL     1      12.283  11.006  16.969  0.00  0.00    +0.295 HD
ENDBRANCH  31   9
ENDBRANCH  29  31
ENDBRANCH   7  29
ENDBRANCH  22   7
ENDBRANCH  21  22
TORSDOF 12
ENDMDL
MODEL 2
REMARK VINA RESULT:      -6.9      4.647      8.111
REMARK  Name = 7134352
REMARK  12 active torsions:
REMARK  status: ('A' for Active; 'I' for Inactive)
REMARK    1  A    between atoms: S_1  and  N_12
REMARK    2  A    between atoms: S_1  and  C_23
REMARK    3  A    between atoms: O_7  and  C_22
REMARK    4  A    between atoms: O_7  and  C_29
REMARK    5  A    between atoms: O_9  and  C_31
REMARK    6  A    between atoms: N_12  and  C_15
REMARK    7  A    between atoms: N_13  and  C_24
REMARK    8  A    between atoms: C_17  and  C_20
REMARK    9  A    between atoms: C_21  and  C_22
REMARK   10  A    between atoms: C_24  and  C_25
REMARK   11  A    between atoms: C_25  and  C_30
REMARK   12  A    between atoms: C_29  and  C_31
REMARK                            x       y       z     vdW  Elec       q    Type
REMARK                         _______ _______ _______ _____ _____    ______ ____
ROOT
ATOM      4  O   UNL     1      13.374   6.652  19.317  0.00  0.00    -0.273 OA
ATOM     11  N   UNL     1      15.534   6.954  20.132  0.00  0.00    -0.288 N 
ATOM     15  C   UNL     1      18.359   6.260  19.984  0.00  0.00    +0.080 C 
ATOM     16  C   UNL     1      17.716   6.626  21.321  0.00  0.00    +0.052 C 
ATOM     17  C   UNL     1      16.446   7.468  21.167  0.00  0.00    +0.163 C 
ATOM     18  C   UNL     1      17.332   5.632  19.048  0.00  0.00    +0.039 C 
ATOM     19  C   UNL     1      16.141   6.563  18.854  0.00  0.00    +0.110 C 
ATOM     21  C   UNL     1      14.137   6.959  20.237  0.00  0.00    +0.242 C 
ENDROOT
BRANCH  17  20
ATOM      3  O   UNL     1      17.803   9.433  21.148  0.00  0.00    -0.274 OA
ATOM     13  N   UNL     1      15.725   9.488  20.099  0.00  0.00    -0.313 N 
ATOM     20  C   UNL     1      16.753   8.892  20.809  0.00  0.00    +0.234 C 
ATOM     33  H   UNL     1      14.920   8.937  19.819  0.00  0.00    +0.149 HD
BRANCH  13  24
ATOM     24  C   UNL     1      15.764  10.862  19.655  0.00  0.00    +0.113 C 
BRANCH  24  25
ATOM     25  C   UNL     1      14.587  11.210  18.755  0.00  0.00    +0.114 C 
BRANCH  25  30
ATOM      8  O   UNL     1      14.540   9.317  17.235  0.00  0.00    -0.276 OA
ATOM     14  N   UNL     1      12.681   9.760  18.513  0.00  0.00    -0.329 N 
ATOM     30  C   UNL     1      13.968  10.000  18.079  0.00  0.00    +0.212 C 
ATOM     34  H   UNL     1      12.143   8.982  18.144  0.00  0.00    +0.145 HD
ATOM     35  H   UNL     1      12.226  10.340  19.210  0.00  0.00    +0.145 HD
ENDBRANCH  25  30
ENDBRANCH  24  25
ENDBRANCH  13  24
ENDBRANCH  17  20
BRANCH  15  12
ATOM     12  N   UNL     1      19.465   5.298  20.220  0.00  0.00    -0.186 NA
ATOM     32  H   UNL     1      19.634   4.620  19.467  0.00  0.00    +0.148 HD
BRANCH  12   1
ATOM      1  S   UNL     1      20.799   5.831  21.148  0.00  0.00    +0.065 S 
ATOM      5  O   UNL     1      20.387   6.003  22.528  0.00  0.00    -0.153 OA
ATOM      6  O   UNL     1      21.478   6.890  20.427  0.00  0.00    -0.153 OA
BRANCH   1  23
ATOM      2  S   UNL     1      23.603   4.982  21.508  0.00  0.00    -0.077 S 
ATOM     23  C   UNL     1      21.997   4.498  21.169  0.00  0.00    +0.142 A 
ATOM     26  C   UNL     1      21.898   3.139  20.966  0.00  0.00    +0.036 A 
ATOM     27  C   UNL     1      23.158   2.487  21.090  0.00  0.00    +0.010 A 
ATOM     28  C   UNL     1      24.172   3.371  21.384  0.00  0.00    +0.047 A 
ENDBRANCH   1  23
ENDBRANCH  12   1
ENDBRANCH  15  12
BRANCH  21  22
ATOM     22  C   UNL     1      13.557   7.357  21.571  0.00  0.00    +0.256 C 
BRANCH  22   7
ATOM      7  O   UNL     1      12.962   8.619  21.390  0.00  0.00    -0.359 OA
BRANCH   7  29
ATOM     29  C   UNL     1      11.682   8.702  22.013  0.00  0.00    +0.280 C 
BRANCH  29  31
ATOM     10  O   UNL     1      10.504   8.334  19.919  0.00  0.00    -0.248 OA
ATOM     31  C   UNL     1      10.639   8.101  21.112  0.00  0.00    +0.331 C 
BRANCH  31   9
ATOM      9  O   UNL     1       9.851   7.247  21.812  0.00  0.00    -0.479 OA
ATOM     36  H   UNL     1       8.904   7.501  21.767  0.00  0.00    +0.295 HD
ENDBRANCH  31   9
ENDBRANCH  29  31
ENDBRANCH   7  29
ENDBRANCH  22   7
ENDBRANCH  21  22
TORSDOF 12
ENDMDL
MODEL 3
REMARK VINA RESULT:      -6.2      4.025      7.069
REMARK  Name = 7134352
REMARK  12 active torsions:
REMARK  status: ('A' for Active; 'I' for Inactive)
REMARK    1  A    between atoms: S_1  and  N_12
REMARK    2  A    between atoms: S_1  and  C_23
REMARK    3  A    between atoms: O_7  and  C_22
REMARK    4  A    between atoms: O_7  and  C_29
REMARK    5  A    between atoms: O_9  and  C_31
REMARK    6  A    between atoms: N_12  and  C_15
REMARK    7  A    between atoms: N_13  and  C_24
REMARK    8  A    between atoms: C_17  and  C_20
REMARK    9  A    between atoms: C_21  and  C_22
REMARK   10  A    between atoms: C_24  and  C_25
REMARK   11  A    between atoms: C_25  and  C_30
REMARK   12  A    between atoms: C_29  and  C_31
REMARK                            x       y       z     vdW  Elec       q    Type
REMARK                         _______ _______ _______ _____ _____    ______ ____
ROOT
ATOM      4  O   UNL     1      13.047  10.339  21.506  0.00  0.00    -0.273 OA
ATOM     11  N   UNL     1      13.195   9.970  19.212  0.00  0.00    -0.288 N 
ATOM     15  C   UNL     1      14.011  10.944  16.591  0.00  0.00    +0.080 C 
ATOM     16  C   UNL     1      12.787  10.041  16.740  0.00  0.00    +0.052 C 
ATOM     17  C   UNL     1      12.815   9.198  18.017  0.00  0.00    +0.163 C 
ATOM     18  C   UNL     1      14.224  11.773  17.853  0.00  0.00    +0.039 C 
ATOM     19  C   UNL     1      14.347  10.870  19.074  0.00  0.00    +0.110 C 
ATOM     21  C   UNL     1      12.634   9.788  20.482  0.00  0.00    +0.242 C 
ENDROOT
BRANCH  17  20
ATOM      3  O   UNL     1      13.947   7.440  16.863  0.00  0.00    -0.274 OA
ATOM     13  N   UNL     1      14.391   7.772  19.124  0.00  0.00    -0.313 N 
ATOM     20  C   UNL     1      13.775   8.050  17.915  0.00  0.00    +0.234 C 
ATOM     33  H   UNL     1      14.222   8.372  19.925  0.00  0.00    +0.149 HD
BRANCH  13  24
ATOM     24  C   UNL     1      15.343   6.699  19.298  0.00  0.00    +0.113 C 
BRANCH  24  25
ATOM     25  C   UNL     1      16.372   7.012  20.375  0.00  0.00    +0.114 C 
BRANCH  25  30
ATOM      8  O   UNL     1      16.098   9.095  21.593  0.00  0.00    -0.276 OA
ATOM     14  N   UNL     1      15.023   7.212  22.359  0.00  0.00    -0.329 N 
ATOM     30  C   UNL     1      15.834   7.901  21.482  0.00  0.00    +0.212 C 
ATOM     34  H   UNL     1      14.594   7.681  23.150  0.00  0.00    +0.145 HD
ATOM     35  H   UNL     1      14.821   6.224  22.249  0.00  0.00    +0.145 HD
ENDBRANCH  25  30
ENDBRANCH  24  25
ENDBRANCH  13  24
ENDBRANCH  17  20
BRANCH  15  12
ATOM     12  N   UNL     1      13.811  11.851  15.433  0.00  0.00    -0.186 NA
ATOM     32  H   UNL     1      13.557  12.819  15.664  0.00  0.00    +0.148 HD
BRANCH  12   1
ATOM      1  S   UNL     1      14.750  11.570  14.031  0.00  0.00    +0.065 S 
ATOM      5  O   UNL     1      13.973  11.913  12.855  0.00  0.00    -0.153 OA
ATOM      6  O   UNL     1      15.402  10.281  14.155  0.00  0.00    -0.153 OA
BRANCH   1  23
ATOM      2  S   UNL     1      17.417  12.290  15.072  0.00  0.00    -0.077 S 
ATOM     23  C   UNL     1      16.111  12.737  14.061  0.00  0.00    +0.142 A 
ATOM     26  C   UNL     1      16.333  13.941  13.431  0.00  0.00    +0.036 A 
ATOM     27  C   UNL     1      17.593  14.505  13.783  0.00  0.00    +0.010 A 
ATOM     28  C   UNL     1      18.286  13.710  14.669  0.00  0.00    +0.047 A 
ENDBRANCH   1  23
ENDBRANCH  12   1
ENDBRANCH  15  12
BRANCH  21  22
ATOM     22  C   UNL     1      11.446   8.862  20.575  0.00  0.00    +0.256 C 
BRANCH  22   7
ATOM      7  O   UNL     1      11.540   8.212  21.819  0.00  0.00    -0.359 OA
BRANCH   7  29
ATOM     29  C   UNL     1      10.610   7.136  21.932  0.00  0.00    +0.280 C 
BRANCH  29  31
ATOM     10  O   UNL     1      10.674   4.802  21.259  0.00  0.00    -0.248 OA
ATOM     31  C   UNL     1      11.252   5.857  21.473  0.00  0.00    +0.331 C 
BRANCH  31   9
ATOM      9  O   UNL     1      12.589   6.033  21.320  0.00  0.00    -0.479 OA
ATOM     36  H   UNL     1      13.071   5.932  22.168  0.00  0.00    +0.295 HD
ENDBRANCH  31   9
ENDBRANCH  29  31
ENDBRANCH   7  29
ENDBRANCH  22   7
ENDBRANCH  21  22
TORSDOF 12
ENDMDL
MODEL 4
REMARK VINA RESULT:      -6.0      4.333      7.957
REMARK  Name = 7134352
REMARK  12 active torsions:
REMARK  status: ('A' for Active; 'I' for Inactive)
REMARK    1  A    between atoms: S_1  and  N_12
REMARK    2  A    between atoms: S_1  and  C_23
REMARK    3  A    between atoms: O_7  and  C_22
REMARK    4  A    between atoms: O_7  and  C_29
REMARK    5  A    between atoms: O_9  and  C_31
REMARK    6  A    between atoms: N_12  and  C_15
REMARK    7  A    between atoms: N_13  and  C_24
REMARK    8  A    between atoms: C_17  and  C_20
REMARK    9  A    between atoms: C_21  and  C_22
REMARK   10  A    between atoms: C_24  and  C_25
REMARK   11  A    between atoms: C_25  and  C_30
REMARK   12  A    between atoms: C_29  and  C_31
REMARK                            x       y       z     vdW  Elec       q    Type
REMARK                         _______ _______ _______ _____ _____    ______ ____
ROOT
ATOM      4  O   UNL     1      13.347  10.851  20.639  0.00  0.00    -0.273 OA
ATOM     11  N   UNL     1      13.275  10.148  18.421  0.00  0.00    -0.288 N 
ATOM     15  C   UNL     1      13.719  10.765  15.608  0.00  0.00    +0.080 C 
ATOM     16  C   UNL     1      12.595   9.818  16.031  0.00  0.00    +0.052 C 
ATOM     17  C   UNL     1      12.830   9.182  17.403  0.00  0.00    +0.163 C 
ATOM     18  C   UNL     1      14.000  11.787  16.705  0.00  0.00    +0.039 C 
ATOM     19  C   UNL     1      14.328  11.090  18.019  0.00  0.00    +0.110 C 
ATOM     21  C   UNL     1      12.872  10.126  19.762  0.00  0.00    +0.242 C 
ENDROOT
BRANCH  17  20
ATOM      3  O   UNL     1      14.140   7.512  16.307  0.00  0.00    -0.274 OA
ATOM     13  N   UNL     1      14.417   7.839  18.596  0.00  0.00    -0.313 N 
ATOM     20  C   UNL     1      13.864   8.095  17.353  0.00  0.00    +0.234 C 
ATOM     33  H   UNL     1      14.160   8.416  19.391  0.00  0.00    +0.149 HD
BRANCH  13  24
ATOM     24  C   UNL     1      15.419   6.823  18.821  0.00  0.00    +0.113 C 
BRANCH  24  25
ATOM     25  C   UNL     1      15.801   6.707  20.290  0.00  0.00    +0.114 C 
BRANCH  25  30
ATOM      8  O   UNL     1      16.339   9.063  20.529  0.00  0.00    -0.276 OA
ATOM     14  N   UNL     1      15.289   7.983  22.266  0.00  0.00    -0.329 N 
ATOM     30  C   UNL     1      15.849   8.044  21.007  0.00  0.00    +0.212 C 
ATOM     34  H   UNL     1      15.254   8.804  22.861  0.00  0.00    +0.145 HD
ATOM     35  H   UNL     1      14.892   7.128  22.642  0.00  0.00    +0.145 HD
ENDBRANCH  25  30
ENDBRANCH  24  25
ENDBRANCH  13  24
ENDBRANCH  17  20
BRANCH  15  12
ATOM     12  N   UNL     1      13.322  11.471  14.365  0.00  0.00    -0.186 NA
ATOM     32  H   UNL     1      12.421  11.963  14.400  0.00  0.00    +0.148 HD
BRANCH  12   1
ATOM      1  S   UNL     1      14.566  12.123  13.389  0.00  0.00    +0.065 S 
ATOM      5  O   UNL     1      15.528  11.084  13.077  0.00  0.00    -0.153 OA
ATOM      6  O   UNL     1      14.983  13.394  13.949  0.00  0.00    -0.153 OA
BRANCH   1  23
ATOM      2  S   UNL     1      12.115  12.541  11.796  0.00  0.00    -0.077 S 
ATOM     23  C   UNL     1      13.826  12.576  11.819  0.00  0.00    +0.142 A 
ATOM     26  C   UNL     1      14.353  12.952  10.604  0.00  0.00    +0.036 A 
ATOM     27  C   UNL     1      13.338  13.215   9.639  0.00  0.00    +0.010 A 
ATOM     28  C   UNL     1      12.074  13.031  10.155  0.00  0.00    +0.047 A 
ENDBRANCH   1  23
ENDBRANCH  12   1
ENDBRANCH  15  12
BRANCH  21  22
ATOM     22  C   UNL     1      11.780   9.151  20.127  0.00  0.00    +0.256 C 
BRANCH  22   7
ATOM      7  O   UNL     1      12.413   8.042  20.718  0.00  0.00    -0.359 OA
BRANCH   7  29
ATOM     29  C   UNL     1      11.818   7.688  21.966  0.00  0.00    +0.280 C 
BRANCH  29  31
ATOM     10  O   UNL     1      10.929   5.516  21.335  0.00  0.00    -0.248 OA
ATOM     31  C   UNL     1      10.750   6.654  21.744  0.00  0.00    +0.331 C 
BRANCH  31   9
ATOM      9  O   UNL     1       9.533   7.160  22.066  0.00  0.00    -0.479 OA
ATOM     36  H   UNL     1       9.540   7.600  22.943  0.00  0.00    +0.295 HD
ENDBRANCH  31   9
ENDBRANCH  29  31
ENDBRANCH   7  29
ENDBRANCH  22   7
ENDBRANCH  21  22
TORSDOF 12
ENDMDL
MODEL 5
REMARK VINA RESULT:      -5.8     15.428     19.852
REMARK  Name = 7134352
REMARK  12 active torsions:
REMARK  status: ('A' for Active; 'I' for Inactive)
REMARK    1  A    between atoms: S_1  and  N_12
REMARK    2  A    between atoms: S_1  and  C_23
REMARK    3  A    between atoms: O_7  and  C_22
REMARK    4  A    between atoms: O_7  and  C_29
REMARK    5  A    between atoms: O_9  and  C_31
REMARK    6  A    between atoms: N_12  and  C_15
REMARK    7  A    between atoms: N_13  and  C_24
REMARK    8  A    between atoms: C_17  and  C_20
REMARK    9  A    between atoms: C_21  and  C_22
REMARK   10  A    between atoms: C_24  and  C_25
REMARK   11  A    between atoms: C_25  and  C_30
REMARK   12  A    between atoms: C_29  and  C_31
REMARK                            x       y       z     vdW  Elec       q    Type
REMARK                         _______ _______ _______ _____ _____    ______ ____
ROOT
ATOM      4  O   UNL     1       8.947   8.212   3.755  0.00  0.00    -0.273 OA
ATOM     11  N   UNL     1      10.421   6.658   2.840  0.00  0.00    -0.288 N 
ATOM     15  C   UNL     1      11.184   5.005   0.566  0.00  0.00    +0.080 C 
ATOM     16  C   UNL     1      11.444   4.532   1.996  0.00  0.00    +0.052 C 
ATOM     17  C   UNL     1      11.508   5.680   3.007  0.00  0.00    +0.163 C 
ATOM     18  C   UNL     1       9.963   5.918   0.517  0.00  0.00    +0.039 C 
ATOM     19  C   UNL     1      10.134   7.096   1.468  0.00  0.00    +0.110 C 
ATOM     21  C   UNL     1       9.762   7.296   3.899  0.00  0.00    +0.242 C 
ENDROOT
BRANCH  17  20
ATOM      3  O   UNL     1      13.344   6.664   1.839  0.00  0.00    -0.274 OA
ATOM     13  N   UNL     1      13.274   6.815   4.161  0.00  0.00    -0.313 N 
ATOM     20  C   UNL     1      12.798   6.441   2.917  0.00  0.00    +0.234 C 
ATOM     33  H   UNL     1      12.718   6.631   4.991  0.00  0.00    +0.149 HD
BRANCH  13  24
ATOM     24  C   UNL     1      14.511   7.539   4.349  0.00  0.00    +0.113 C 
BRANCH  24  25
ATOM     25  C   UNL     1      15.001   7.477   5.790  0.00  0.00    +0.114 C 
BRANCH  25  30
ATOM      8  O   UNL     1      13.051   8.249   7.014  0.00  0.00    -0.276 OA
ATOM     14  N   UNL     1      13.894   6.161   7.475  0.00  0.00    -0.329 N 
ATOM     30  C   UNL     1      13.876   7.366   6.804  0.00  0.00    +0.212 C 
ATOM     34  H   UNL     1      13.201   5.949   8.185  0.00  0.00    +0.145 HD
ATOM     35  H   UNL     1      14.588   5.445   7.286  0.00  0.00    +0.145 HD
ENDBRANCH  25  30
ENDBRANCH  24  25
ENDBRANCH  13  24
ENDBRANCH  17  20
BRANCH  15  12
ATOM     12  N   UNL     1      10.954   3.826  -0.305  0.00  0.00    -0.186 NA
ATOM     32  H   UNL     1       9.974   3.546  -0.427  0.00  0.00    +0.148 HD
BRANCH  12   1
ATOM      1  S   UNL     1      12.038   3.573  -1.604  0.00  0.00    +0.065 S 
ATOM      5  O   UNL     1      11.790   4.560  -2.637  0.00  0.00    -0.153 OA
ATOM      6  O   UNL     1      12.081   2.156  -1.909  0.00  0.00    -0.153 OA
BRANCH   1  23
ATOM      2  S   UNL     1      14.683   4.796  -2.079  0.00  0.00    -0.077 S 
ATOM     23  C   UNL     1      13.687   3.923  -0.994  0.00  0.00    +0.142 A 
ATOM     26  C   UNL     1      14.336   3.634   0.186  0.00  0.00    +0.036 A 
ATOM     27  C   UNL     1      15.670   4.135   0.199  0.00  0.00    +0.010 A 
ATOM     28  C   UNL     1      15.989   4.788  -0.970  0.00  0.00    +0.047 A 
ENDBRANCH   1  23
ENDBRANCH  12   1
ENDBRANCH  15  12
BRANCH  21  22
ATOM     22  C   UNL     1      10.080   6.808   5.290  0.00  0.00    +0.256 C 
BRANCH  22   7
ATOM      7  O   UNL     1       9.102   5.848   5.611  0.00  0.00    -0.359 OA
BRANCH   7  29
ATOM     29  C   UNL     1       9.669   4.689   6.220  0.00  0.00    +0.280 C 
BRANCH  29  31
ATOM     10  O   UNL     1       9.302   5.828   8.335  0.00  0.00    -0.248 OA
ATOM     31  C   UNL     1       9.787   4.900   7.703  0.00  0.00    +0.331 C 
BRANCH  31   9
ATOM      9  O   UNL     1      10.516   3.902   8.263  0.00  0.00    -0.479 OA
ATOM     36  H   UNL     1      10.889   4.163   9.132  0.00  0.00    +0.295 HD
ENDBRANCH  31   9
ENDBRANCH  29  31
ENDBRANCH   7  29
ENDBRANCH  22   7
ENDBRANCH  21  22
TORSDOF 12
ENDMDL
MODEL 6
REMARK VINA RESULT:      -5.7      4.279      7.383
REMARK  Name = 7134352
REMARK  12 active torsions:
REMARK  status: ('A' for Active; 'I' for Inactive)
REMARK    1  A    between atoms: S_1  and  N_12
REMARK    2  A    between atoms: S_1  and  C_23
REMARK    3  A    between atoms: O_7  and  C_22
REMARK    4  A    between atoms: O_7  and  C_29
REMARK    5  A    between atoms: O_9  and  C_31
REMARK    6  A    between atoms: N_12  and  C_15
REMARK    7  A    between atoms: N_13  and  C_24
REMARK    8  A    between atoms: C_17  and  C_20
REMARK    9  A    between atoms: C_21  and  C_22
REMARK   10  A    between atoms: C_24  and  C_25
REMARK   11  A    between atoms: C_25  and  C_30
REMARK   12  A    between atoms: C_29  and  C_31
REMARK                            x       y       z     vdW  Elec       q    Type
REMARK                         _______ _______ _______ _____ _____    ______ ____
ROOT
ATOM      4  O   UNL     1      15.756   6.447  18.709  0.00  0.00    -0.273 OA
ATOM     11  N   UNL     1      14.270   8.134  18.106  0.00  0.00    -0.288 N 
ATOM     15  C   UNL     1      13.023   9.702  15.991  0.00  0.00    +0.080 C 
ATOM     16  C   UNL     1      13.299  10.321  17.361  0.00  0.00    +0.052 C 
ATOM     17  C   UNL     1      13.424   9.281  18.476  0.00  0.00    +0.163 C 
ATOM     18  C   UNL     1      14.041   8.609  15.682  0.00  0.00    +0.039 C 
ATOM     19  C   UNL     1      14.043   7.551  16.778  0.00  0.00    +0.110 C 
ATOM     21  C   UNL     1      15.151   7.487  18.981  0.00  0.00    +0.242 C 
ENDROOT
BRANCH  17  20
ATOM      3  O   UNL     1      11.351   8.163  18.080  0.00  0.00    -0.274 OA
ATOM     13  N   UNL     1      11.814   8.952  20.221  0.00  0.00    -0.313 N 
ATOM     20  C   UNL     1      12.091   8.727  18.883  0.00  0.00    +0.234 C 
ATOM     33  H   UNL     1      12.518   9.379  20.816  0.00  0.00    +0.149 HD
BRANCH  13  24
ATOM     24  C   UNL     1      10.585   8.536  20.855  0.00  0.00    +0.113 C 
BRANCH  24  25
ATOM     25  C   UNL     1      10.815   7.458  21.906  0.00  0.00    +0.114 C 
BRANCH  25  30
ATOM      8  O   UNL     1      12.844   6.329  21.197  0.00  0.00    -0.276 OA
ATOM     14  N   UNL     1      10.861   5.167  21.171  0.00  0.00    -0.329 N 
ATOM     30  C   UNL     1      11.634   6.286  21.396  0.00  0.00    +0.212 C 
ATOM     34  H   UNL     1      11.276   4.307  20.826  0.00  0.00    +0.145 HD
ATOM     35  H   UNL     1       9.861   5.154  21.341  0.00  0.00    +0.145 HD
ENDBRANCH  25  30
ENDBRANCH  24  25
ENDBRANCH  13  24
ENDBRANCH  17  20
BRANCH  15  12
ATOM     12  N   UNL     1      13.103  10.758  14.951  0.00  0.00    -0.186 NA
ATOM     32  H   UNL     1      12.255  11.323  14.822  0.00  0.00    +0.148 HD
BRANCH  12   1
ATOM      1  S   UNL     1      14.621  11.502  14.688  0.00  0.00    +0.065 S 
ATOM      5  O   UNL     1      15.146  11.085  13.402  0.00  0.00    -0.153 OA
ATOM      6  O   UNL     1      15.412  11.391  15.898  0.00  0.00    -0.153 OA
BRANCH   1  23
ATOM      2  S   UNL     1      13.318  13.713  13.229  0.00  0.00    -0.077 S 
ATOM     23  C   UNL     1      14.329  13.264  14.535  0.00  0.00    +0.142 A 
ATOM     26  C   UNL     1      14.753  14.356  15.260  0.00  0.00    +0.036 A 
ATOM     27  C   UNL     1      14.242  15.578  14.735  0.00  0.00    +0.010 A 
ATOM     28  C   UNL     1      13.446  15.374  13.630  0.00  0.00    +0.047 A 
ENDBRANCH   1  23
ENDBRANCH  12   1
ENDBRANCH  15  12
BRANCH  21  22
ATOM     22  C   UNL     1      15.362   8.127  20.331  0.00  0.00    +0.256 C 
BRANCH  22   7
ATOM      7  O   UNL     1      16.716   8.506  20.387  0.00  0.00    -0.359 OA
BRANCH   7  29
ATOM     29  C   UNL     1      17.335   8.100  21.607  0.00  0.00    +0.280 C 
BRANCH  29  31
ATOM     10  O   UNL     1      18.578   6.515  20.247  0.00  0.00    -0.248 OA
ATOM     31  C   UNL     1      18.387   7.065  21.322  0.00  0.00    +0.331 C 
BRANCH  31   9
ATOM      9  O   UNL     1      19.115   6.817  22.440  0.00  0.00    -0.479 OA
ATOM     36  H   UNL     1      18.812   6.007  22.903  0.00  0.00    +0.295 HD
ENDBRANCH  31   9
ENDBRANCH  29  31
ENDBRANCH   7  29
ENDBRANCH  22   7
ENDBRANCH  21  22
TORSDOF 12
ENDMDL
MODEL 7
REMARK VINA RESULT:      -5.7     26.681     29.608
REMARK  Name = 7134352
REMARK  12 active torsions:
REMARK  status: ('A' for Active; 'I' for Inactive)
REMARK    1  A    between atoms: S_1  and  N_12
REMARK    2  A    between atoms: S_1  and  C_23
REMARK    3  A    between atoms: O_7  and  C_22
REMARK    4  A    between atoms: O_7  and  C_29
REMARK    5  A    between atoms: O_9  and  C_31
REMARK    6  A    between atoms: N_12  and  C_15
REMARK    7  A    between atoms: N_13  and  C_24
REMARK    8  A    between atoms: C_17  and  C_20
REMARK    9  A    between atoms: C_21  and  C_22
REMARK   10  A    between atoms: C_24  and  C_25
REMARK   11  A    between atoms: C_25  and  C_30
REMARK   12  A    between atoms: C_29  and  C_31
REMARK                            x       y       z     vdW  Elec       q    Type
REMARK                         _______ _______ _______ _____ _____    ______ ____
ROOT
ATOM      4  O   UNL     1      -2.658 -12.497  11.560  0.00  0.00    -0.273 OA
ATOM     11  N   UNL     1      -3.948 -10.810  10.604  0.00  0.00    -0.288 N 
ATOM     15  C   UNL     1      -5.513  -9.870   8.334  0.00  0.00    +0.080 C 
ATOM     16  C   UNL     1      -4.716  -8.888   9.192  0.00  0.00    +0.052 C 
ATOM     17  C   UNL     1      -4.425  -9.417  10.598  0.00  0.00    +0.163 C 
ATOM     18  C   UNL     1      -4.848 -11.243   8.333  0.00  0.00    +0.039 C 
ATOM     19  C   UNL     1      -4.680 -11.760   9.756  0.00  0.00    +0.110 C 
ATOM     21  C   UNL     1      -2.960 -11.304  11.465  0.00  0.00    +0.242 C 
ENDROOT
BRANCH  17  20
ATOM      3  O   UNL     1      -6.706  -8.911  11.090  0.00  0.00    -0.274 OA
ATOM     13  N   UNL     1      -5.379  -9.859  12.752  0.00  0.00    -0.313 N 
ATOM     20  C   UNL     1      -5.635  -9.367  11.483  0.00  0.00    +0.234 C 
ATOM     33  H   UNL     1      -4.472 -10.266  12.961  0.00  0.00    +0.149 HD
BRANCH  13  24
ATOM     24  C   UNL     1      -6.372  -9.899  13.800  0.00  0.00    +0.113 C 
BRANCH  24  25
ATOM     25  C   UNL     1      -6.425 -11.255  14.491  0.00  0.00    +0.114 C 
BRANCH  25  30
ATOM      8  O   UNL     1      -6.247 -12.823  12.644  0.00  0.00    -0.276 OA
ATOM     14  N   UNL     1      -4.611 -12.819  14.259  0.00  0.00    -0.329 N 
ATOM     30  C   UNL     1      -5.780 -12.367  13.684  0.00  0.00    +0.212 C 
ATOM     34  H   UNL     1      -4.072 -13.564  13.829  0.00  0.00    +0.145 HD
ATOM     35  H   UNL     1      -4.244 -12.429  15.121  0.00  0.00    +0.145 HD
ENDBRANCH  25  30
ENDBRANCH  24  25
ENDBRANCH  13  24
ENDBRANCH  17  20
BRANCH  15  12
ATOM     12  N   UNL     1      -5.587  -9.357   6.943  0.00  0.00    -0.186 NA
ATOM     32  H   UNL     1      -4.780  -9.571   6.345  0.00  0.00    +0.148 HD
BRANCH  12   1
ATOM      1  S   UNL     1      -7.131  -9.251   6.215  0.00  0.00    +0.065 S 
ATOM      5  O   UNL     1      -7.641 -10.587   5.971  0.00  0.00    -0.153 OA
ATOM      6  O   UNL     1      -7.084  -8.257   5.161  0.00  0.00    -0.153 OA
BRANCH   1  23
ATOM      2  S   UNL     1      -8.180  -6.823   7.528  0.00  0.00    -0.077 S 
ATOM     23  C   UNL     1      -8.240  -8.531   7.426  0.00  0.00    +0.142 A 
ATOM     26  C   UNL     1      -9.147  -9.071   8.310  0.00  0.00    +0.036 A 
ATOM     27  C   UNL     1      -9.803  -8.069   9.082  0.00  0.00    +0.010 A 
ATOM     28  C   UNL     1      -9.372  -6.802   8.759  0.00  0.00    +0.047 A 
ENDBRANCH   1  23
ENDBRANCH  12   1
ENDBRANCH  15  12
BRANCH  21  22
ATOM     22  C   UNL     1      -2.227 -10.292  12.309  0.00  0.00    +0.256 C 
BRANCH  22   7
ATOM      7  O   UNL     1      -2.734 -10.417  13.616  0.00  0.00    -0.359 OA
BRANCH   7  29
ATOM     29  C   UNL     1      -1.696 -10.602  14.577  0.00  0.00    +0.280 C 
BRANCH  29  31
ATOM     10  O   UNL     1      -3.473 -10.576  16.235  0.00  0.00    -0.248 OA
ATOM     31  C   UNL     1      -2.292 -10.715  15.953  0.00  0.00    +0.331 C 
BRANCH  31   9
ATOM      9  O   UNL     1      -1.324 -10.998  16.861  0.00  0.00    -0.479 OA
ATOM     36  H   UNL     1      -1.407 -10.448  17.669  0.00  0.00    +0.295 HD
ENDBRANCH  31   9
ENDBRANCH  29  31
ENDBRANCH   7  29
ENDBRANCH  22   7
ENDBRANCH  21  22
TORSDOF 12
ENDMDL
MODEL 8
REMARK VINA RESULT:      -5.7     14.984     18.933
REMARK  Name = 7134352
REMARK  12 active torsions:
REMARK  status: ('A' for Active; 'I' for Inactive)
REMARK    1  A    between atoms: S_1  and  N_12
REMARK    2  A    between atoms: S_1  and  C_23
REMARK    3  A    between atoms: O_7  and  C_22
REMARK    4  A    between atoms: O_7  and  C_29
REMARK    5  A    between atoms: O_9  and  C_31
REMARK    6  A    between atoms: N_12  and  C_15
REMARK    7  A    between atoms: N_13  and  C_24
REMARK    8  A    between atoms: C_17  and  C_20
REMARK    9  A    between atoms: C_21  and  C_22
REMARK   10  A    between atoms: C_24  and  C_25
REMARK   11  A    between atoms: C_25  and  C_30
REMARK   12  A    between atoms: C_29  and  C_31
REMARK                            x       y       z     vdW  Elec       q    Type
REMARK                         _______ _______ _______ _____ _____    ______ ____
ROOT
ATOM      4  O   UNL     1       8.057   8.240   5.170  0.00  0.00    -0.273 OA
ATOM     11  N   UNL     1       9.532   6.816   4.065  0.00  0.00    -0.288 N 
ATOM     15  C   UNL     1      10.576   5.800   1.543  0.00  0.00    +0.080 C 
ATOM     16  C   UNL     1      10.498   4.898   2.774  0.00  0.00    +0.052 C 
ATOM     17  C   UNL     1      10.466   5.679   4.090  0.00  0.00    +0.163 C 
ATOM     18  C   UNL     1       9.481   6.860   1.586  0.00  0.00    +0.039 C 
ATOM     19  C   UNL     1       9.567   7.671   2.872  0.00  0.00    +0.110 C 
ATOM     21  C   UNL     1       8.737   7.210   5.149  0.00  0.00    +0.242 C 
ENDROOT
BRANCH  17  20
ATOM      3  O   UNL     1      12.671   6.456   3.603  0.00  0.00    -0.274 OA
ATOM     13  N   UNL     1      11.955   6.413   5.818  0.00  0.00    -0.313 N 
ATOM     20  C   UNL     1      11.814   6.229   4.453  0.00  0.00    +0.234 C 
ATOM     33  H   UNL     1      11.165   6.248   6.434  0.00  0.00    +0.149 HD
BRANCH  13  24
ATOM     24  C   UNL     1      13.167   6.912   6.427  0.00  0.00    +0.113 C 
BRANCH  24  25
ATOM     25  C   UNL     1      13.341   8.410   6.220  0.00  0.00    +0.114 C 
BRANCH  25  30
ATOM      8  O   UNL     1      11.461   9.299   7.474  0.00  0.00    -0.276 OA
ATOM     14  N   UNL     1      11.623   9.775   5.231  0.00  0.00    -0.329 N 
ATOM     30  C   UNL     1      12.055   9.197   6.405  0.00  0.00    +0.212 C 
ATOM     34  H   UNL     1      10.774  10.331   5.205  0.00  0.00    +0.145 HD
ATOM     35  H   UNL     1      12.130   9.675   4.357  0.00  0.00    +0.145 HD
ENDBRANCH  25  30
ENDBRANCH  24  25
ENDBRANCH  13  24
ENDBRANCH  17  20
BRANCH  15  12
ATOM     12  N   UNL     1      10.415   4.974   0.320  0.00  0.00    -0.186 NA
ATOM     32  H   UNL     1       9.456   4.886  -0.036  0.00  0.00    +0.148 HD
BRANCH  12   1
ATOM      1  S   UNL     1      11.703   4.958  -0.804  0.00  0.00    +0.065 S 
ATOM      5  O   UNL     1      11.984   6.315  -1.234  0.00  0.00    -0.153 OA
ATOM      6  O   UNL     1      11.475   3.895  -1.764  0.00  0.00    -0.153 OA
BRANCH   1  23
ATOM      2  S   UNL     1      14.633   5.122  -0.473  0.00  0.00    -0.077 S 
ATOM     23  C   UNL     1      13.170   4.423   0.077  0.00  0.00    +0.142 A 
ATOM     26  C   UNL     1      13.375   3.551   1.123  0.00  0.00    +0.036 A 
ATOM     27  C   UNL     1      14.751   3.456   1.479  0.00  0.00    +0.010 A 
ATOM     28  C   UNL     1      15.546   4.258   0.691  0.00  0.00    +0.047 A 
ENDBRANCH   1  23
ENDBRANCH  12   1
ENDBRANCH  15  12
BRANCH  21  22
ATOM     22  C   UNL     1       8.723   6.296   6.349  0.00  0.00    +0.256 C 
BRANCH  22   7
ATOM      7  O   UNL     1       9.493   6.926   7.344  0.00  0.00    -0.359 OA
BRANCH   7  29
ATOM     29  C   UNL     1       9.235   6.391   8.641  0.00  0.00    +0.280 C 
BRANCH  29  31
ATOM     10  O   UNL     1       9.229   4.010   9.126  0.00  0.00    -0.248 OA
ATOM     31  C   UNL     1       9.820   5.010   8.746  0.00  0.00    +0.331 C 
BRANCH  31   9
ATOM      9  O   UNL     1      11.118   5.019   8.352  0.00  0.00    -0.479 OA
ATOM     36  H   UNL     1      11.715   5.334   9.064  0.00  0.00    +0.295 HD
ENDBRANCH  31   9
ENDBRANCH  29  31
ENDBRANCH   7  29
ENDBRANCH  22   7
ENDBRANCH  21  22
TORSDOF 12
ENDMDL
MODEL 9
REMARK VINA RESULT:      -5.6     14.978     19.570
REMARK  Name = 7134352
REMARK  12 active torsions:
REMARK  status: ('A' for Active; 'I' for Inactive)
REMARK    1  A    between atoms: S_1  and  N_12
REMARK    2  A    between atoms: S_1  and  C_23
REMARK    3  A    between atoms: O_7  and  C_22
REMARK    4  A    between atoms: O_7  and  C_29
REMARK    5  A    between atoms: O_9  and  C_31
REMARK    6  A    between atoms: N_12  and  C_15
REMARK    7  A    between atoms: N_13  and  C_24
REMARK    8  A    between atoms: C_17  and  C_20
REMARK    9  A    between atoms: C_21  and  C_22
REMARK   10  A    between atoms: C_24  and  C_25
REMARK   11  A    between atoms: C_25  and  C_30
REMARK   12  A    between atoms: C_29  and  C_31
REMARK                            x       y       z     vdW  Elec       q    Type
REMARK                         _______ _______ _______ _____ _____    ______ ____
ROOT
ATOM      4  O   UNL     1       7.812   7.681   4.568  0.00  0.00    -0.273 OA
ATOM     11  N   UNL     1       9.699   6.487   3.909  0.00  0.00    -0.288 N 
ATOM     15  C   UNL     1      11.308   5.392   1.741  0.00  0.00    +0.080 C 
ATOM     16  C   UNL     1      11.224   4.675   3.089  0.00  0.00    +0.052 C 
ATOM     17  C   UNL     1      10.829   5.604   4.240  0.00  0.00    +0.163 C 
ATOM     18  C   UNL     1      10.027   6.174   1.470  0.00  0.00    +0.039 C 
ATOM     19  C   UNL     1       9.745   7.154   2.602  0.00  0.00    +0.110 C 
ATOM     21  C   UNL     1       8.682   6.838   4.805  0.00  0.00    +0.242 C 
ENDROOT
BRANCH  17  20
ATOM      3  O   UNL     1      12.500   7.274   3.889  0.00  0.00    -0.274 OA
ATOM     13  N   UNL     1      12.318   6.286   5.990  0.00  0.00    -0.313 N 
ATOM     20  C   UNL     1      11.963   6.489   4.667  0.00  0.00    +0.234 C 
ATOM     33  H   UNL     1      11.774   5.652   6.566  0.00  0.00    +0.149 HD
BRANCH  13  24
ATOM     24  C   UNL     1      13.395   6.999   6.637  0.00  0.00    +0.113 C 
BRANCH  24  25
ATOM     25  C   UNL     1      12.995   8.413   7.032  0.00  0.00    +0.114 C 
BRANCH  25  30
ATOM      8  O   UNL     1      14.021  10.612   6.924  0.00  0.00    -0.276 OA
ATOM     14  N   UNL     1      14.600   9.038   5.351  0.00  0.00    -0.329 N 
ATOM     30  C   UNL     1      13.911   9.481   6.460  0.00  0.00    +0.212 C 
ATOM     34  H   UNL     1      15.248   9.648   4.863  0.00  0.00    +0.145 HD
ATOM     35  H   UNL     1      14.491   8.099   4.983  0.00  0.00    +0.145 HD
ENDBRANCH  25  30
ENDBRANCH  24  25
ENDBRANCH  13  24
ENDBRANCH  17  20
BRANCH  15  12
ATOM     12  N   UNL     1      11.511   4.390   0.666  0.00  0.00    -0.186 NA
ATOM     32  H   UNL     1      10.667   4.106   0.155  0.00  0.00    +0.148 HD
BRANCH  12   1
ATOM      1  S   UNL     1      12.999   4.419  -0.178  0.00  0.00    +0.065 S 
ATOM      5  O   UNL     1      13.922   3.486   0.441  0.00  0.00    -0.153 OA
ATOM      6  O   UNL     1      13.372   5.798  -0.421  0.00  0.00    -0.153 OA
BRANCH   1  23
ATOM      2  S   UNL     1      13.706   4.398  -3.044  0.00  0.00    -0.077 S 
ATOM     23  C   UNL     1      12.690   3.768  -1.819  0.00  0.00    +0.142 A 
ATOM     26  C   UNL     1      11.791   2.850  -2.315  0.00  0.00    +0.036 A 
ATOM     27  C   UNL     1      11.937   2.661  -3.719  0.00  0.00    +0.010 A 
ATOM     28  C   UNL     1      12.944   3.442  -4.244  0.00  0.00    +0.047 A 
ENDBRANCH   1  23
ENDBRANCH  12   1
ENDBRANCH  15  12
BRANCH  21  22
ATOM     22  C   UNL     1       8.666   6.120   6.131  0.00  0.00    +0.256 C 
BRANCH  22   7
ATOM      7  O   UNL     1       8.562   7.112   7.124  0.00  0.00    -0.359 OA
BRANCH   7  29
ATOM     29  C   UNL     1       9.681   7.103   8.009  0.00  0.00    +0.280 C 
BRANCH  29  31
ATOM     10  O   UNL     1       8.950   5.312   9.481  0.00  0.00    -0.248 OA
ATOM     31  C   UNL     1       9.772   5.771   8.700  0.00  0.00    +0.331 C 
BRANCH  31   9
ATOM      9  O   UNL     1      10.909   5.129   8.334  0.00  0.00    -0.479 OA
ATOM     36  H   UNL     1      10.778   4.160   8.264  0.00  0.00    +0.295 HD
ENDBRANCH  31   9
ENDBRANCH  29  31
ENDBRANCH   7  29
ENDBRANCH  22   7
ENDBRANCH  21  22
TORSDOF 12
ENDMDL
MODEL 10
REMARK VINA RESULT:      -5.6     28.026     29.657
REMARK  Name = 7134352
REMARK  12 active torsions:
REMARK  status: ('A' for Active; 'I' for Inactive)
REMARK    1  A    between atoms: S_1  and  N_12
REMARK    2  A    between atoms: S_1  and  C_23
REMARK    3  A    between atoms: O_7  and  C_22
REMARK    4  A    between atoms: O_7  and  C_29
REMARK    5  A    between atoms: O_9  and  C_31
REMARK    6  A    between atoms: N_12  and  C_15
REMARK    7  A    between atoms: N_13  and  C_24
REMARK    8  A    between atoms: C_17  and  C_20
REMARK    9  A    between atoms: C_21  and  C_22
REMARK   10  A    between atoms: C_24  and  C_25
REMARK   11  A    between atoms: C_25  and  C_30
REMARK   12  A    between atoms: C_29  and  C_31
REMARK                            x       y       z     vdW  Elec       q    Type
REMARK                         _______ _______ _______ _____ _____    ______ ____
ROOT
ATOM      4  O   UNL     1     -13.075  -7.727  16.374  0.00  0.00    -0.273 OA
ATOM     11  N   UNL     1     -10.882  -8.464  16.639  0.00  0.00    -0.288 N 
ATOM     15  C   UNL     1      -8.968 -10.061  18.146  0.00  0.00    +0.080 C 
ATOM     16  C   UNL     1      -8.536  -8.761  17.468  0.00  0.00    +0.052 C 
ATOM     17  C   UNL     1      -9.451  -8.354  16.311  0.00  0.00    +0.163 C 
ATOM     18  C   UNL     1     -10.441  -9.997  18.539  0.00  0.00    +0.039 C 
ATOM     19  C   UNL     1     -11.308  -9.691  17.324  0.00  0.00    +0.110 C 
ATOM     21  C   UNL     1     -11.863  -7.560  16.212  0.00  0.00    +0.242 C 
ENDROOT
BRANCH  17  20
ATOM      3  O   UNL     1     -10.148  -9.592  14.391  0.00  0.00    -0.274 OA
ATOM     13  N   UNL     1      -7.875  -9.450  14.876  0.00  0.00    -0.313 N 
ATOM     20  C   UNL     1      -9.219  -9.189  15.086  0.00  0.00    +0.234 C 
ATOM     33  H   UNL     1      -7.179  -9.023  15.479  0.00  0.00    +0.149 HD
BRANCH  13  24
ATOM     24  C   UNL     1      -7.389 -10.251  13.777  0.00  0.00    +0.113 C 
BRANCH  24  25
ATOM     25  C   UNL     1      -5.991  -9.836  13.337  0.00  0.00    +0.114 C 
BRANCH  25  30
ATOM      8  O   UNL     1      -6.240 -11.222  11.358  0.00  0.00    -0.276 OA
ATOM     14  N   UNL     1      -4.482  -9.745  11.464  0.00  0.00    -0.329 N 
ATOM     30  C   UNL     1      -5.615 -10.354  11.960  0.00  0.00    +0.212 C 
ATOM     34  H   UNL     1      -4.112  -9.994  10.552  0.00  0.00    +0.145 HD
ATOM     35  H   UNL     1      -3.979  -9.030  11.980  0.00  0.00    +0.145 HD
ENDBRANCH  25  30
ENDBRANCH  24  25
ENDBRANCH  13  24
ENDBRANCH  17  20
BRANCH  15  12
ATOM     12  N   UNL     1      -8.143 -10.277  19.361  0.00  0.00    -0.186 NA
ATOM     32  H   UNL     1      -8.563  -9.968  20.246  0.00  0.00    +0.148 HD
BRANCH  12   1
ATOM      1  S   UNL     1      -7.104 -11.635  19.385  0.00  0.00    +0.065 S 
ATOM      5  O   UNL     1      -7.858 -12.825  19.037  0.00  0.00    -0.153 OA
ATOM      6  O   UNL     1      -6.291 -11.582  20.585  0.00  0.00    -0.153 OA
BRANCH   1  23
ATOM      2  S   UNL     1      -5.668 -12.802  17.085  0.00  0.00    -0.077 S 
ATOM     23  C   UNL     1      -5.916 -11.418  18.060  0.00  0.00    +0.142 A 
ATOM     26  C   UNL     1      -5.144 -10.352  17.653  0.00  0.00    +0.036 A 
ATOM     27  C   UNL     1      -4.338 -10.677  16.524  0.00  0.00    +0.010 A 
ATOM     28  C   UNL     1      -4.524 -11.978  16.111  0.00  0.00    +0.047 A 
ENDBRANCH   1  23
ENDBRANCH  12   1
ENDBRANCH  15  12
BRANCH  21  22
ATOM     22  C   UNL     1     -11.380  -6.309  15.522  0.00  0.00    +0.256 C 
BRANCH  22   7
ATOM      7  O   UNL     1     -11.889  -6.351  14.211  0.00  0.00    -0.359 OA
BRANCH   7  29
ATOM     29  C   UNL     1     -12.707  -5.219  13.918  0.00  0.00    +0.280 C 
BRANCH  29  31
ATOM     10  O   UNL     1     -12.039  -5.097  11.584  0.00  0.00    -0.248 OA
ATOM     31  C   UNL     1     -12.219  -4.551  12.663  0.00  0.00    +0.331 C 
BRANCH  31   9
ATOM      9  O   UNL     1     -12.001  -3.231  12.889  0.00  0.00    -0.479 OA
ATOM     36  H   UNL     1     -12.596  -2.664  12.354  0.00  0.00    +0.295 HD
ENDBRANCH  31   9
ENDBRANCH  29  31
ENDBRANCH   7  29
ENDBRANCH  22   7
ENDBRANCH  21  22
TORSDOF 12
ENDMDL
