MODEL 1
REMARK VINA RESULT:      -6.2      0.000      0.000
REMARK  Name = 71693181
REMARK  13 active torsions:
REMARK  status: ('A' for Active; 'I' for Inactive)
REMARK    1  A    between atoms: O_1  and  C_32
REMARK    2  A    between atoms: O_1  and  C_33
REMARK    3  A    between atoms: N_3  and  C_11
REMARK    4  A    between atoms: N_3  and  C_16
REMARK    5  A    between atoms: C_6  and  C_10
REMARK    6  A    between atoms: C_7  and  C_11
REMARK    7  A    between atoms: C_9  and  C_15
REMARK    8  A    between atoms: C_10  and  C_19
REMARK    9  A    between atoms: C_10  and  C_20
REMARK   10  A    between atoms: C_12  and  C_23
REMARK   11  A    between atoms: C_14  and  C_16
REMARK   12  A    between atoms: C_15  and  C_25
REMARK   13  A    between atoms: C_30  and  C_32
REMARK                            x       y       z     vdW  Elec       q    Type
REMARK                         _______ _______ _______ _____ _____    ______ ____
ROOT
ATOM      6  C   UNL     1      -4.483 -10.633  17.460  0.00  0.00    +0.000 C 
ATOM      7  C   UNL     1      -3.481 -11.496  16.656  0.00  0.00    +0.029 C 
ATOM      8  C   UNL     1      -5.563 -10.060  16.533  0.00  0.00    +0.012 C 
ATOM      9  C   UNL     1      -6.334 -11.143  15.747  0.00  0.00    +0.022 C 
ATOM     12  C   UNL     1      -5.439 -12.272  15.259  0.00  0.00    -0.073 C 
ATOM     13  C   UNL     1      -4.165 -12.406  15.667  0.00  0.00    -0.023 C 
ATOM     23  C   UNL     1      -6.049 -13.290  14.333  0.00  0.00    +0.039 C 
ENDROOT
BRANCH   6  10
ATOM     10  C   UNL     1      -5.107 -11.430  18.614  0.00  0.00    -0.013 C 
ATOM     19  C   UNL     1      -5.973 -10.522  19.480  0.00  0.00    +0.007 C 
ATOM     20  C   UNL     1      -4.020 -12.099  19.448  0.00  0.00    +0.007 C 
ENDBRANCH   6  10
BRANCH   7  11
ATOM     11  C   UNL     1      -2.455 -10.631  15.919  0.00  0.00    +0.088 C 
BRANCH  11   3
ATOM      3  N   UNL     1      -2.005 -11.290  14.705  0.00  0.00    -0.315 NA
ATOM     34  H   UNL     1      -2.668 -12.015  14.434  0.00  0.00    +0.122 HD
BRANCH   3  16
ATOM     16  C   UNL     1      -1.847 -10.334  13.616  0.00  0.00    +0.084 C 
BRANCH  16  14
ATOM     14  C   UNL     1      -2.649 -10.759  12.387  0.00  0.00    +0.003 C 
ATOM     17  C   UNL     1      -4.086 -10.227  12.467  0.00  0.00    +0.005 C 
ATOM     18  C   UNL     1      -2.639 -12.287  12.235  0.00  0.00    +0.005 C 
ATOM     21  C   UNL     1      -4.924 -10.685  11.276  0.00  0.00    +0.000 C 
ATOM     22  C   UNL     1      -3.479 -12.739  11.042  0.00  0.00    +0.000 C 
ATOM     24  C   UNL     1      -4.905 -12.202  11.122  0.00  0.00    +0.000 C 
ENDBRANCH  16  14
ENDBRANCH   3  16
ENDBRANCH  11   3
ENDBRANCH   7  11
BRANCH   9  15
ATOM     15  C   UNL     1      -7.112 -10.465  14.613  0.00  0.00    +0.082 C 
BRANCH  15  25
ATOM      4  N   UNL     1      -9.024  -8.859  14.471  0.00  0.00    -0.342 N 
ATOM      5  N   UNL     1      -9.118 -10.336  16.129  0.00  0.00    -0.232 NA
ATOM     25  C   UNL     1      -8.420  -9.912  15.100  0.00  0.00    +0.109 A 
ATOM     26  C   UNL     1     -10.190  -8.584  15.140  0.00  0.00    +0.067 A 
ATOM     27  C   UNL     1     -10.226  -9.520  16.171  0.00  0.00    +0.089 A 
ATOM     28  C   UNL     1     -11.185  -7.627  14.938  0.00  0.00    +0.042 A 
ATOM     29  C   UNL     1     -11.312  -9.515  17.062  0.00  0.00    +0.030 A 
ATOM     30  C   UNL     1     -12.259  -7.638  15.835  0.00  0.00    +0.061 A 
ATOM     31  C   UNL     1     -12.322  -8.564  16.878  0.00  0.00    +0.017 A 
ATOM     35  H   UNL     1      -8.677  -8.368  13.658  0.00  0.00    +0.167 HD
BRANCH  30  32
ATOM      2  O   UNL     1     -14.425  -6.728  16.245  0.00  0.00    -0.245 OA
ATOM     32  C   UNL     1     -13.328  -6.663  15.676  0.00  0.00    +0.339 C 
BRANCH  32   1
ATOM      1  O   UNL     1     -12.971  -5.662  14.815  0.00  0.00    -0.464 OA
ATOM     33  C   UNL     1     -13.914  -5.320  13.794  0.00  0.00    +0.280 C 
ENDBRANCH  32   1
ENDBRANCH  30  32
ENDBRANCH  15  25
ENDBRANCH   9  15
TORSDOF 9
ENDMDL
MODEL 2
REMARK VINA RESULT:      -6.2     28.293     31.675
REMARK  Name = 71693181
REMARK  13 active torsions:
REMARK  status: ('A' for Active; 'I' for Inactive)
REMARK    1  A    between atoms: O_1  and  C_32
REMARK    2  A    between atoms: O_1  and  C_33
REMARK    3  A    between atoms: N_3  and  C_11
REMARK    4  A    between atoms: N_3  and  C_16
REMARK    5  A    between atoms: C_6  and  C_10
REMARK    6  A    between atoms: C_7  and  C_11
REMARK    7  A    between atoms: C_9  and  C_15
REMARK    8  A    between atoms: C_10  and  C_19
REMARK    9  A    between atoms: C_10  and  C_20
REMARK   10  A    between atoms: C_12  and  C_23
REMARK   11  A    between atoms: C_14  and  C_16
REMARK   12  A    between atoms: C_15  and  C_25
REMARK   13  A    between atoms: C_30  and  C_32
REMARK                            x       y       z     vdW  Elec       q    Type
REMARK                         _______ _______ _______ _____ _____    ______ ____
ROOT
ATOM      6  C   UNL     1      13.168  11.576  22.257  0.00  0.00    +0.000 C 
ATOM      7  C   UNL     1      11.625  11.618  22.373  0.00  0.00    +0.029 C 
ATOM      8  C   UNL     1      13.678  10.134  22.390  0.00  0.00    +0.012 C 
ATOM      9  C   UNL     1      13.060   9.169  21.355  0.00  0.00    +0.022 C 
ATOM     12  C   UNL     1      11.581   9.428  21.110  0.00  0.00    -0.073 C 
ATOM     13  C   UNL     1      10.956  10.522  21.582  0.00  0.00    -0.023 C 
ATOM     23  C   UNL     1      10.835   8.438  20.256  0.00  0.00    +0.039 C 
ENDROOT
BRANCH   6  10
ATOM     10  C   UNL     1      13.649  12.217  20.948  0.00  0.00    -0.013 C 
ATOM     19  C   UNL     1      15.113  12.626  21.063  0.00  0.00    +0.007 C 
ATOM     20  C   UNL     1      12.777  13.416  20.592  0.00  0.00    +0.007 C 
ENDBRANCH   6  10
BRANCH   7  11
ATOM     11  C   UNL     1      11.165  11.539  23.831  0.00  0.00    +0.088 C 
BRANCH  11   3
ATOM      3  N   UNL     1       9.935  12.288  24.022  0.00  0.00    -0.315 NA
ATOM     34  H   UNL     1       9.397  11.889  24.790  0.00  0.00    +0.122 HD
BRANCH   3  16
ATOM     16  C   UNL     1      10.213  13.693  24.295  0.00  0.00    +0.084 C 
BRANCH  16  14
ATOM     14  C   UNL     1      11.643  13.887  24.795  0.00  0.00    +0.003 C 
ATOM     17  C   UNL     1      11.649  14.320  26.267  0.00  0.00    +0.005 C 
ATOM     18  C   UNL     1      12.390  14.906  23.923  0.00  0.00    +0.005 C 
ATOM     21  C   UNL     1      13.066  14.572  26.776  0.00  0.00    +0.000 C 
ATOM     22  C   UNL     1      13.807  15.155  24.436  0.00  0.00    +0.000 C 
ATOM     24  C   UNL     1      13.808  15.578  25.902  0.00  0.00    +0.000 C 
ENDBRANCH  16  14
ENDBRANCH   3  16
ENDBRANCH  11   3
ENDBRANCH   7  11
BRANCH   9  15
ATOM     15  C   UNL     1      13.347   7.728  21.797  0.00  0.00    +0.082 C 
BRANCH  15  25
ATOM      4  N   UNL     1      15.814   7.343  21.946  0.00  0.00    -0.342 N 
ATOM      5  N   UNL     1      14.837   6.663  20.069  0.00  0.00    -0.232 NA
ATOM     25  C   UNL     1      14.650   7.233  21.238  0.00  0.00    +0.109 A 
ATOM     26  C   UNL     1      16.821   6.809  21.182  0.00  0.00    +0.067 A 
ATOM     27  C   UNL     1      16.185   6.391  20.015  0.00  0.00    +0.089 A 
ATOM     28  C   UNL     1      18.189   6.660  21.404  0.00  0.00    +0.042 A 
ATOM     29  C   UNL     1      16.945   5.786  19.000  0.00  0.00    +0.030 A 
ATOM     30  C   UNL     1      18.931   6.056  20.383  0.00  0.00    +0.061 A 
ATOM     31  C   UNL     1      18.322   5.627  19.202  0.00  0.00    +0.017 A 
ATOM     35  H   UNL     1      15.918   7.745  22.868  0.00  0.00    +0.167 HD
BRANCH  30  32
ATOM      2  O   UNL     1      21.144   6.763  20.918  0.00  0.00    -0.245 OA
ATOM     32  C   UNL     1      20.364   5.873  20.557  0.00  0.00    +0.339 C 
BRANCH  32   1
ATOM      1  O   UNL     1      20.746   4.591  20.270  0.00  0.00    -0.464 OA
ATOM     33  C   UNL     1      21.552   3.923  21.246  0.00  0.00    +0.280 C 
ENDBRANCH  32   1
ENDBRANCH  30  32
ENDBRANCH  15  25
ENDBRANCH   9  15
TORSDOF 9
ENDMDL
MODEL 3
REMARK VINA RESULT:      -6.2      3.591      7.891
REMARK  Name = 71693181
REMARK  13 active torsions:
REMARK  status: ('A' for Active; 'I' for Inactive)
REMARK    1  A    between atoms: O_1  and  C_32
REMARK    2  A    between atoms: O_1  and  C_33
REMARK    3  A    between atoms: N_3  and  C_11
REMARK    4  A    between atoms: N_3  and  C_16
REMARK    5  A    between atoms: C_6  and  C_10
REMARK    6  A    between atoms: C_7  and  C_11
REMARK    7  A    between atoms: C_9  and  C_15
REMARK    8  A    between atoms: C_10  and  C_19
REMARK    9  A    between atoms: C_10  and  C_20
REMARK   10  A    between atoms: C_12  and  C_23
REMARK   11  A    between atoms: C_14  and  C_16
REMARK   12  A    between atoms: C_15  and  C_25
REMARK   13  A    between atoms: C_30  and  C_32
REMARK                            x       y       z     vdW  Elec       q    Type
REMARK                         _______ _______ _______ _____ _____    ______ ____
ROOT
ATOM      6  C   UNL     1      -5.065 -12.449  15.529  0.00  0.00    +0.000 C 
ATOM      7  C   UNL     1      -4.983 -10.934  15.835  0.00  0.00    +0.029 C 
ATOM      8  C   UNL     1      -4.057 -12.832  14.437  0.00  0.00    +0.012 C 
ATOM      9  C   UNL     1      -2.601 -12.458  14.790  0.00  0.00    +0.022 C 
ATOM     12  C   UNL     1      -2.485 -11.111  15.486  0.00  0.00    -0.073 C 
ATOM     13  C   UNL     1      -3.561 -10.441  15.936  0.00  0.00    -0.023 C 
ATOM     23  C   UNL     1      -1.102 -10.566  15.717  0.00  0.00    +0.039 C 
ENDROOT
BRANCH   6  10
ATOM     10  C   UNL     1      -4.856 -13.288  16.797  0.00  0.00    -0.013 C 
ATOM     19  C   UNL     1      -5.031 -14.770  16.489  0.00  0.00    +0.007 C 
ATOM     20  C   UNL     1      -5.820 -12.844  17.893  0.00  0.00    +0.007 C 
ENDBRANCH   6  10
BRANCH   7  11
ATOM     11  C   UNL     1      -5.731 -10.104  14.787  0.00  0.00    +0.088 C 
BRANCH  11   3
ATOM      3  N   UNL     1      -6.943  -9.537  15.352  0.00  0.00    -0.315 NA
ATOM     34  H   UNL     1      -7.757 -10.062  15.035  0.00  0.00    +0.122 HD
BRANCH   3  16
ATOM     16  C   UNL     1      -6.894  -9.536  16.808  0.00  0.00    +0.084 C 
BRANCH  16  14
ATOM     14  C   UNL     1      -8.234  -9.110  17.406  0.00  0.00    +0.003 C 
ATOM     17  C   UNL     1      -8.959 -10.312  18.026  0.00  0.00    +0.005 C 
ATOM     18  C   UNL     1      -9.110  -8.431  16.344  0.00  0.00    +0.005 C 
ATOM     21  C   UNL     1     -10.326  -9.921  18.582  0.00  0.00    +0.000 C 
ATOM     22  C   UNL     1     -10.476  -8.043  16.905  0.00  0.00    +0.000 C 
ATOM     24  C   UNL     1     -11.190  -9.240  17.527  0.00  0.00    +0.000 C 
ENDBRANCH  16  14
ENDBRANCH   3  16
ENDBRANCH  11   3
ENDBRANCH   7  11
BRANCH   9  15
ATOM     15  C   UNL     1      -1.751 -12.546  13.516  0.00  0.00    +0.082 C 
BRANCH  15  25
ATOM      4  N   UNL     1      -3.054 -12.414  11.385  0.00  0.00    -0.342 N 
ATOM      5  N   UNL     1      -2.354 -10.475  12.217  0.00  0.00    -0.232 NA
ATOM     25  C   UNL     1      -2.375 -11.778  12.386  0.00  0.00    +0.109 A 
ATOM     26  C   UNL     1      -3.502 -11.457  10.510  0.00  0.00    +0.067 A 
ATOM     27  C   UNL     1      -3.052 -10.255  11.051  0.00  0.00    +0.089 A 
ATOM     28  C   UNL     1      -4.239 -11.537   9.328  0.00  0.00    +0.042 A 
ATOM     29  C   UNL     1      -3.346  -9.052  10.387  0.00  0.00    +0.030 A 
ATOM     30  C   UNL     1      -4.523 -10.329   8.681  0.00  0.00    +0.061 A 
ATOM     31  C   UNL     1      -4.085  -9.109   9.199  0.00  0.00    +0.017 A 
ATOM     35  H   UNL     1      -3.203 -13.410  11.302  0.00  0.00    +0.167 HD
BRANCH  30  32
ATOM      2  O   UNL     1      -5.003 -11.036   6.455  0.00  0.00    -0.245 OA
ATOM     32  C   UNL     1      -5.288 -10.349   7.443  0.00  0.00    +0.339 C 
BRANCH  32   1
ATOM      1  O   UNL     1      -6.366  -9.509   7.506  0.00  0.00    -0.464 OA
ATOM     33  C   UNL     1      -6.965  -9.132   6.262  0.00  0.00    +0.280 C 
ENDBRANCH  32   1
ENDBRANCH  30  32
ENDBRANCH  15  25
ENDBRANCH   9  15
TORSDOF 9
ENDMDL
MODEL 4
REMARK VINA RESULT:      -6.2     25.119     28.146
REMARK  Name = 71693181
REMARK  13 active torsions:
REMARK  status: ('A' for Active; 'I' for Inactive)
REMARK    1  A    between atoms: O_1  and  C_32
REMARK    2  A    between atoms: O_1  and  C_33
REMARK    3  A    between atoms: N_3  and  C_11
REMARK    4  A    between atoms: N_3  and  C_16
REMARK    5  A    between atoms: C_6  and  C_10
REMARK    6  A    between atoms: C_7  and  C_11
REMARK    7  A    between atoms: C_9  and  C_15
REMARK    8  A    between atoms: C_10  and  C_19
REMARK    9  A    between atoms: C_10  and  C_20
REMARK   10  A    between atoms: C_12  and  C_23
REMARK   11  A    between atoms: C_14  and  C_16
REMARK   12  A    between atoms: C_15  and  C_25
REMARK   13  A    between atoms: C_30  and  C_32
REMARK                            x       y       z     vdW  Elec       q    Type
REMARK                         _______ _______ _______ _____ _____    ______ ____
ROOT
ATOM      6  C   UNL     1       8.851   9.526   2.777  0.00  0.00    +0.000 C 
ATOM      7  C   UNL     1       8.185   9.712   4.161  0.00  0.00    +0.029 C 
ATOM      8  C   UNL     1       9.931   8.438   2.841  0.00  0.00    +0.012 C 
ATOM      9  C   UNL     1       9.400   7.077   3.341  0.00  0.00    +0.022 C 
ATOM     12  C   UNL     1       8.393   7.211   4.473  0.00  0.00    -0.073 C 
ATOM     13  C   UNL     1       7.871   8.398   4.832  0.00  0.00    -0.023 C 
ATOM     23  C   UNL     1       7.943   5.948   5.156  0.00  0.00    +0.039 C 
ENDROOT
BRANCH   6  10
ATOM     10  C   UNL     1       7.810   9.213   1.692  0.00  0.00    -0.013 C 
ATOM     19  C   UNL     1       8.446   9.285   0.309  0.00  0.00    +0.007 C 
ATOM     20  C   UNL     1       6.629  10.170   1.797  0.00  0.00    +0.007 C 
ENDBRANCH   6  10
BRANCH   7  11
ATOM     11  C   UNL     1       9.051  10.561   5.096  0.00  0.00    +0.088 C 
BRANCH  11   3
ATOM      3  N   UNL     1       8.919  10.108   6.470  0.00  0.00    -0.315 NA
ATOM     34  H   UNL     1       8.448   9.204   6.498  0.00  0.00    +0.122 HD
BRANCH   3  16
ATOM     16  C   UNL     1      10.221  10.006   7.117  0.00  0.00    +0.084 C 
BRANCH  16  14
ATOM     14  C   UNL     1      10.417   8.629   7.751  0.00  0.00    +0.003 C 
ATOM     17  C   UNL     1      11.311   7.748   6.868  0.00  0.00    +0.005 C 
ATOM     18  C   UNL     1       9.063   7.952   8.006  0.00  0.00    +0.005 C 
ATOM     21  C   UNL     1      11.477   6.348   7.454  0.00  0.00    +0.000 C 
ATOM     22  C   UNL     1       9.234   6.553   8.591  0.00  0.00    +0.000 C 
ATOM     24  C   UNL     1      10.130   5.682   7.714  0.00  0.00    +0.000 C 
ENDBRANCH  16  14
ENDBRANCH   3  16
ENDBRANCH  11   3
ENDBRANCH   7  11
BRANCH   9  15
ATOM     15  C   UNL     1      10.595   6.189   3.708  0.00  0.00    +0.082 C 
BRANCH  15  25
ATOM      4  N   UNL     1      10.306   5.191   1.432  0.00  0.00    -0.342 N 
ATOM      5  N   UNL     1      12.313   4.942   2.353  0.00  0.00    -0.232 NA
ATOM     25  C   UNL     1      11.106   5.436   2.513  0.00  0.00    +0.109 A 
ATOM     26  C   UNL     1      11.046   4.491   0.513  0.00  0.00    +0.067 A 
ATOM     27  C   UNL     1      12.295   4.348   1.112  0.00  0.00    +0.089 A 
ATOM     28  C   UNL     1      10.739   3.987  -0.750  0.00  0.00    +0.042 A 
ATOM     29  C   UNL     1      13.310   3.664   0.422  0.00  0.00    +0.030 A 
ATOM     30  C   UNL     1      11.762   3.309  -1.423  0.00  0.00    +0.061 A 
ATOM     31  C   UNL     1      13.024   3.150  -0.849  0.00  0.00    +0.017 A 
ATOM     35  H   UNL     1       9.341   5.474   1.326  0.00  0.00    +0.167 HD
BRANCH  30  32
ATOM      2  O   UNL     1      12.276   2.851  -3.706  0.00  0.00    -0.245 OA
ATOM     32  C   UNL     1      11.502   2.760  -2.745  0.00  0.00    +0.339 C 
BRANCH  32   1
ATOM      1  O   UNL     1      10.289   2.128  -2.797  0.00  0.00    -0.464 OA
ATOM     33  C   UNL     1       9.449   2.432  -3.916  0.00  0.00    +0.280 C 
ENDBRANCH  32   1
ENDBRANCH  30  32
ENDBRANCH  15  25
ENDBRANCH   9  15
TORSDOF 9
ENDMDL
MODEL 5
REMARK VINA RESULT:      -6.1     22.726     26.409
REMARK  Name = 71693181
REMARK  13 active torsions:
REMARK  status: ('A' for Active; 'I' for Inactive)
REMARK    1  A    between atoms: O_1  and  C_32
REMARK    2  A    between atoms: O_1  and  C_33
REMARK    3  A    between atoms: N_3  and  C_11
REMARK    4  A    between atoms: N_3  and  C_16
REMARK    5  A    between atoms: C_6  and  C_10
REMARK    6  A    between atoms: C_7  and  C_11
REMARK    7  A    between atoms: C_9  and  C_15
REMARK    8  A    between atoms: C_10  and  C_19
REMARK    9  A    between atoms: C_10  and  C_20
REMARK   10  A    between atoms: C_12  and  C_23
REMARK   11  A    between atoms: C_14  and  C_16
REMARK   12  A    between atoms: C_15  and  C_25
REMARK   13  A    between atoms: C_30  and  C_32
REMARK                            x       y       z     vdW  Elec       q    Type
REMARK                         _______ _______ _______ _____ _____    ______ ____
ROOT
ATOM      6  C   UNL     1     -12.618   9.406  33.815  0.00  0.00    +0.000 C 
ATOM      7  C   UNL     1     -13.802  10.268  34.315  0.00  0.00    +0.029 C 
ATOM      8  C   UNL     1     -12.886   7.918  34.083  0.00  0.00    +0.012 C 
ATOM      9  C   UNL     1     -14.197   7.408  33.446  0.00  0.00    +0.022 C 
ATOM     12  C   UNL     1     -15.336   8.411  33.546  0.00  0.00    -0.073 C 
ATOM     13  C   UNL     1     -15.141   9.681  33.946  0.00  0.00    -0.023 C 
ATOM     23  C   UNL     1     -16.704   7.953  33.118  0.00  0.00    +0.039 C 
ENDROOT
BRANCH   6  10
ATOM     10  C   UNL     1     -12.329   9.659  32.329  0.00  0.00    -0.013 C 
ATOM     19  C   UNL     1     -11.105   8.867  31.883  0.00  0.00    +0.007 C 
ATOM     20  C   UNL     1     -12.134  11.150  32.072  0.00  0.00    +0.007 C 
ENDBRANCH   6  10
BRANCH   7  11
ATOM     11  C   UNL     1     -13.745  10.483  35.830  0.00  0.00    +0.088 C 
BRANCH  11   3
ATOM      3  N   UNL     1     -12.883  11.605  36.158  0.00  0.00    -0.315 NA
ATOM     34  H   UNL     1     -13.435  12.372  36.540  0.00  0.00    +0.122 HD
BRANCH   3  16
ATOM     16  C   UNL     1     -11.853  11.215  37.113  0.00  0.00    +0.084 C 
BRANCH  16  14
ATOM     14  C   UNL     1     -10.481  11.139  36.445  0.00  0.00    +0.003 C 
ATOM     17  C   UNL     1     -10.454  11.983  35.164  0.00  0.00    +0.005 C 
ATOM     18  C   UNL     1     -10.102   9.682  36.148  0.00  0.00    +0.005 C 
ATOM     21  C   UNL     1      -9.109  11.880  34.449  0.00  0.00    +0.000 C 
ATOM     22  C   UNL     1      -8.757   9.584  35.433  0.00  0.00    +0.000 C 
ATOM     24  C   UNL     1      -8.731  10.431  34.163  0.00  0.00    +0.000 C 
ENDBRANCH  16  14
ENDBRANCH   3  16
ENDBRANCH  11   3
ENDBRANCH   7  11
BRANCH   9  15
ATOM     15  C   UNL     1     -14.545   6.048  34.064  0.00  0.00    +0.082 C 
BRANCH  15  25
ATOM      4  N   UNL     1     -14.725   3.660  33.340  0.00  0.00    -0.342 N 
ATOM      5  N   UNL     1     -14.783   5.176  31.714  0.00  0.00    -0.232 NA
ATOM     25  C   UNL     1     -14.685   4.987  33.011  0.00  0.00    +0.109 A 
ATOM     26  C   UNL     1     -14.856   2.945  32.176  0.00  0.00    +0.067 A 
ATOM     27  C   UNL     1     -14.890   3.913  31.176  0.00  0.00    +0.089 A 
ATOM     28  C   UNL     1     -14.945   1.576  31.922  0.00  0.00    +0.042 A 
ATOM     29  C   UNL     1     -15.021   3.510  29.837  0.00  0.00    +0.030 A 
ATOM     30  C   UNL     1     -15.076   1.193  30.582  0.00  0.00    +0.061 A 
ATOM     31  C   UNL     1     -15.113   2.141  29.558  0.00  0.00    +0.017 A 
ATOM     35  H   UNL     1     -14.668   3.273  34.272  0.00  0.00    +0.167 HD
BRANCH  30  32
ATOM      2  O   UNL     1     -15.870  -1.037  30.871  0.00  0.00    -0.245 OA
ATOM     32  C   UNL     1     -15.173  -0.221  30.254  0.00  0.00    +0.339 C 
BRANCH  32   1
ATOM      1  O   UNL     1     -14.395  -0.542  29.175  0.00  0.00    -0.464 OA
ATOM     33  C   UNL     1     -13.082  -1.040  29.449  0.00  0.00    +0.280 C 
ENDBRANCH  32   1
ENDBRANCH  30  32
ENDBRANCH  15  25
ENDBRANCH   9  15
TORSDOF 9
ENDMDL
MODEL 6
REMARK VINA RESULT:      -6.0      2.109      3.767
REMARK  Name = 71693181
REMARK  13 active torsions:
REMARK  status: ('A' for Active; 'I' for Inactive)
REMARK    1  A    between atoms: O_1  and  C_32
REMARK    2  A    between atoms: O_1  and  C_33
REMARK    3  A    between atoms: N_3  and  C_11
REMARK    4  A    between atoms: N_3  and  C_16
REMARK    5  A    between atoms: C_6  and  C_10
REMARK    6  A    between atoms: C_7  and  C_11
REMARK    7  A    between atoms: C_9  and  C_15
REMARK    8  A    between atoms: C_10  and  C_19
REMARK    9  A    between atoms: C_10  and  C_20
REMARK   10  A    between atoms: C_12  and  C_23
REMARK   11  A    between atoms: C_14  and  C_16
REMARK   12  A    between atoms: C_15  and  C_25
REMARK   13  A    between atoms: C_30  and  C_32
REMARK                            x       y       z     vdW  Elec       q    Type
REMARK                         _______ _______ _______ _____ _____    ______ ____
ROOT
ATOM      6  C   UNL     1      -3.967 -10.523  14.866  0.00  0.00    +0.000 C 
ATOM      7  C   UNL     1      -5.059 -11.465  14.304  0.00  0.00    +0.029 C 
ATOM      8  C   UNL     1      -4.177 -10.294  16.369  0.00  0.00    +0.012 C 
ATOM      9  C   UNL     1      -4.200 -11.601  17.191  0.00  0.00    +0.022 C 
ATOM     12  C   UNL     1      -4.936 -12.732  16.488  0.00  0.00    -0.073 C 
ATOM     13  C   UNL     1      -5.321 -12.648  15.202  0.00  0.00    -0.023 C 
ATOM     23  C   UNL     1      -5.173 -13.996  17.269  0.00  0.00    +0.039 C 
ENDROOT
BRANCH   6  10
ATOM     10  C   UNL     1      -2.560 -11.064  14.578  0.00  0.00    -0.013 C 
ATOM     19  C   UNL     1      -1.512 -10.238  15.317  0.00  0.00    +0.007 C 
ATOM     20  C   UNL     1      -2.288 -11.067  13.078  0.00  0.00    +0.007 C 
ENDBRANCH   6  10
BRANCH   7  11
ATOM     11  C   UNL     1      -6.374 -10.721  14.054  0.00  0.00    +0.088 C 
BRANCH  11   3
ATOM      3  N   UNL     1      -6.119  -9.391  13.527  0.00  0.00    -0.315 NA
ATOM     34  H   UNL     1      -5.117  -9.243  13.417  0.00  0.00    +0.122 HD
BRANCH   3  16
ATOM     16  C   UNL     1      -6.789  -9.196  12.247  0.00  0.00    +0.084 C 
BRANCH  16  14
ATOM     14  C   UNL     1      -5.974  -9.791  11.100  0.00  0.00    +0.003 C 
ATOM     17  C   UNL     1      -4.611  -9.095  10.986  0.00  0.00    +0.005 C 
ATOM     18  C   UNL     1      -6.748  -9.698   9.778  0.00  0.00    +0.005 C 
ATOM     21  C   UNL     1      -3.798  -9.636   9.812  0.00  0.00    +0.000 C 
ATOM     22  C   UNL     1      -5.931 -10.239   8.608  0.00  0.00    +0.000 C 
ATOM     24  C   UNL     1      -4.574  -9.549   8.502  0.00  0.00    +0.000 C 
ENDBRANCH  16  14
ENDBRANCH   3  16
ENDBRANCH  11   3
ENDBRANCH   7  11
BRANCH   9  15
ATOM     15  C   UNL     1      -4.767 -11.295  18.583  0.00  0.00    +0.082 C 
BRANCH  15  25
ATOM      4  N   UNL     1      -6.618  -9.869  17.688  0.00  0.00    -0.342 N 
ATOM      5  N   UNL     1      -7.211 -11.408  19.179  0.00  0.00    -0.232 NA
ATOM     25  C   UNL     1      -6.209 -10.883  18.509  0.00  0.00    +0.109 A 
ATOM     26  C   UNL     1      -7.974  -9.729  17.839  0.00  0.00    +0.067 A 
ATOM     27  C   UNL     1      -8.320 -10.701  18.775  0.00  0.00    +0.089 A 
ATOM     28  C   UNL     1      -8.899  -8.863  17.255  0.00  0.00    +0.042 A 
ATOM     29  C   UNL     1      -9.665 -10.829  19.163  0.00  0.00    +0.030 A 
ATOM     30  C   UNL     1     -10.233  -9.006  17.653  0.00  0.00    +0.061 A 
ATOM     31  C   UNL     1     -10.610  -9.970  18.589  0.00  0.00    +0.017 A 
ATOM     35  H   UNL     1      -6.028  -9.320  17.077  0.00  0.00    +0.167 HD
BRANCH  30  32
ATOM      2  O   UNL     1     -12.361  -8.504  16.702  0.00  0.00    -0.245 OA
ATOM     32  C   UNL     1     -11.243  -8.130  17.079  0.00  0.00    +0.339 C 
BRANCH  32   1
ATOM      1  O   UNL     1     -10.805  -6.836  17.005  0.00  0.00    -0.464 OA
ATOM     33  C   UNL     1     -11.022  -6.149  15.769  0.00  0.00    +0.280 C 
ENDBRANCH  32   1
ENDBRANCH  30  32
ENDBRANCH  15  25
ENDBRANCH   9  15
TORSDOF 9
ENDMDL
MODEL 7
REMARK VINA RESULT:      -5.8     24.250     27.865
REMARK  Name = 71693181
REMARK  13 active torsions:
REMARK  status: ('A' for Active; 'I' for Inactive)
REMARK    1  A    between atoms: O_1  and  C_32
REMARK    2  A    between atoms: O_1  and  C_33
REMARK    3  A    between atoms: N_3  and  C_11
REMARK    4  A    between atoms: N_3  and  C_16
REMARK    5  A    between atoms: C_6  and  C_10
REMARK    6  A    between atoms: C_7  and  C_11
REMARK    7  A    between atoms: C_9  and  C_15
REMARK    8  A    between atoms: C_10  and  C_19
REMARK    9  A    between atoms: C_10  and  C_20
REMARK   10  A    between atoms: C_12  and  C_23
REMARK   11  A    between atoms: C_14  and  C_16
REMARK   12  A    between atoms: C_15  and  C_25
REMARK   13  A    between atoms: C_30  and  C_32
REMARK                            x       y       z     vdW  Elec       q    Type
REMARK                         _______ _______ _______ _____ _____    ______ ____
ROOT
ATOM      6  C   UNL     1       9.229   6.303   7.481  0.00  0.00    +0.000 C 
ATOM      7  C   UNL     1      10.035   7.572   7.849  0.00  0.00    +0.029 C 
ATOM      8  C   UNL     1       8.967   6.253   5.969  0.00  0.00    +0.012 C 
ATOM      9  C   UNL     1      10.258   6.306   5.122  0.00  0.00    +0.022 C 
ATOM     12  C   UNL     1      11.295   7.270   5.678  0.00  0.00    -0.073 C 
ATOM     13  C   UNL     1      11.172   7.833   6.894  0.00  0.00    -0.023 C 
ATOM     23  C   UNL     1      12.517   7.534   4.841  0.00  0.00    +0.039 C 
ENDROOT
BRANCH   6  10
ATOM     10  C   UNL     1       9.938   5.030   7.964  0.00  0.00    -0.013 C 
ATOM     19  C   UNL     1       9.713   3.890   6.978  0.00  0.00    +0.007 C 
ATOM     20  C   UNL     1       9.451   4.647   9.357  0.00  0.00    +0.007 C 
ENDBRANCH   6  10
BRANCH   7  11
ATOM     11  C   UNL     1       9.138   8.812   7.916  0.00  0.00    +0.088 C 
BRANCH  11   3
ATOM      3  N   UNL     1       9.870   9.998   7.509  0.00  0.00    -0.315 NA
ATOM     34  H   UNL     1      10.769   9.735   7.107  0.00  0.00    +0.122 HD
BRANCH   3  16
ATOM     16  C   UNL     1       9.109  10.780   6.544  0.00  0.00    +0.084 C 
BRANCH  16  14
ATOM     14  C   UNL     1       8.964  10.033   5.218  0.00  0.00    +0.003 C 
ATOM     17  C   UNL     1       9.857  10.664   4.141  0.00  0.00    +0.005 C 
ATOM     18  C   UNL     1       7.498  10.007   4.767  0.00  0.00    +0.005 C 
ATOM     21  C   UNL     1       9.690   9.968   2.792  0.00  0.00    +0.000 C 
ATOM     22  C   UNL     1       7.336   9.311   3.418  0.00  0.00    +0.000 C 
ATOM     24  C   UNL     1       8.230   9.936   2.351  0.00  0.00    +0.000 C 
ENDBRANCH  16  14
ENDBRANCH   3  16
ENDBRANCH  11   3
ENDBRANCH   7  11
BRANCH   9  15
ATOM     15  C   UNL     1       9.877   6.614   3.668  0.00  0.00    +0.082 C 
BRANCH  15  25
ATOM      4  N   UNL     1      10.526   5.916   1.355  0.00  0.00    -0.342 N 
ATOM      5  N   UNL     1      11.464   4.771   3.014  0.00  0.00    -0.232 NA
ATOM     25  C   UNL     1      10.639   5.747   2.707  0.00  0.00    +0.109 A 
ATOM     26  C   UNL     1      11.332   4.986   0.748  0.00  0.00    +0.067 A 
ATOM     27  C   UNL     1      11.907   4.284   1.805  0.00  0.00    +0.089 A 
ATOM     28  C   UNL     1      11.600   4.708  -0.592  0.00  0.00    +0.042 A 
ATOM     29  C   UNL     1      12.804   3.240   1.526  0.00  0.00    +0.030 A 
ATOM     30  C   UNL     1      12.496   3.665  -0.852  0.00  0.00    +0.061 A 
ATOM     31  C   UNL     1      13.087   2.944   0.186  0.00  0.00    +0.017 A 
ATOM     35  H   UNL     1       9.953   6.603   0.884  0.00  0.00    +0.167 HD
BRANCH  30  32
ATOM      2  O   UNL     1      13.531   4.014  -2.971  0.00  0.00    -0.245 OA
ATOM     32  C   UNL     1      12.814   3.329  -2.231  0.00  0.00    +0.339 C 
BRANCH  32   1
ATOM      1  O   UNL     1      12.220   2.156  -2.612  0.00  0.00    -0.464 OA
ATOM     33  C   UNL     1      10.814   2.198  -2.873  0.00  0.00    +0.280 C 
ENDBRANCH  32   1
ENDBRANCH  30  32
ENDBRANCH  15  25
ENDBRANCH   9  15
TORSDOF 9
ENDMDL
MODEL 8
REMARK VINA RESULT:      -5.7      5.330      8.599
REMARK  Name = 71693181
REMARK  13 active torsions:
REMARK  status: ('A' for Active; 'I' for Inactive)
REMARK    1  A    between atoms: O_1  and  C_32
REMARK    2  A    between atoms: O_1  and  C_33
REMARK    3  A    between atoms: N_3  and  C_11
REMARK    4  A    between atoms: N_3  and  C_16
REMARK    5  A    between atoms: C_6  and  C_10
REMARK    6  A    between atoms: C_7  and  C_11
REMARK    7  A    between atoms: C_9  and  C_15
REMARK    8  A    between atoms: C_10  and  C_19
REMARK    9  A    between atoms: C_10  and  C_20
REMARK   10  A    between atoms: C_12  and  C_23
REMARK   11  A    between atoms: C_14  and  C_16
REMARK   12  A    between atoms: C_15  and  C_25
REMARK   13  A    between atoms: C_30  and  C_32
REMARK                            x       y       z     vdW  Elec       q    Type
REMARK                         _______ _______ _______ _____ _____    ______ ____
ROOT
ATOM      6  C   UNL     1      -5.443 -10.177  13.014  0.00  0.00    +0.000 C 
ATOM      7  C   UNL     1      -4.438 -11.254  13.487  0.00  0.00    +0.029 C 
ATOM      8  C   UNL     1      -5.001  -9.583  11.669  0.00  0.00    +0.012 C 
ATOM      9  C   UNL     1      -4.825 -10.643  10.560  0.00  0.00    +0.022 C 
ATOM     12  C   UNL     1      -4.190 -11.930  11.063  0.00  0.00    -0.073 C 
ATOM     13  C   UNL     1      -4.015 -12.180  12.374  0.00  0.00    -0.023 C 
ATOM     23  C   UNL     1      -3.809 -12.964  10.038  0.00  0.00    +0.039 C 
ENDROOT
BRANCH   6  10
ATOM     10  C   UNL     1      -6.869 -10.740  12.930  0.00  0.00    -0.013 C 
ATOM     19  C   UNL     1      -7.884  -9.607  12.838  0.00  0.00    +0.007 C 
ATOM     20  C   UNL     1      -7.159 -11.631  14.133  0.00  0.00    +0.007 C 
ENDBRANCH   6  10
BRANCH   7  11
ATOM     11  C   UNL     1      -3.193 -10.626  14.120  0.00  0.00    +0.088 C 
BRANCH  11   3
ATOM      3  N   UNL     1      -3.451 -10.253  15.500  0.00  0.00    -0.315 NA
ATOM     34  H   UNL     1      -4.344  -9.766  15.571  0.00  0.00    +0.122 HD
BRANCH   3  16
ATOM     16  C   UNL     1      -3.458 -11.424  16.368  0.00  0.00    +0.084 C 
BRANCH  16  14
ATOM     14  C   UNL     1      -4.709 -11.454  17.245  0.00  0.00    +0.003 C 
ATOM     17  C   UNL     1      -5.552 -10.189  17.031  0.00  0.00    +0.005 C 
ATOM     18  C   UNL     1      -4.331 -11.615  18.724  0.00  0.00    +0.005 C 
ATOM     21  C   UNL     1      -6.780 -10.170  17.937  0.00  0.00    +0.000 C 
ATOM     22  C   UNL     1      -5.563 -11.595  19.626  0.00  0.00    +0.000 C 
ATOM     24  C   UNL     1      -6.402 -10.339  19.404  0.00  0.00    +0.000 C 
ENDBRANCH  16  14
ENDBRANCH   3  16
ENDBRANCH  11   3
ENDBRANCH   7  11
BRANCH   9  15
ATOM     15  C   UNL     1      -4.050 -10.011   9.397  0.00  0.00    +0.082 C 
BRANCH  15  25
ATOM      4  N   UNL     1      -5.631  -9.127   7.671  0.00  0.00    -0.342 N 
ATOM      5  N   UNL     1      -4.785 -11.144   7.271  0.00  0.00    -0.232 NA
ATOM     25  C   UNL     1      -4.808 -10.129   8.105  0.00  0.00    +0.109 A 
ATOM     26  C   UNL     1      -6.177  -9.523   6.476  0.00  0.00    +0.067 A 
ATOM     27  C   UNL     1      -5.632 -10.785   6.248  0.00  0.00    +0.089 A 
ATOM     28  C   UNL     1      -7.071  -8.905   5.602  0.00  0.00    +0.042 A 
ATOM     29  C   UNL     1      -5.991 -11.485   5.084  0.00  0.00    +0.030 A 
ATOM     30  C   UNL     1      -7.417  -9.616   4.448  0.00  0.00    +0.061 A 
ATOM     31  C   UNL     1      -6.888 -10.883   4.192  0.00  0.00    +0.017 A 
ATOM     35  H   UNL     1      -5.808  -8.251   8.143  0.00  0.00    +0.167 HD
BRANCH  30  32
ATOM      2  O   UNL     1      -9.492  -8.652   3.780  0.00  0.00    -0.245 OA
ATOM     32  C   UNL     1      -8.346  -9.023   3.498  0.00  0.00    +0.339 C 
BRANCH  32   1
ATOM      1  O   UNL     1      -7.795  -8.926   2.250  0.00  0.00    -0.464 OA
ATOM     33  C   UNL     1      -8.690  -9.034   1.138  0.00  0.00    +0.280 C 
ENDBRANCH  32   1
ENDBRANCH  30  32
ENDBRANCH  15  25
ENDBRANCH   9  15
TORSDOF 9
ENDMDL
MODEL 9
REMARK VINA RESULT:      -5.7      4.298      7.435
REMARK  Name = 71693181
REMARK  13 active torsions:
REMARK  status: ('A' for Active; 'I' for Inactive)
REMARK    1  A    between atoms: O_1  and  C_32
REMARK    2  A    between atoms: O_1  and  C_33
REMARK    3  A    between atoms: N_3  and  C_11
REMARK    4  A    between atoms: N_3  and  C_16
REMARK    5  A    between atoms: C_6  and  C_10
REMARK    6  A    between atoms: C_7  and  C_11
REMARK    7  A    between atoms: C_9  and  C_15
REMARK    8  A    between atoms: C_10  and  C_19
REMARK    9  A    between atoms: C_10  and  C_20
REMARK   10  A    between atoms: C_12  and  C_23
REMARK   11  A    between atoms: C_14  and  C_16
REMARK   12  A    between atoms: C_15  and  C_25
REMARK   13  A    between atoms: C_30  and  C_32
REMARK                            x       y       z     vdW  Elec       q    Type
REMARK                         _______ _______ _______ _____ _____    ______ ____
ROOT
ATOM      6  C   UNL     1      -5.619 -10.500  10.811  0.00  0.00    +0.000 C 
ATOM      7  C   UNL     1      -4.722 -10.486   9.550  0.00  0.00    +0.029 C 
ATOM      8  C   UNL     1      -4.841 -11.043  12.018  0.00  0.00    +0.012 C 
ATOM      9  C   UNL     1      -3.547 -10.256  12.317  0.00  0.00    +0.022 C 
ATOM     12  C   UNL     1      -2.799  -9.842  11.059  0.00  0.00    -0.073 C 
ATOM     13  C   UNL     1      -3.336  -9.963   9.832  0.00  0.00    -0.023 C 
ATOM     23  C   UNL     1      -1.437  -9.225  11.233  0.00  0.00    +0.039 C 
ENDROOT
BRANCH   6  10
ATOM     10  C   UNL     1      -6.195  -9.108  11.103  0.00  0.00    -0.013 C 
ATOM     19  C   UNL     1      -7.168  -9.170  12.275  0.00  0.00    +0.007 C 
ATOM     20  C   UNL     1      -6.878  -8.544   9.861  0.00  0.00    +0.007 C 
ENDBRANCH   6  10
BRANCH   7  11
ATOM     11  C   UNL     1      -4.617 -11.876   8.916  0.00  0.00    +0.088 C 
BRANCH  11   3
ATOM      3  N   UNL     1      -4.378 -11.771   7.486  0.00  0.00    -0.315 NA
ATOM     34  H   UNL     1      -3.585 -12.355   7.220  0.00  0.00    +0.122 HD
BRANCH   3  16
ATOM     16  C   UNL     1      -5.557 -12.165   6.726  0.00  0.00    +0.084 C 
BRANCH  16  14
ATOM     14  C   UNL     1      -5.912 -11.114   5.675  0.00  0.00    +0.003 C 
ATOM     17  C   UNL     1      -6.501  -9.861   6.337  0.00  0.00    +0.005 C 
ATOM     18  C   UNL     1      -6.885 -11.692   4.637  0.00  0.00    +0.005 C 
ATOM     21  C   UNL     1      -6.914  -8.818   5.303  0.00  0.00    +0.000 C 
ATOM     22  C   UNL     1      -7.295 -10.644   3.605  0.00  0.00    +0.000 C 
ATOM     24  C   UNL     1      -7.873  -9.397   4.269  0.00  0.00    +0.000 C 
ENDBRANCH  16  14
ENDBRANCH   3  16
ENDBRANCH  11   3
ENDBRANCH   7  11
BRANCH   9  15
ATOM     15  C   UNL     1      -2.684 -11.080  13.280  0.00  0.00    +0.082 C 
BRANCH  15  25
ATOM      4  N   UNL     1      -3.901 -10.441  15.371  0.00  0.00    -0.342 N 
ATOM      5  N   UNL     1      -3.728 -12.622  14.976  0.00  0.00    -0.232 NA
ATOM     25  C   UNL     1      -3.435 -11.419  14.536  0.00  0.00    +0.109 A 
ATOM     26  C   UNL     1      -4.537 -11.055  16.420  0.00  0.00    +0.067 A 
ATOM     27  C   UNL     1      -4.415 -12.415  16.150  0.00  0.00    +0.089 A 
ATOM     28  C   UNL     1      -5.188 -10.552  17.546  0.00  0.00    +0.042 A 
ATOM     29  C   UNL     1      -4.971 -13.344  17.047  0.00  0.00    +0.030 A 
ATOM     30  C   UNL     1      -5.735 -11.490  18.429  0.00  0.00    +0.061 A 
ATOM     31  C   UNL     1      -5.629 -12.861  18.185  0.00  0.00    +0.017 A 
ATOM     35  H   UNL     1      -3.798  -9.444  15.240  0.00  0.00    +0.167 HD
BRANCH  30  32
ATOM      2  O   UNL     1      -6.089 -10.038  20.286  0.00  0.00    -0.245 OA
ATOM     32  C   UNL     1      -6.426 -11.026  19.622  0.00  0.00    +0.339 C 
BRANCH  32   1
ATOM      1  O   UNL     1      -7.499 -11.820  19.922  0.00  0.00    -0.464 OA
ATOM     33  C   UNL     1      -8.775 -11.395  19.432  0.00  0.00    +0.280 C 
ENDBRANCH  32   1
ENDBRANCH  30  32
ENDBRANCH  15  25
ENDBRANCH   9  15
TORSDOF 9
ENDMDL
MODEL 10
REMARK VINA RESULT:      -5.5     26.983     30.524
REMARK  Name = 71693181
REMARK  13 active torsions:
REMARK  status: ('A' for Active; 'I' for Inactive)
REMARK    1  A    between atoms: O_1  and  C_32
REMARK    2  A    between atoms: O_1  and  C_33
REMARK    3  A    between atoms: N_3  and  C_11
REMARK    4  A    between atoms: N_3  and  C_16
REMARK    5  A    between atoms: C_6  and  C_10
REMARK    6  A    between atoms: C_7  and  C_11
REMARK    7  A    between atoms: C_9  and  C_15
REMARK    8  A    between atoms: C_10  and  C_19
REMARK    9  A    between atoms: C_10  and  C_20
REMARK   10  A    between atoms: C_12  and  C_23
REMARK   11  A    between atoms: C_14  and  C_16
REMARK   12  A    between atoms: C_15  and  C_25
REMARK   13  A    between atoms: C_30  and  C_32
REMARK                            x       y       z     vdW  Elec       q    Type
REMARK                         _______ _______ _______ _____ _____    ______ ____
ROOT
ATOM      6  C   UNL     1      19.172  -3.090  26.375  0.00  0.00    +0.000 C 
ATOM      7  C   UNL     1      19.680  -4.505  26.740  0.00  0.00    +0.029 C 
ATOM      8  C   UNL     1      18.158  -2.598  27.417  0.00  0.00    +0.012 C 
ATOM      9  C   UNL     1      18.717  -2.587  28.857  0.00  0.00    +0.022 C 
ATOM     12  C   UNL     1      19.592  -3.792  29.164  0.00  0.00    -0.073 C 
ATOM     13  C   UNL     1      20.003  -4.643  28.206  0.00  0.00    -0.023 C 
ATOM     23  C   UNL     1      20.046  -3.977  30.587  0.00  0.00    +0.039 C 
ENDROOT
BRANCH   6  10
ATOM     10  C   UNL     1      20.335  -2.100  26.220  0.00  0.00    -0.013 C 
ATOM     19  C   UNL     1      19.860  -0.826  25.531  0.00  0.00    +0.007 C 
ATOM     20  C   UNL     1      21.479  -2.742  25.444  0.00  0.00    +0.007 C 
ENDBRANCH   6  10
BRANCH   7  11
ATOM     11  C   UNL     1      18.674  -5.588  26.341  0.00  0.00    +0.088 C 
BRANCH  11   3
ATOM      3  N   UNL     1      18.748  -5.859  24.916  0.00  0.00    -0.315 NA
ATOM     34  H   UNL     1      19.236  -6.738  24.750  0.00  0.00    +0.122 HD
BRANCH   3  16
ATOM     16  C   UNL     1      17.418  -5.913  24.321  0.00  0.00    +0.084 C 
BRANCH  16  14
ATOM     14  C   UNL     1      17.120  -4.648  23.518  0.00  0.00    +0.003 C 
ATOM     17  C   UNL     1      18.419  -4.016  22.999  0.00  0.00    +0.005 C 
ATOM     18  C   UNL     1      16.324  -3.644  24.364  0.00  0.00    +0.005 C 
ATOM     21  C   UNL     1      18.151  -2.720  22.239  0.00  0.00    +0.000 C 
ATOM     22  C   UNL     1      16.059  -2.349  23.599  0.00  0.00    +0.000 C 
ATOM     24  C   UNL     1      17.353  -1.728  23.078  0.00  0.00    +0.000 C 
ENDBRANCH  16  14
ENDBRANCH   3  16
ENDBRANCH  11   3
ENDBRANCH   7  11
BRANCH   9  15
ATOM     15  C   UNL     1      17.546  -2.436  29.835  0.00  0.00    +0.082 C 
BRANCH  15  25
ATOM      4  N   UNL     1      16.708  -0.762  31.495  0.00  0.00    -0.342 N 
ATOM      5  N   UNL     1      18.847  -0.571  30.919  0.00  0.00    -0.232 NA
ATOM     25  C   UNL     1      17.737  -1.252  30.740  0.00  0.00    +0.109 A 
ATOM     26  C   UNL     1      17.185   0.309  32.208  0.00  0.00    +0.067 A 
ATOM     27  C   UNL     1      18.523   0.407  31.832  0.00  0.00    +0.089 A 
ATOM     28  C   UNL     1      16.581   1.172  33.122  0.00  0.00    +0.042 A 
ATOM     29  C   UNL     1      19.319   1.421  32.390  0.00  0.00    +0.030 A 
ATOM     30  C   UNL     1      17.389   2.175  33.669  0.00  0.00    +0.061 A 
ATOM     31  C   UNL     1      18.733   2.299  33.311  0.00  0.00    +0.017 A 
ATOM     35  H   UNL     1      15.763  -1.121  31.525  0.00  0.00    +0.167 HD
BRANCH  30  32
ATOM      2  O   UNL     1      16.900   4.338  34.545  0.00  0.00    -0.245 OA
ATOM     32  C   UNL     1      16.815   3.107  34.628  0.00  0.00    +0.339 C 
BRANCH  32   1
ATOM      1  O   UNL     1      16.166   2.451  35.639  0.00  0.00    -0.464 OA
ATOM     33  C   UNL     1      16.952   2.072  36.773  0.00  0.00    +0.280 C 
ENDBRANCH  32   1
ENDBRANCH  30  32
ENDBRANCH  15  25
ENDBRANCH   9  15
TORSDOF 9
ENDMDL
