MODEL 1
REMARK VINA RESULT:      -5.8      0.000      0.000
REMARK  Name = 38029990
REMARK  10 active torsions:
REMARK  status: ('A' for Active; 'I' for Inactive)
REMARK    1  A    between atoms: N_2  and  C_19
REMARK    2  A    between atoms: C_5  and  C_9
REMARK    3  A    between atoms: C_7  and  C_13
REMARK    4  A    between atoms: C_8  and  C_12
REMARK    5  A    between atoms: C_9  and  C_14
REMARK    6  A    between atoms: C_9  and  C_15
REMARK    7  A    between atoms: C_10  and  C_16
REMARK    8  A    between atoms: C_12  and  C_17
REMARK    9  A    between atoms: C_13  and  C_18
REMARK   10  A    between atoms: C_19  and  C_20
REMARK                            x       y       z     vdW  Elec       q    Type
REMARK                         _______ _______ _______ _____ _____    ______ ____
ROOT
ATOM      5  C   UNL     1     -16.245   2.379  29.873  0.00  0.00    -0.000 C 
ATOM      6  C   UNL     1     -15.968   3.884  29.997  0.00  0.00    +0.012 C 
ATOM      7  C   UNL     1     -14.922   1.601  29.660  0.00  0.00    +0.029 C 
ATOM      8  C   UNL     1     -15.019   4.207  31.166  0.00  0.00    +0.023 C 
ATOM     10  C   UNL     1     -13.809   3.293  31.179  0.00  0.00    -0.073 C 
ATOM     11  C   UNL     1     -13.781   2.140  30.488  0.00  0.00    -0.023 C 
ATOM     16  C   UNL     1     -12.616   3.759  31.967  0.00  0.00    +0.039 C 
ENDROOT
BRANCH   5   9
ATOM      9  C   UNL     1     -17.242   2.127  28.738  0.00  0.00    -0.013 C 
ATOM     14  C   UNL     1     -18.515   2.939  28.957  0.00  0.00    +0.007 C 
ATOM     15  C   UNL     1     -16.611   2.463  27.390  0.00  0.00    +0.007 C 
ENDBRANCH   5   9
BRANCH   8  12
ATOM     12  C   UNL     1     -15.757   4.158  32.508  0.00  0.00    +0.103 C 
BRANCH  12  17
ATOM      1  O   UNL     1     -15.801   5.514  34.511  0.00  0.00    -0.276 OA
ATOM      2  N   UNL     1     -15.087   6.453  32.509  0.00  0.00    -0.311 N 
ATOM     17  C   UNL     1     -15.562   5.425  33.310  0.00  0.00    +0.214 C 
ATOM     25  H   UNL     1     -14.917   6.281  31.522  0.00  0.00    +0.149 HD
BRANCH   2  19
ATOM     19  C   UNL     1     -14.809   7.780  33.009  0.00  0.00    +0.141 C 
BRANCH  19  20
ATOM      4  N   UNL     1     -13.014  10.039  30.567  0.00  0.00    -0.263 NA
ATOM     20  C   UNL     1     -13.699   8.446  32.251  0.00  0.00    -0.012 A 
ATOM     21  C   UNL     1     -12.369   8.121  32.495  0.00  0.00    +0.008 A 
ATOM     22  C   UNL     1     -13.966   9.404  31.286  0.00  0.00    +0.115 A 
ATOM     23  C   UNL     1     -11.361   8.753  31.776  0.00  0.00    +0.020 A 
ATOM     24  C   UNL     1     -11.733   9.697  30.832  0.00  0.00    +0.111 A 
ENDBRANCH  19  20
ENDBRANCH   2  19
ENDBRANCH  12  17
ENDBRANCH   8  12
BRANCH   7  13
ATOM     13  C   UNL     1     -15.106   0.108  29.952  0.00  0.00    +0.126 C 
BRANCH  13  18
ATOM      3  N   UNL     1     -12.979  -1.253  29.241  0.00  0.00    -0.197 NA
ATOM     18  C   UNL     1     -13.916  -0.648  29.560  0.00  0.00    +0.063 C 
ENDBRANCH  13  18
ENDBRANCH   7  13
TORSDOF 7
ENDMDL
MODEL 2
REMARK VINA RESULT:      -5.8     21.144     25.362
REMARK  Name = 38029990
REMARK  10 active torsions:
REMARK  status: ('A' for Active; 'I' for Inactive)
REMARK    1  A    between atoms: N_2  and  C_19
REMARK    2  A    between atoms: C_5  and  C_9
REMARK    3  A    between atoms: C_7  and  C_13
REMARK    4  A    between atoms: C_8  and  C_12
REMARK    5  A    between atoms: C_9  and  C_14
REMARK    6  A    between atoms: C_9  and  C_15
REMARK    7  A    between atoms: C_10  and  C_16
REMARK    8  A    between atoms: C_12  and  C_17
REMARK    9  A    between atoms: C_13  and  C_18
REMARK   10  A    between atoms: C_19  and  C_20
REMARK                            x       y       z     vdW  Elec       q    Type
REMARK                         _______ _______ _______ _____ _____    ______ ____
ROOT
ATOM      5  C   UNL     1      -5.798 -10.647  15.094  0.00  0.00    -0.000 C 
ATOM      6  C   UNL     1      -4.822 -11.832  15.131  0.00  0.00    +0.012 C 
ATOM      7  C   UNL     1      -6.695 -10.645  16.357  0.00  0.00    +0.029 C 
ATOM      8  C   UNL     1      -3.914 -11.801  16.375  0.00  0.00    +0.023 C 
ATOM     10  C   UNL     1      -4.703 -11.533  17.642  0.00  0.00    -0.073 C 
ATOM     11  C   UNL     1      -5.949 -11.029  17.612  0.00  0.00    -0.023 C 
ATOM     16  C   UNL     1      -4.042 -11.902  18.941  0.00  0.00    +0.039 C 
ENDROOT
BRANCH   5   9
ATOM      9  C   UNL     1      -6.626 -10.697  13.807  0.00  0.00    -0.013 C 
ATOM     14  C   UNL     1      -6.081  -9.706  12.784  0.00  0.00    +0.007 C 
ATOM     15  C   UNL     1      -6.638 -12.113  13.237  0.00  0.00    +0.007 C 
ENDBRANCH   5   9
BRANCH   8  12
ATOM     12  C   UNL     1      -2.782 -10.780  16.208  0.00  0.00    +0.103 C 
BRANCH  12  17
ATOM      1  O   UNL     1      -1.150 -11.959  14.866  0.00  0.00    -0.276 OA
ATOM      2  N   UNL     1      -2.246 -10.113  13.976  0.00  0.00    -0.311 N 
ATOM     17  C   UNL     1      -1.961 -11.042  14.966  0.00  0.00    +0.214 C 
ATOM     25  H   UNL     1      -2.938  -9.390  14.152  0.00  0.00    +0.149 HD
BRANCH   2  19
ATOM     19  C   UNL     1      -1.608 -10.119  12.679  0.00  0.00    +0.141 C 
BRANCH  19  20
ATOM      4  N   UNL     1      -3.955 -12.123  10.495  0.00  0.00    -0.263 NA
ATOM     20  C   UNL     1      -2.570 -10.466  11.581  0.00  0.00    -0.012 A 
ATOM     21  C   UNL     1      -2.969  -9.512  10.650  0.00  0.00    +0.008 A 
ATOM     22  C   UNL     1      -3.087 -11.746  11.460  0.00  0.00    +0.115 A 
ATOM     23  C   UNL     1      -3.860  -9.863   9.642  0.00  0.00    +0.020 A 
ATOM     24  C   UNL     1      -4.320 -11.169   9.609  0.00  0.00    +0.111 A 
ENDBRANCH  19  20
ENDBRANCH   2  19
ENDBRANCH  12  17
ENDBRANCH   8  12
BRANCH   7  13
ATOM     13  C   UNL     1      -7.364  -9.281  16.557  0.00  0.00    +0.126 C 
BRANCH  13  18
ATOM      3  N   UNL     1      -9.605  -9.532  17.897  0.00  0.00    -0.197 NA
ATOM     18  C   UNL     1      -8.618  -9.422  17.299  0.00  0.00    +0.063 C 
ENDBRANCH  13  18
ENDBRANCH   7  13
TORSDOF 7
ENDMDL
MODEL 3
REMARK VINA RESULT:      -5.7     22.529     26.268
REMARK  Name = 38029990
REMARK  10 active torsions:
REMARK  status: ('A' for Active; 'I' for Inactive)
REMARK    1  A    between atoms: N_2  and  C_19
REMARK    2  A    between atoms: C_5  and  C_9
REMARK    3  A    between atoms: C_7  and  C_13
REMARK    4  A    between atoms: C_8  and  C_12
REMARK    5  A    between atoms: C_9  and  C_14
REMARK    6  A    between atoms: C_9  and  C_15
REMARK    7  A    between atoms: C_10  and  C_16
REMARK    8  A    between atoms: C_12  and  C_17
REMARK    9  A    between atoms: C_13  and  C_18
REMARK   10  A    between atoms: C_19  and  C_20
REMARK                            x       y       z     vdW  Elec       q    Type
REMARK                         _______ _______ _______ _____ _____    ______ ____
ROOT
ATOM      5  C   UNL     1      -4.905 -10.784  11.015  0.00  0.00    -0.000 C 
ATOM      6  C   UNL     1      -4.347 -10.248  12.342  0.00  0.00    +0.012 C 
ATOM      7  C   UNL     1      -4.458  -9.882   9.837  0.00  0.00    +0.029 C 
ATOM      8  C   UNL     1      -2.808 -10.175  12.339  0.00  0.00    +0.023 C 
ATOM     10  C   UNL     1      -2.277  -9.532  11.073  0.00  0.00    -0.073 C 
ATOM     11  C   UNL     1      -3.034  -9.398   9.970  0.00  0.00    -0.023 C 
ATOM     16  C   UNL     1      -0.869  -9.006  11.120  0.00  0.00    +0.039 C 
ENDROOT
BRANCH   5   9
ATOM      9  C   UNL     1      -6.430 -10.894  11.100  0.00  0.00    -0.013 C 
ATOM     14  C   UNL     1      -6.836 -11.719  12.318  0.00  0.00    +0.007 C 
ATOM     15  C   UNL     1      -7.062  -9.507  11.151  0.00  0.00    +0.007 C 
ENDBRANCH   5   9
BRANCH   8  12
ATOM     12  C   UNL     1      -2.188 -11.560  12.553  0.00  0.00    +0.103 C 
BRANCH  12  17
ATOM      1  O   UNL     1      -2.271 -13.157  14.369  0.00  0.00    -0.276 OA
ATOM      2  N   UNL     1      -2.237 -10.882  14.846  0.00  0.00    -0.311 N 
ATOM     17  C   UNL     1      -2.236 -11.985  14.003  0.00  0.00    +0.214 C 
ATOM     25  H   UNL     1      -2.203  -9.948  14.447  0.00  0.00    +0.149 HD
BRANCH   2  19
ATOM     19  C   UNL     1      -2.279 -10.989  16.286  0.00  0.00    +0.141 C 
BRANCH  19  20
ATOM      4  N   UNL     1      -5.273 -11.356  18.565  0.00  0.00    -0.263 NA
ATOM     20  C   UNL     1      -3.676 -10.862  16.819  0.00  0.00    -0.012 A 
ATOM     21  C   UNL     1      -4.653 -10.168  16.112  0.00  0.00    +0.008 A 
ATOM     22  C   UNL     1      -4.034 -11.433  18.030  0.00  0.00    +0.115 A 
ATOM     23  C   UNL     1      -5.939 -10.068  16.630  0.00  0.00    +0.020 A 
ATOM     24  C   UNL     1      -6.196 -10.674  17.850  0.00  0.00    +0.111 A 
ENDBRANCH  19  20
ENDBRANCH   2  19
ENDBRANCH  12  17
ENDBRANCH   8  12
BRANCH   7  13
ATOM     13  C   UNL     1      -4.631 -10.601   8.494  0.00  0.00    +0.126 C 
BRANCH  13  18
ATOM      3  N   UNL     1      -6.407  -9.381   6.998  0.00  0.00    -0.197 NA
ATOM     18  C   UNL     1      -5.618  -9.914   7.661  0.00  0.00    +0.063 C 
ENDBRANCH  13  18
ENDBRANCH   7  13
TORSDOF 7
ENDMDL
MODEL 4
REMARK VINA RESULT:      -5.6      1.917      3.198
REMARK  Name = 38029990
REMARK  10 active torsions:
REMARK  status: ('A' for Active; 'I' for Inactive)
REMARK    1  A    between atoms: N_2  and  C_19
REMARK    2  A    between atoms: C_5  and  C_9
REMARK    3  A    between atoms: C_7  and  C_13
REMARK    4  A    between atoms: C_8  and  C_12
REMARK    5  A    between atoms: C_9  and  C_14
REMARK    6  A    between atoms: C_9  and  C_15
REMARK    7  A    between atoms: C_10  and  C_16
REMARK    8  A    between atoms: C_12  and  C_17
REMARK    9  A    between atoms: C_13  and  C_18
REMARK   10  A    between atoms: C_19  and  C_20
REMARK                            x       y       z     vdW  Elec       q    Type
REMARK                         _______ _______ _______ _____ _____    ______ ____
ROOT
ATOM      5  C   UNL     1     -15.221   1.562  30.312  0.00  0.00    -0.000 C 
ATOM      6  C   UNL     1     -15.347   1.857  31.814  0.00  0.00    +0.012 C 
ATOM      7  C   UNL     1     -16.523   1.959  29.572  0.00  0.00    +0.029 C 
ATOM      8  C   UNL     1     -15.634   3.344  32.094  0.00  0.00    +0.023 C 
ATOM     10  C   UNL     1     -16.737   3.882  31.204  0.00  0.00    -0.073 C 
ATOM     11  C   UNL     1     -17.129   3.242  30.089  0.00  0.00    -0.023 C 
ATOM     16  C   UNL     1     -17.410   5.150  31.652  0.00  0.00    +0.039 C 
ENDROOT
BRANCH   5   9
ATOM      9  C   UNL     1     -14.872   0.086  30.100  0.00  0.00    -0.013 C 
ATOM     14  C   UNL     1     -13.383  -0.074  29.813  0.00  0.00    +0.007 C 
ATOM     15  C   UNL     1     -15.281  -0.737  31.318  0.00  0.00    +0.007 C 
ENDBRANCH   5   9
BRANCH   8  12
ATOM     12  C   UNL     1     -14.361   4.187  31.962  0.00  0.00    +0.103 C 
BRANCH  12  17
ATOM      1  O   UNL     1     -14.014   4.622  34.316  0.00  0.00    -0.276 OA
ATOM      2  N   UNL     1     -14.068   6.400  32.820  0.00  0.00    -0.311 N 
ATOM     17  C   UNL     1     -14.128   5.059  33.175  0.00  0.00    +0.214 C 
ATOM     25  H   UNL     1     -14.172   6.664  31.844  0.00  0.00    +0.149 HD
BRANCH   2  19
ATOM     19  C   UNL     1     -13.855   7.461  33.777  0.00  0.00    +0.141 C 
BRANCH  19  20
ATOM      4  N   UNL     1     -10.911   9.795  34.194  0.00  0.00    -0.263 NA
ATOM     20  C   UNL     1     -12.639   8.276  33.451  0.00  0.00    -0.012 A 
ATOM     21  C   UNL     1     -12.110   8.292  32.165  0.00  0.00    +0.008 A 
ATOM     22  C   UNL     1     -12.008   9.038  34.422  0.00  0.00    +0.115 A 
ATOM     23  C   UNL     1     -10.982   9.059  31.893  0.00  0.00    +0.020 A 
ATOM     24  C   UNL     1     -10.425   9.786  32.932  0.00  0.00    +0.111 A 
ENDBRANCH  19  20
ENDBRANCH   2  19
ENDBRANCH  12  17
ENDBRANCH   8  12
BRANCH   7  13
ATOM     13  C   UNL     1     -16.286   2.077  28.062  0.00  0.00    +0.126 C 
BRANCH  13  18
ATOM      3  N   UNL     1     -17.691   0.291  26.752  0.00  0.00    -0.197 NA
ATOM     18  C   UNL     1     -17.067   1.076  27.335  0.00  0.00    +0.063 C 
ENDBRANCH  13  18
ENDBRANCH   7  13
TORSDOF 7
ENDMDL
MODEL 5
REMARK VINA RESULT:      -5.5      4.234      6.610
REMARK  Name = 38029990
REMARK  10 active torsions:
REMARK  status: ('A' for Active; 'I' for Inactive)
REMARK    1  A    between atoms: N_2  and  C_19
REMARK    2  A    between atoms: C_5  and  C_9
REMARK    3  A    between atoms: C_7  and  C_13
REMARK    4  A    between atoms: C_8  and  C_12
REMARK    5  A    between atoms: C_9  and  C_14
REMARK    6  A    between atoms: C_9  and  C_15
REMARK    7  A    between atoms: C_10  and  C_16
REMARK    8  A    between atoms: C_12  and  C_17
REMARK    9  A    between atoms: C_13  and  C_18
REMARK   10  A    between atoms: C_19  and  C_20
REMARK                            x       y       z     vdW  Elec       q    Type
REMARK                         _______ _______ _______ _____ _____    ______ ____
ROOT
ATOM      5  C   UNL     1     -15.412   2.783  30.640  0.00  0.00    -0.000 C 
ATOM      6  C   UNL     1     -16.750   3.288  30.080  0.00  0.00    +0.012 C 
ATOM      7  C   UNL     1     -15.302   1.247  30.475  0.00  0.00    +0.029 C 
ATOM      8  C   UNL     1     -16.924   2.944  28.589  0.00  0.00    +0.023 C 
ATOM     10  C   UNL     1     -16.572   1.499  28.299  0.00  0.00    -0.073 C 
ATOM     11  C   UNL     1     -15.858   0.753  29.161  0.00  0.00    -0.023 C 
ATOM     16  C   UNL     1     -17.100   0.917  27.017  0.00  0.00    +0.039 C 
ENDROOT
BRANCH   5   9
ATOM      9  C   UNL     1     -15.268   3.210  32.104  0.00  0.00    -0.013 C 
ATOM     14  C   UNL     1     -14.022   4.070  32.288  0.00  0.00    +0.007 C 
ATOM     15  C   UNL     1     -16.516   3.959  32.565  0.00  0.00    +0.007 C 
ENDBRANCH   5   9
BRANCH   8  12
ATOM     12  C   UNL     1     -16.111   3.895  27.703  0.00  0.00    +0.103 C 
BRANCH  12  17
ATOM      1  O   UNL     1     -17.836   4.248  26.044  0.00  0.00    -0.276 OA
ATOM      2  N   UNL     1     -15.683   3.704  25.359  0.00  0.00    -0.311 N 
ATOM     17  C   UNL     1     -16.666   3.977  26.299  0.00  0.00    +0.214 C 
ATOM     25  H   UNL     1     -14.739   3.493  25.669  0.00  0.00    +0.149 HD
BRANCH   2  19
ATOM     19  C   UNL     1     -15.929   3.711  23.935  0.00  0.00    +0.141 C 
BRANCH  19  20
ATOM      4  N   UNL     1     -15.508   7.296  22.811  0.00  0.00    -0.263 NA
ATOM     20  C   UNL     1     -15.355   4.927  23.270  0.00  0.00    -0.012 A 
ATOM     21  C   UNL     1     -14.188   4.850  22.518  0.00  0.00    +0.008 A 
ATOM     22  C   UNL     1     -15.972   6.163  23.385  0.00  0.00    +0.115 A 
ATOM     23  C   UNL     1     -13.680   5.994  21.912  0.00  0.00    +0.020 A 
ATOM     24  C   UNL     1     -14.371   7.182  22.088  0.00  0.00    +0.111 A 
ENDBRANCH  19  20
ENDBRANCH   2  19
ENDBRANCH  12  17
ENDBRANCH   8  12
BRANCH   7  13
ATOM     13  C   UNL     1     -13.851   0.777  30.625  0.00  0.00    +0.126 C 
BRANCH  13  18
ATOM      3  N   UNL     1     -13.415  -1.355  29.161  0.00  0.00    -0.197 NA
ATOM     18  C   UNL     1     -13.605  -0.415  29.814  0.00  0.00    +0.063 C 
ENDBRANCH  13  18
ENDBRANCH   7  13
TORSDOF 7
ENDMDL
MODEL 6
REMARK VINA RESULT:      -5.5      3.889      7.377
REMARK  Name = 38029990
REMARK  10 active torsions:
REMARK  status: ('A' for Active; 'I' for Inactive)
REMARK    1  A    between atoms: N_2  and  C_19
REMARK    2  A    between atoms: C_5  and  C_9
REMARK    3  A    between atoms: C_7  and  C_13
REMARK    4  A    between atoms: C_8  and  C_12
REMARK    5  A    between atoms: C_9  and  C_14
REMARK    6  A    between atoms: C_9  and  C_15
REMARK    7  A    between atoms: C_10  and  C_16
REMARK    8  A    between atoms: C_12  and  C_17
REMARK    9  A    between atoms: C_13  and  C_18
REMARK   10  A    between atoms: C_19  and  C_20
REMARK                            x       y       z     vdW  Elec       q    Type
REMARK                         _______ _______ _______ _____ _____    ______ ____
ROOT
ATOM      5  C   UNL     1     -15.205   2.724  30.930  0.00  0.00    -0.000 C 
ATOM      6  C   UNL     1     -16.552   3.316  30.490  0.00  0.00    +0.012 C 
ATOM      7  C   UNL     1     -15.210   1.184  30.763  0.00  0.00    +0.029 C 
ATOM      8  C   UNL     1     -16.881   2.985  29.022  0.00  0.00    +0.023 C 
ATOM     10  C   UNL     1     -16.651   1.520  28.709  0.00  0.00    -0.073 C 
ATOM     11  C   UNL     1     -15.913   0.728  29.507  0.00  0.00    -0.023 C 
ATOM     16  C   UNL     1     -17.329   0.975  27.482  0.00  0.00    +0.039 C 
ENDROOT
BRANCH   5   9
ATOM      9  C   UNL     1     -14.903   3.139  32.373  0.00  0.00    -0.013 C 
ATOM     14  C   UNL     1     -13.754   4.143  32.409  0.00  0.00    +0.007 C 
ATOM     15  C   UNL     1     -16.150   3.720  33.032  0.00  0.00    +0.007 C 
ENDBRANCH   5   9
BRANCH   8  12
ATOM     12  C   UNL     1     -16.091   3.882  28.062  0.00  0.00    +0.103 C 
BRANCH  12  17
ATOM      1  O   UNL     1     -18.119   4.802  27.117  0.00  0.00    -0.276 OA
ATOM      2  N   UNL     1     -16.272   4.458  25.749  0.00  0.00    -0.311 N 
ATOM     17  C   UNL     1     -16.959   4.433  26.954  0.00  0.00    +0.214 C 
ATOM     25  H   UNL     1     -15.310   4.132  25.714  0.00  0.00    +0.149 HD
BRANCH   2  19
ATOM     19  C   UNL     1     -16.856   4.936  24.517  0.00  0.00    +0.141 C 
BRANCH  19  20
ATOM      4  N   UNL     1     -18.011   3.044  21.453  0.00  0.00    -0.263 NA
ATOM     20  C   UNL     1     -17.319   3.810  23.640  0.00  0.00    -0.012 A 
ATOM     21  C   UNL     1     -17.492   2.527  24.151  0.00  0.00    +0.008 A 
ATOM     22  C   UNL     1     -17.590   4.014  22.296  0.00  0.00    +0.115 A 
ATOM     23  C   UNL     1     -17.924   1.504  23.315  0.00  0.00    +0.020 A 
ATOM     24  C   UNL     1     -18.167   1.811  21.986  0.00  0.00    +0.111 A 
ENDBRANCH  19  20
ENDBRANCH   2  19
ENDBRANCH  12  17
ENDBRANCH   8  12
BRANCH   7  13
ATOM     13  C   UNL     1     -13.785   0.621  30.785  0.00  0.00    +0.126 C 
BRANCH  13  18
ATOM      3  N   UNL     1     -13.555  -1.370  29.092  0.00  0.00    -0.197 NA
ATOM     18  C   UNL     1     -13.651  -0.487  29.839  0.00  0.00    +0.063 C 
ENDBRANCH  13  18
ENDBRANCH   7  13
TORSDOF 7
ENDMDL
MODEL 7
REMARK VINA RESULT:      -5.4     34.901     37.008
REMARK  Name = 38029990
REMARK  10 active torsions:
REMARK  status: ('A' for Active; 'I' for Inactive)
REMARK    1  A    between atoms: N_2  and  C_19
REMARK    2  A    between atoms: C_5  and  C_9
REMARK    3  A    between atoms: C_7  and  C_13
REMARK    4  A    between atoms: C_8  and  C_12
REMARK    5  A    between atoms: C_9  and  C_14
REMARK    6  A    between atoms: C_9  and  C_15
REMARK    7  A    between atoms: C_10  and  C_16
REMARK    8  A    between atoms: C_12  and  C_17
REMARK    9  A    between atoms: C_13  and  C_18
REMARK   10  A    between atoms: C_19  and  C_20
REMARK                            x       y       z     vdW  Elec       q    Type
REMARK                         _______ _______ _______ _____ _____    ______ ____
ROOT
ATOM      5  C   UNL     1       9.087   8.849   6.002  0.00  0.00    -0.000 C 
ATOM      6  C   UNL     1       8.441   7.589   5.407  0.00  0.00    +0.012 C 
ATOM      7  C   UNL     1       9.095   8.773   7.549  0.00  0.00    +0.029 C 
ATOM      8  C   UNL     1       9.175   6.302   5.829  0.00  0.00    +0.023 C 
ATOM     10  C   UNL     1       9.459   6.279   7.318  0.00  0.00    -0.073 C 
ATOM     11  C   UNL     1       9.404   7.391   8.072  0.00  0.00    -0.023 C 
ATOM     16  C   UNL     1       9.761   4.938   7.929  0.00  0.00    +0.039 C 
ENDROOT
BRANCH   5   9
ATOM      9  C   UNL     1       8.356  10.095   5.496  0.00  0.00    -0.013 C 
ATOM     14  C   UNL     1       9.317  11.008   4.741  0.00  0.00    +0.007 C 
ATOM     15  C   UNL     1       7.177   9.699   4.611  0.00  0.00    +0.007 C 
ENDBRANCH   5   9
BRANCH   8  12
ATOM     12  C   UNL     1      10.464   6.111   5.022  0.00  0.00    +0.103 C 
BRANCH  12  17
ATOM      1  O   UNL     1      10.326   3.722   4.665  0.00  0.00    -0.276 OA
ATOM      2  N   UNL     1      10.539   5.142   2.838  0.00  0.00    -0.311 N 
ATOM     17  C   UNL     1      10.431   4.849   4.190  0.00  0.00    +0.214 C 
ATOM     25  H   UNL     1      10.620   6.110   2.540  0.00  0.00    +0.149 HD
BRANCH   2  19
ATOM     19  C   UNL     1      10.537   4.129   1.808  0.00  0.00    +0.141 C 
BRANCH  19  20
ATOM      4  N   UNL     1      13.159   4.372  -0.905  0.00  0.00    -0.263 NA
ATOM     20  C   UNL     1      11.860   4.037   1.106  0.00  0.00    -0.012 A 
ATOM     21  C   UNL     1      12.987   3.553   1.762  0.00  0.00    +0.008 A 
ATOM     22  C   UNL     1      11.997   4.430  -0.216  0.00  0.00    +0.115 A 
ATOM     23  C   UNL     1      14.200   3.478   1.086  0.00  0.00    +0.020 A 
ATOM     24  C   UNL     1      14.232   3.896  -0.235  0.00  0.00    +0.111 A 
ENDBRANCH  19  20
ENDBRANCH   2  19
ENDBRANCH  12  17
ENDBRANCH   8  12
BRANCH   7  13
ATOM     13  C   UNL     1      10.085   9.780   8.147  0.00  0.00    +0.126 C 
BRANCH  13  18
ATOM      3  N   UNL     1       8.891  11.309   9.911  0.00  0.00    -0.197 NA
ATOM     18  C   UNL     1       9.422  10.638   9.129  0.00  0.00    +0.063 C 
ENDBRANCH  13  18
ENDBRANCH   7  13
TORSDOF 7
ENDMDL
MODEL 8
REMARK VINA RESULT:      -5.3      9.883     11.835
REMARK  Name = 38029990
REMARK  10 active torsions:
REMARK  status: ('A' for Active; 'I' for Inactive)
REMARK    1  A    between atoms: N_2  and  C_19
REMARK    2  A    between atoms: C_5  and  C_9
REMARK    3  A    between atoms: C_7  and  C_13
REMARK    4  A    between atoms: C_8  and  C_12
REMARK    5  A    between atoms: C_9  and  C_14
REMARK    6  A    between atoms: C_9  and  C_15
REMARK    7  A    between atoms: C_10  and  C_16
REMARK    8  A    between atoms: C_12  and  C_17
REMARK    9  A    between atoms: C_13  and  C_18
REMARK   10  A    between atoms: C_19  and  C_20
REMARK                            x       y       z     vdW  Elec       q    Type
REMARK                         _______ _______ _______ _____ _____    ______ ____
ROOT
ATOM      5  C   UNL     1     -12.139   9.967  18.658  0.00  0.00    -0.000 C 
ATOM      6  C   UNL     1     -11.508  10.039  20.057  0.00  0.00    +0.012 C 
ATOM      7  C   UNL     1     -11.850   8.592  18.005  0.00  0.00    +0.029 C 
ATOM      8  C   UNL     1     -12.035   8.934  20.992  0.00  0.00    +0.023 C 
ATOM     10  C   UNL     1     -12.031   7.576  20.317  0.00  0.00    -0.073 C 
ATOM     11  C   UNL     1     -11.933   7.444  18.982  0.00  0.00    -0.023 C 
ATOM     16  C   UNL     1     -12.094   6.373  21.216  0.00  0.00    +0.039 C 
ENDROOT
BRANCH   5   9
ATOM      9  C   UNL     1     -11.628  11.125  17.798  0.00  0.00    -0.013 C 
ATOM     14  C   UNL     1     -12.289  12.434  18.218  0.00  0.00    +0.007 C 
ATOM     15  C   UNL     1     -10.108  11.231  17.896  0.00  0.00    +0.007 C 
ENDBRANCH   5   9
BRANCH   8  12
ATOM     12  C   UNL     1     -13.430   9.278  21.524  0.00  0.00    +0.103 C 
BRANCH  12  17
ATOM      1  O   UNL     1     -14.069  11.558  22.021  0.00  0.00    -0.276 OA
ATOM      2  N   UNL     1     -12.619  10.438  23.451  0.00  0.00    -0.311 N 
ATOM     17  C   UNL     1     -13.431  10.556  22.331  0.00  0.00    +0.214 C 
ATOM     25  H   UNL     1     -12.132   9.563  23.625  0.00  0.00    +0.149 HD
BRANCH   2  19
ATOM     19  C   UNL     1     -12.429  11.506  24.405  0.00  0.00    +0.141 C 
BRANCH  19  20
ATOM      4  N   UNL     1     -12.886  10.489  28.017  0.00  0.00    -0.263 NA
ATOM     20  C   UNL     1     -12.122  10.986  25.778  0.00  0.00    -0.012 A 
ATOM     21  C   UNL     1     -10.848  10.532  26.104  0.00  0.00    +0.008 A 
ATOM     22  C   UNL     1     -13.097  10.944  26.762  0.00  0.00    +0.115 A 
ATOM     23  C   UNL     1     -10.592  10.057  27.386  0.00  0.00    +0.020 A 
ATOM     24  C   UNL     1     -11.636  10.056  28.297  0.00  0.00    +0.111 A 
ENDBRANCH  19  20
ENDBRANCH   2  19
ENDBRANCH  12  17
ENDBRANCH   8  12
BRANCH   7  13
ATOM     13  C   UNL     1     -12.794   8.330  16.827  0.00  0.00    +0.126 C 
BRANCH  13  18
ATOM      3  N   UNL     1     -15.296   8.315  17.615  0.00  0.00    -0.197 NA
ATOM     18  C   UNL     1     -14.188   8.328  17.270  0.00  0.00    +0.063 C 
ENDBRANCH  13  18
ENDBRANCH   7  13
TORSDOF 7
ENDMDL
MODEL 9
REMARK VINA RESULT:      -5.3     36.532     38.483
REMARK  Name = 38029990
REMARK  10 active torsions:
REMARK  status: ('A' for Active; 'I' for Inactive)
REMARK    1  A    between atoms: N_2  and  C_19
REMARK    2  A    between atoms: C_5  and  C_9
REMARK    3  A    between atoms: C_7  and  C_13
REMARK    4  A    between atoms: C_8  and  C_12
REMARK    5  A    between atoms: C_9  and  C_14
REMARK    6  A    between atoms: C_9  and  C_15
REMARK    7  A    between atoms: C_10  and  C_16
REMARK    8  A    between atoms: C_12  and  C_17
REMARK    9  A    between atoms: C_13  and  C_18
REMARK   10  A    between atoms: C_19  and  C_20
REMARK                            x       y       z     vdW  Elec       q    Type
REMARK                         _______ _______ _______ _____ _____    ______ ____
ROOT
ATOM      5  C   UNL     1       9.024   8.535   3.212  0.00  0.00    -0.000 C 
ATOM      6  C   UNL     1       9.488   7.265   2.484  0.00  0.00    +0.012 C 
ATOM      7  C   UNL     1       7.979   8.184   4.301  0.00  0.00    +0.029 C 
ATOM      8  C   UNL     1      10.111   6.236   3.446  0.00  0.00    +0.023 C 
ATOM     10  C   UNL     1       9.260   6.035   4.684  0.00  0.00    -0.073 C 
ATOM     11  C   UNL     1       8.303   6.909   5.042  0.00  0.00    -0.023 C 
ATOM     16  C   UNL     1       9.503   4.780   5.476  0.00  0.00    +0.039 C 
ENDROOT
BRANCH   5   9
ATOM      9  C   UNL     1       8.474   9.543   2.199  0.00  0.00    -0.013 C 
ATOM     14  C   UNL     1       9.295   9.508   0.914  0.00  0.00    +0.007 C 
ATOM     15  C   UNL     1       7.003   9.258   1.910  0.00  0.00    +0.007 C 
ENDBRANCH   5   9
BRANCH   8  12
ATOM     12  C   UNL     1      11.543   6.630   3.824  0.00  0.00    +0.103 C 
BRANCH  12  17
ATOM      1  O   UNL     1      13.564   6.596   2.493  0.00  0.00    -0.276 OA
ATOM      2  N   UNL     1      12.218   4.704   2.578  0.00  0.00    -0.311 N 
ATOM     17  C   UNL     1      12.566   6.008   2.899  0.00  0.00    +0.214 C 
ATOM     25  H   UNL     1      11.370   4.302   2.967  0.00  0.00    +0.149 HD
BRANCH   2  19
ATOM     19  C   UNL     1      13.013   3.866   1.710  0.00  0.00    +0.141 C 
BRANCH  19  20
ATOM      4  N   UNL     1      10.484   4.024  -1.096  0.00  0.00    -0.263 NA
ATOM     20  C   UNL     1      12.401   3.729   0.346  0.00  0.00    -0.012 A 
ATOM     21  C   UNL     1      13.129   3.203  -0.716  0.00  0.00    +0.008 A 
ATOM     22  C   UNL     1      11.094   4.121   0.106  0.00  0.00    +0.115 A 
ATOM     23  C   UNL     1      12.535   3.087  -1.968  0.00  0.00    +0.020 A 
ATOM     24  C   UNL     1      11.222   3.508  -2.105  0.00  0.00    +0.111 A 
ENDBRANCH  19  20
ENDBRANCH   2  19
ENDBRANCH  12  17
ENDBRANCH   8  12
BRANCH   7  13
ATOM     13  C   UNL     1       7.819   9.332   5.304  0.00  0.00    +0.126 C 
BRANCH  13  18
ATOM      3  N   UNL     1      10.007   9.658   6.713  0.00  0.00    -0.197 NA
ATOM     18  C   UNL     1       9.040   9.507   6.091  0.00  0.00    +0.063 C 
ENDBRANCH  13  18
ENDBRANCH   7  13
TORSDOF 7
ENDMDL
MODEL 10
REMARK VINA RESULT:      -5.3     36.977     38.829
REMARK  Name = 38029990
REMARK  10 active torsions:
REMARK  status: ('A' for Active; 'I' for Inactive)
REMARK    1  A    between atoms: N_2  and  C_19
REMARK    2  A    between atoms: C_5  and  C_9
REMARK    3  A    between atoms: C_7  and  C_13
REMARK    4  A    between atoms: C_8  and  C_12
REMARK    5  A    between atoms: C_9  and  C_14
REMARK    6  A    between atoms: C_9  and  C_15
REMARK    7  A    between atoms: C_10  and  C_16
REMARK    8  A    between atoms: C_12  and  C_17
REMARK    9  A    between atoms: C_13  and  C_18
REMARK   10  A    between atoms: C_19  and  C_20
REMARK                            x       y       z     vdW  Elec       q    Type
REMARK                         _______ _______ _______ _____ _____    ______ ____
ROOT
ATOM      5  C   UNL     1       9.464   7.151   4.798  0.00  0.00    -0.000 C 
ATOM      6  C   UNL     1       9.333   7.048   3.271  0.00  0.00    +0.012 C 
ATOM      7  C   UNL     1       9.350   5.748   5.446  0.00  0.00    +0.029 C 
ATOM      8  C   UNL     1      10.410   6.137   2.654  0.00  0.00    +0.023 C 
ATOM     10  C   UNL     1      10.544   4.830   3.411  0.00  0.00    -0.073 C 
ATOM     11  C   UNL     1      10.051   4.672   4.652  0.00  0.00    -0.023 C 
ATOM     16  C   UNL     1      11.216   3.695   2.689  0.00  0.00    +0.039 C 
ENDROOT
BRANCH   5   9
ATOM      9  C   UNL     1       8.410   8.117   5.346  0.00  0.00    -0.013 C 
ATOM     14  C   UNL     1       9.071   9.208   6.183  0.00  0.00    +0.007 C 
ATOM     15  C   UNL     1       7.602   8.727   4.203  0.00  0.00    +0.007 C 
ENDBRANCH   5   9
BRANCH   8  12
ATOM     12  C   UNL     1      11.759   6.858   2.563  0.00  0.00    +0.103 C 
BRANCH  12  17
ATOM      1  O   UNL     1      13.497   7.098   0.896  0.00  0.00    -0.276 OA
ATOM      2  N   UNL     1      11.368   6.431   0.243  0.00  0.00    -0.311 N 
ATOM     17  C   UNL     1      12.331   6.818   1.164  0.00  0.00    +0.214 C 
ATOM     25  H   UNL     1      10.428   6.216   0.563  0.00  0.00    +0.149 HD
BRANCH   2  19
ATOM     19  C   UNL     1      11.634   6.306  -1.171  0.00  0.00    +0.141 C 
BRANCH  19  20
ATOM      4  N   UNL     1      10.111   3.264  -2.822  0.00  0.00    -0.263 NA
ATOM     20  C   UNL     1      11.460   4.896  -1.654  0.00  0.00    -0.012 A 
ATOM     21  C   UNL     1      12.428   3.929  -1.406  0.00  0.00    +0.008 A 
ATOM     22  C   UNL     1      10.330   4.516  -2.360  0.00  0.00    +0.115 A 
ATOM     23  C   UNL     1      12.239   2.630  -1.865  0.00  0.00    +0.020 A 
ATOM     24  C   UNL     1      11.074   2.352  -2.561  0.00  0.00    +0.111 A 
ENDBRANCH  19  20
ENDBRANCH   2  19
ENDBRANCH  12  17
ENDBRANCH   8  12
BRANCH   7  13
ATOM     13  C   UNL     1       9.887   5.757   6.881  0.00  0.00    +0.126 C 
BRANCH  13  18
ATOM      3  N   UNL     1      12.336   6.694   6.941  0.00  0.00    -0.197 NA
ATOM     18  C   UNL     1      11.255   6.275   6.920  0.00  0.00    +0.063 C 
ENDBRANCH  13  18
ENDBRANCH   7  13
TORSDOF 7
ENDMDL
