MODEL 1
REMARK VINA RESULT:      -7.5      0.000      0.000
REMARK  Name = 45360924
REMARK  10 active torsions:
REMARK  status: ('A' for Active; 'I' for Inactive)
REMARK    1  A    between atoms: O_4  and  C_29
REMARK    2  A    between atoms: N_6  and  C_17
REMARK    3  A    between atoms: N_7  and  C_19
REMARK    4  A    between atoms: N_9  and  C_28
REMARK    5  A    between atoms: C_14  and  C_18
REMARK    6  A    between atoms: C_17  and  C_21
REMARK    7  A    between atoms: C_18  and  C_20
REMARK    8  A    between atoms: C_20  and  C_22
REMARK    9  A    between atoms: C_27  and  C_29
REMARK   10  A    between atoms: C_28  and  C_30
REMARK                            x       y       z     vdW  Elec       q    Type
REMARK                         _______ _______ _______ _____ _____    ______ ____
ROOT
ATOM      2  O   UNL     1      -6.129  -9.545  13.173  0.00  0.00    -0.274 OA
ATOM      6  N   UNL     1      -4.174 -11.281  13.856  0.00  0.00    -0.286 NA
ATOM      7  N   UNL     1      -4.792 -11.743  10.280  0.00  0.00    -0.296 NA
ATOM      8  N   UNL     1      -5.230  -9.023  11.135  0.00  0.00    -0.312 N 
ATOM     10  C   UNL     1      -3.954 -11.808  11.498  0.00  0.00    +0.084 C 
ATOM     11  C   UNL     1      -4.055 -10.646  12.530  0.00  0.00    +0.161 C 
ATOM     12  C   UNL     1      -4.225 -13.043  12.377  0.00  0.00    +0.036 C 
ATOM     13  C   UNL     1      -3.670 -12.643  13.727  0.00  0.00    +0.087 C 
ATOM     14  C   UNL     1      -4.480 -10.599   9.378  0.00  0.00    +0.074 C 
ATOM     15  C   UNL     1      -5.245  -9.710  12.333  0.00  0.00    +0.232 C 
ATOM     16  C   UNL     1      -4.250  -9.253  10.092  0.00  0.00    +0.123 C 
ATOM     19  C   UNL     1      -4.732 -13.012   9.533  0.00  0.00    +0.105 C 
ATOM     36  H   UNL     1      -5.982  -8.366  10.952  0.00  0.00    +0.149 HD
ENDROOT
BRANCH   6  17
ATOM     17  C   UNL     1      -3.493 -10.541  14.912  0.00  0.00    +0.120 C 
BRANCH  17  21
ATOM     21  C   UNL     1      -4.234 -10.620  16.220  0.00  0.00    -0.033 A 
ATOM     23  C   UNL     1      -3.742 -11.420  17.252  0.00  0.00    +0.006 A 
ATOM     24  C   UNL     1      -5.410  -9.893  16.401  0.00  0.00    +0.006 A 
ATOM     25  C   UNL     1      -4.428 -11.493  18.464  0.00  0.00    +0.015 A 
ATOM     26  C   UNL     1      -6.097  -9.967  17.612  0.00  0.00    +0.015 A 
ATOM     27  C   UNL     1      -5.605 -10.766  18.645  0.00  0.00    +0.059 A 
BRANCH  27  29
ATOM      5  O   UNL     1      -5.864 -11.297  20.963  0.00  0.00    -0.245 OA
ATOM     29  C   UNL     1      -6.320 -10.841  19.909  0.00  0.00    +0.337 C 
BRANCH  29   4
ATOM      4  O   UNL     1      -7.584 -10.344  19.822  0.00  0.00    -0.477 OA
ATOM     38  H   UNL     1      -8.134 -10.607  20.592  0.00  0.00    +0.295 HD
ENDBRANCH  29   4
ENDBRANCH  27  29
ENDBRANCH  17  21
ENDBRANCH   6  17
BRANCH  14  18
ATOM     18  C   UNL     1      -5.618 -10.393   8.355  0.00  0.00    +0.029 C 
BRANCH  18  20
ATOM     20  C   UNL     1      -5.127 -10.665   6.944  0.00  0.00    +0.097 C 
BRANCH  20  22
ATOM      3  O   UNL     1      -6.436 -10.760   4.908  0.00  0.00    -0.276 OA
ATOM      9  N   UNL     1      -6.524  -8.847   6.221  0.00  0.00    -0.311 N 
ATOM     22  C   UNL     1      -6.092 -10.126   5.903  0.00  0.00    +0.213 C 
ATOM     37  H   UNL     1      -6.170  -8.382   7.052  0.00  0.00    +0.149 HD
BRANCH   9  28
ATOM     28  C   UNL     1      -7.448  -8.115   5.387  0.00  0.00    +0.139 C 
BRANCH  28  30
ATOM      1  F   UNL     1     -11.345  -5.420   8.436  0.00  0.00    -0.205 F 
ATOM     30  C   UNL     1      -8.489  -7.395   6.200  0.00  0.00    -0.030 A 
ATOM     31  C   UNL     1      -8.140  -6.806   7.416  0.00  0.00    +0.008 A 
ATOM     32  C   UNL     1      -9.804  -7.318   5.741  0.00  0.00    +0.008 A 
ATOM     33  C   UNL     1      -9.104  -6.138   8.171  0.00  0.00    +0.038 A 
ATOM     34  C   UNL     1     -10.769  -6.651   6.496  0.00  0.00    +0.038 A 
ATOM     35  C   UNL     1     -10.419  -6.062   7.711  0.00  0.00    +0.123 A 
ENDBRANCH  28  30
ENDBRANCH   9  28
ENDBRANCH  20  22
ENDBRANCH  18  20
ENDBRANCH  14  18
TORSDOF 9
ENDMDL
MODEL 2
REMARK VINA RESULT:      -7.4      3.009      9.431
REMARK  Name = 45360924
REMARK  10 active torsions:
REMARK  status: ('A' for Active; 'I' for Inactive)
REMARK    1  A    between atoms: O_4  and  C_29
REMARK    2  A    between atoms: N_6  and  C_17
REMARK    3  A    between atoms: N_7  and  C_19
REMARK    4  A    between atoms: N_9  and  C_28
REMARK    5  A    between atoms: C_14  and  C_18
REMARK    6  A    between atoms: C_17  and  C_21
REMARK    7  A    between atoms: C_18  and  C_20
REMARK    8  A    between atoms: C_20  and  C_22
REMARK    9  A    between atoms: C_27  and  C_29
REMARK   10  A    between atoms: C_28  and  C_30
REMARK                            x       y       z     vdW  Elec       q    Type
REMARK                         _______ _______ _______ _____ _____    ______ ____
ROOT
ATOM      2  O   UNL     1      -5.926  -9.483  13.360  0.00  0.00    -0.274 OA
ATOM      6  N   UNL     1      -3.836 -10.594  12.058  0.00  0.00    -0.286 NA
ATOM      7  N   UNL     1      -3.096 -10.829  15.634  0.00  0.00    -0.296 NA
ATOM      8  N   UNL     1      -5.922 -10.996  15.075  0.00  0.00    -0.312 N 
ATOM     10  C   UNL     1      -2.969 -11.261  14.224  0.00  0.00    +0.084 C 
ATOM     11  C   UNL     1      -4.238 -11.236  13.323  0.00  0.00    +0.161 C 
ATOM     12  C   UNL     1      -1.975 -10.419  13.401  0.00  0.00    +0.036 C 
ATOM     13  C   UNL     1      -2.384 -10.693  11.969  0.00  0.00    +0.087 C 
ATOM     14  C   UNL     1      -3.989 -11.687  16.462  0.00  0.00    +0.074 C 
ATOM     15  C   UNL     1      -5.424 -10.468  13.900  0.00  0.00    +0.232 C 
ATOM     16  C   UNL     1      -5.305 -12.105  15.779  0.00  0.00    +0.123 C 
ATOM     19  C   UNL     1      -1.772 -10.709  16.268  0.00  0.00    +0.105 C 
ATOM     36  H   UNL     1      -6.726 -10.545  15.500  0.00  0.00    +0.149 HD
ENDROOT
BRANCH   6  17
ATOM     17  C   UNL     1      -4.497 -11.159  10.888  0.00  0.00    +0.120 C 
BRANCH  17  21
ATOM     21  C   UNL     1      -5.422 -10.168  10.233  0.00  0.00    -0.033 A 
ATOM     23  C   UNL     1      -6.724 -10.544   9.900  0.00  0.00    +0.006 A 
ATOM     24  C   UNL     1      -4.978  -8.874   9.960  0.00  0.00    +0.006 A 
ATOM     25  C   UNL     1      -7.580  -9.626   9.292  0.00  0.00    +0.015 A 
ATOM     26  C   UNL     1      -5.834  -7.957   9.352  0.00  0.00    +0.015 A 
ATOM     27  C   UNL     1      -7.136  -8.332   9.019  0.00  0.00    +0.059 A 
BRANCH  27  29
ATOM      5  O   UNL     1      -9.112  -6.995   8.845  0.00  0.00    -0.245 OA
ATOM     29  C   UNL     1      -8.029  -7.374   8.387  0.00  0.00    +0.337 C 
BRANCH  29   4
ATOM      4  O   UNL     1      -7.545  -6.914   7.201  0.00  0.00    -0.477 OA
ATOM     38  H   UNL     1      -7.439  -5.939   7.203  0.00  0.00    +0.295 HD
ENDBRANCH  29   4
ENDBRANCH  27  29
ENDBRANCH  17  21
ENDBRANCH   6  17
BRANCH  14  18
ATOM     18  C   UNL     1      -4.356 -10.969  17.779  0.00  0.00    +0.029 C 
BRANCH  18  20
ATOM     20  C   UNL     1      -4.600 -11.976  18.888  0.00  0.00    +0.097 C 
BRANCH  20  22
ATOM      3  O   UNL     1      -5.890 -11.242  20.802  0.00  0.00    -0.276 OA
ATOM      9  N   UNL     1      -7.004 -11.933  18.885  0.00  0.00    -0.311 N 
ATOM     22  C   UNL     1      -5.877 -11.670  19.650  0.00  0.00    +0.213 C 
ATOM     37  H   UNL     1      -6.906 -12.312  17.948  0.00  0.00    +0.149 HD
BRANCH   9  28
ATOM     28  C   UNL     1      -8.342 -11.724  19.386  0.00  0.00    +0.139 C 
BRANCH  28  30
ATOM      1  F   UNL     1     -10.897  -7.409  16.816  0.00  0.00    -0.205 F 
ATOM     30  C   UNL     1      -9.023 -10.571  18.699  0.00  0.00    -0.030 A 
ATOM     31  C   UNL     1     -10.367 -10.299  18.961  0.00  0.00    +0.008 A 
ATOM     32  C   UNL     1      -8.314  -9.775  17.800  0.00  0.00    +0.008 A 
ATOM     33  C   UNL     1     -11.000  -9.231  18.326  0.00  0.00    +0.038 A 
ATOM     34  C   UNL     1      -8.946  -8.707  17.164  0.00  0.00    +0.038 A 
ATOM     35  C   UNL     1     -10.289  -8.435  17.426  0.00  0.00    +0.123 A 
ENDBRANCH  28  30
ENDBRANCH   9  28
ENDBRANCH  20  22
ENDBRANCH  18  20
ENDBRANCH  14  18
TORSDOF 9
ENDMDL
MODEL 3
REMARK VINA RESULT:      -7.4      4.318      7.514
REMARK  Name = 45360924
REMARK  10 active torsions:
REMARK  status: ('A' for Active; 'I' for Inactive)
REMARK    1  A    between atoms: O_4  and  C_29
REMARK    2  A    between atoms: N_6  and  C_17
REMARK    3  A    between atoms: N_7  and  C_19
REMARK    4  A    between atoms: N_9  and  C_28
REMARK    5  A    between atoms: C_14  and  C_18
REMARK    6  A    between atoms: C_17  and  C_21
REMARK    7  A    between atoms: C_18  and  C_20
REMARK    8  A    between atoms: C_20  and  C_22
REMARK    9  A    between atoms: C_27  and  C_29
REMARK   10  A    between atoms: C_28  and  C_30
REMARK                            x       y       z     vdW  Elec       q    Type
REMARK                         _______ _______ _______ _____ _____    ______ ____
ROOT
ATOM      2  O   UNL     1      -7.968  -9.484  15.601  0.00  0.00    -0.274 OA
ATOM      6  N   UNL     1      -9.045 -11.019  17.546  0.00  0.00    -0.286 NA
ATOM      7  N   UNL     1      -5.869 -12.578  16.609  0.00  0.00    -0.296 NA
ATOM      8  N   UNL     1      -5.814  -9.706  16.340  0.00  0.00    -0.312 N 
ATOM     10  C   UNL     1      -6.980 -12.295  17.545  0.00  0.00    +0.084 C 
ATOM     11  C   UNL     1      -7.579 -10.858  17.573  0.00  0.00    +0.161 C 
ATOM     12  C   UNL     1      -8.233 -13.160  17.308  0.00  0.00    +0.036 C 
ATOM     13  C   UNL     1      -9.335 -12.378  17.990  0.00  0.00    +0.087 C 
ATOM     14  C   UNL     1      -4.623 -11.809  16.883  0.00  0.00    +0.074 C 
ATOM     15  C   UNL     1      -7.169  -9.966  16.403  0.00  0.00    +0.232 C 
ATOM     16  C   UNL     1      -4.839 -10.321  17.219  0.00  0.00    +0.123 C 
ATOM     19  C   UNL     1      -5.578 -14.021  16.562  0.00  0.00    +0.105 C 
ATOM     36  H   UNL     1      -5.478  -9.100  15.598  0.00  0.00    +0.149 HD
ENDROOT
BRANCH   6  17
ATOM     17  C   UNL     1      -9.750 -10.020  18.339  0.00  0.00    +0.120 C 
BRANCH  17  21
ATOM     21  C   UNL     1     -10.484  -9.032  17.473  0.00  0.00    -0.033 A 
ATOM     23  C   UNL     1     -11.548  -9.457  16.678  0.00  0.00    +0.006 A 
ATOM     24  C   UNL     1     -10.101  -7.691  17.467  0.00  0.00    +0.006 A 
ATOM     25  C   UNL     1     -12.228  -8.541  15.875  0.00  0.00    +0.015 A 
ATOM     26  C   UNL     1     -10.781  -6.775  16.665  0.00  0.00    +0.015 A 
ATOM     27  C   UNL     1     -11.845  -7.200  15.869  0.00  0.00    +0.059 A 
BRANCH  27  29
ATOM      5  O   UNL     1     -13.770  -6.250  14.813  0.00  0.00    -0.245 OA
ATOM     29  C   UNL     1     -12.554  -6.244  15.034  0.00  0.00    +0.337 C 
BRANCH  29   4
ATOM      4  O   UNL     1     -11.727  -5.306  14.498  0.00  0.00    -0.477 OA
ATOM     38  H   UNL     1     -11.760  -5.307  13.517  0.00  0.00    +0.295 HD
ENDBRANCH  29   4
ENDBRANCH  27  29
ENDBRANCH  17  21
ENDBRANCH   6  17
BRANCH  14  18
ATOM     18  C   UNL     1      -3.671 -11.877  15.669  0.00  0.00    +0.029 C 
BRANCH  18  20
ATOM     20  C   UNL     1      -2.436 -11.026  15.908  0.00  0.00    +0.097 C 
BRANCH  20  22
ATOM      3  O   UNL     1      -1.101  -9.513  14.569  0.00  0.00    -0.276 OA
ATOM      9  N   UNL     1      -2.419 -11.101  13.505  0.00  0.00    -0.311 N 
ATOM     22  C   UNL     1      -1.898 -10.447  14.612  0.00  0.00    +0.213 C 
ATOM     37  H   UNL     1      -3.095 -11.848  13.627  0.00  0.00    +0.149 HD
BRANCH   9  28
ATOM     28  C   UNL     1      -2.062 -10.735  12.154  0.00  0.00    +0.139 C 
BRANCH  28  30
ATOM      1  F   UNL     1      -6.298  -8.148   9.487  0.00  0.00    -0.205 F 
ATOM     30  C   UNL     1      -3.194 -10.044  11.443  0.00  0.00    -0.030 A 
ATOM     31  C   UNL     1      -2.972  -9.433  10.208  0.00  0.00    +0.008 A 
ATOM     32  C   UNL     1      -4.465 -10.014  12.016  0.00  0.00    +0.008 A 
ATOM     33  C   UNL     1      -4.019  -8.793   9.547  0.00  0.00    +0.038 A 
ATOM     34  C   UNL     1      -5.513  -9.373  11.357  0.00  0.00    +0.038 A 
ATOM     35  C   UNL     1      -5.290  -8.762  10.122  0.00  0.00    +0.123 A 
ENDBRANCH  28  30
ENDBRANCH   9  28
ENDBRANCH  20  22
ENDBRANCH  18  20
ENDBRANCH  14  18
TORSDOF 9
ENDMDL
MODEL 4
REMARK VINA RESULT:      -7.4      5.862      9.517
REMARK  Name = 45360924
REMARK  10 active torsions:
REMARK  status: ('A' for Active; 'I' for Inactive)
REMARK    1  A    between atoms: O_4  and  C_29
REMARK    2  A    between atoms: N_6  and  C_17
REMARK    3  A    between atoms: N_7  and  C_19
REMARK    4  A    between atoms: N_9  and  C_28
REMARK    5  A    between atoms: C_14  and  C_18
REMARK    6  A    between atoms: C_17  and  C_21
REMARK    7  A    between atoms: C_18  and  C_20
REMARK    8  A    between atoms: C_20  and  C_22
REMARK    9  A    between atoms: C_27  and  C_29
REMARK   10  A    between atoms: C_28  and  C_30
REMARK                            x       y       z     vdW  Elec       q    Type
REMARK                         _______ _______ _______ _____ _____    ______ ____
ROOT
ATOM      2  O   UNL     1      -8.300  -9.093  16.421  0.00  0.00    -0.274 OA
ATOM      6  N   UNL     1     -10.448 -10.328  17.498  0.00  0.00    -0.286 NA
ATOM      7  N   UNL     1      -7.672 -12.707  17.660  0.00  0.00    -0.296 NA
ATOM      8  N   UNL     1      -6.798  -9.968  17.908  0.00  0.00    -0.312 N 
ATOM     10  C   UNL     1      -8.968 -12.152  18.110  0.00  0.00    +0.084 C 
ATOM     11  C   UNL     1      -9.145 -10.605  18.132  0.00  0.00    +0.161 C 
ATOM     12  C   UNL     1     -10.169 -12.600  17.256  0.00  0.00    +0.036 C 
ATOM     13  C   UNL     1     -11.226 -11.560  17.562  0.00  0.00    +0.087 C 
ATOM     14  C   UNL     1      -6.515 -12.350  18.528  0.00  0.00    +0.074 C 
ATOM     15  C   UNL     1      -8.068  -9.822  17.385  0.00  0.00    +0.232 C 
ATOM     16  C   UNL     1      -6.478 -10.880  18.989  0.00  0.00    +0.123 C 
ATOM     19  C   UNL     1      -7.755 -14.168  17.497  0.00  0.00    +0.105 C 
ATOM     36  H   UNL     1      -6.039  -9.455  17.471  0.00  0.00    +0.149 HD
ENDROOT
BRANCH   6  17
ATOM     17  C   UNL     1     -11.153  -9.202  18.097  0.00  0.00    +0.120 C 
BRANCH  17  21
ATOM     21  C   UNL     1     -11.583  -8.195  17.065  0.00  0.00    -0.033 A 
ATOM     23  C   UNL     1     -10.850  -7.021  16.888  0.00  0.00    +0.006 A 
ATOM     24  C   UNL     1     -12.712  -8.436  16.282  0.00  0.00    +0.006 A 
ATOM     25  C   UNL     1     -11.248  -6.088  15.932  0.00  0.00    +0.015 A 
ATOM     26  C   UNL     1     -13.110  -7.503  15.326  0.00  0.00    +0.015 A 
ATOM     27  C   UNL     1     -12.377  -6.329  15.150  0.00  0.00    +0.059 A 
BRANCH  27  29
ATOM      5  O   UNL     1     -13.955  -5.164  13.780  0.00  0.00    -0.245 OA
ATOM     29  C   UNL     1     -12.792  -5.357  14.151  0.00  0.00    +0.337 C 
BRANCH  29   4
ATOM      4  O   UNL     1     -11.745  -4.652  13.642  0.00  0.00    -0.477 OA
ATOM     38  H   UNL     1     -11.638  -3.783  14.086  0.00  0.00    +0.295 HD
ENDBRANCH  29   4
ENDBRANCH  27  29
ENDBRANCH  17  21
ENDBRANCH   6  17
BRANCH  14  18
ATOM     18  C   UNL     1      -5.185 -12.641  17.800  0.00  0.00    +0.029 C 
BRANCH  18  20
ATOM     20  C   UNL     1      -4.103 -11.677  18.252  0.00  0.00    +0.097 C 
BRANCH  20  22
ATOM      3  O   UNL     1      -4.131 -10.018  16.488  0.00  0.00    -0.276 OA
ATOM      9  N   UNL     1      -2.232 -11.320  16.784  0.00  0.00    -0.311 N 
ATOM     22  C   UNL     1      -3.521 -10.902  17.083  0.00  0.00    +0.213 C 
ATOM     37  H   UNL     1      -1.809 -12.078  17.310  0.00  0.00    +0.149 HD
BRANCH   9  28
ATOM     28  C   UNL     1      -1.462 -10.738  15.711  0.00  0.00    +0.139 C 
BRANCH  28  30
ATOM      1  F   UNL     1      -3.109 -12.639  10.669  0.00  0.00    -0.205 F 
ATOM     30  C   UNL     1      -1.902 -11.246  14.365  0.00  0.00    -0.030 A 
ATOM     31  C   UNL     1      -2.170 -10.347  13.333  0.00  0.00    +0.008 A 
ATOM     32  C   UNL     1      -2.043 -12.617  14.148  0.00  0.00    +0.008 A 
ATOM     33  C   UNL     1      -2.577 -10.816  12.084  0.00  0.00    +0.038 A 
ATOM     34  C   UNL     1      -2.451 -13.088  12.900  0.00  0.00    +0.038 A 
ATOM     35  C   UNL     1      -2.718 -12.188  11.869  0.00  0.00    +0.123 A 
ENDBRANCH  28  30
ENDBRANCH   9  28
ENDBRANCH  20  22
ENDBRANCH  18  20
ENDBRANCH  14  18
TORSDOF 9
ENDMDL
MODEL 5
REMARK VINA RESULT:      -7.2      2.084      2.750
REMARK  Name = 45360924
REMARK  10 active torsions:
REMARK  status: ('A' for Active; 'I' for Inactive)
REMARK    1  A    between atoms: O_4  and  C_29
REMARK    2  A    between atoms: N_6  and  C_17
REMARK    3  A    between atoms: N_7  and  C_19
REMARK    4  A    between atoms: N_9  and  C_28
REMARK    5  A    between atoms: C_14  and  C_18
REMARK    6  A    between atoms: C_17  and  C_21
REMARK    7  A    between atoms: C_18  and  C_20
REMARK    8  A    between atoms: C_20  and  C_22
REMARK    9  A    between atoms: C_27  and  C_29
REMARK   10  A    between atoms: C_28  and  C_30
REMARK                            x       y       z     vdW  Elec       q    Type
REMARK                         _______ _______ _______ _____ _____    ______ ____
ROOT
ATOM      2  O   UNL     1      -6.231 -10.307  13.658  0.00  0.00    -0.274 OA
ATOM      6  N   UNL     1      -3.735 -11.330  13.508  0.00  0.00    -0.286 NA
ATOM      7  N   UNL     1      -4.856 -10.779  10.069  0.00  0.00    -0.296 NA
ATOM      8  N   UNL     1      -5.957  -8.853  11.914  0.00  0.00    -0.312 N 
ATOM     10  C   UNL     1      -3.822 -10.932  11.116  0.00  0.00    +0.084 C 
ATOM     11  C   UNL     1      -4.082 -10.297  12.514  0.00  0.00    +0.161 C 
ATOM     12  C   UNL     1      -3.513 -12.396  11.481  0.00  0.00    +0.036 C 
ATOM     13  C   UNL     1      -2.861 -12.290  12.842  0.00  0.00    +0.087 C 
ATOM     14  C   UNL     1      -5.103  -9.372   9.647  0.00  0.00    +0.074 C 
ATOM     15  C   UNL     1      -5.521  -9.851  12.762  0.00  0.00    +0.232 C 
ATOM     16  C   UNL     1      -5.176  -8.351  10.799  0.00  0.00    +0.123 C 
ATOM     19  C   UNL     1      -4.545 -11.616   8.898  0.00  0.00    +0.105 C 
ATOM     36  H   UNL     1      -6.898  -8.495  12.040  0.00  0.00    +0.149 HD
ENDROOT
BRANCH   6  17
ATOM     17  C   UNL     1      -3.132 -10.786  14.718  0.00  0.00    +0.120 C 
BRANCH  17  21
ATOM     21  C   UNL     1      -3.965 -11.072  15.939  0.00  0.00    -0.033 A 
ATOM     23  C   UNL     1      -4.459 -10.019  16.709  0.00  0.00    +0.006 A 
ATOM     24  C   UNL     1      -4.245 -12.390  16.299  0.00  0.00    +0.006 A 
ATOM     25  C   UNL     1      -5.230 -10.284  17.839  0.00  0.00    +0.015 A 
ATOM     26  C   UNL     1      -5.017 -12.655  17.430  0.00  0.00    +0.015 A 
ATOM     27  C   UNL     1      -5.511 -11.602  18.200  0.00  0.00    +0.059 A 
BRANCH  27  29
ATOM      5  O   UNL     1      -6.287 -11.236  20.433  0.00  0.00    -0.245 OA
ATOM     29  C   UNL     1      -6.317 -11.879  19.378  0.00  0.00    +0.337 C 
BRANCH  29   4
ATOM      4  O   UNL     1      -7.139 -12.950  19.207  0.00  0.00    -0.477 OA
ATOM     38  H   UNL     1      -6.852 -13.720  19.743  0.00  0.00    +0.295 HD
ENDBRANCH  29   4
ENDBRANCH  27  29
ENDBRANCH  17  21
ENDBRANCH   6  17
BRANCH  14  18
ATOM     18  C   UNL     1      -6.423  -9.271   8.853  0.00  0.00    +0.029 C 
BRANCH  18  20
ATOM     20  C   UNL     1      -6.893  -7.829   8.775  0.00  0.00    +0.097 C 
BRANCH  20  22
ATOM      3  O   UNL     1      -9.166  -8.665   8.765  0.00  0.00    -0.276 OA
ATOM      9  N   UNL     1      -8.754  -6.501   8.030  0.00  0.00    -0.311 N 
ATOM     22  C   UNL     1      -8.389  -7.741   8.535  0.00  0.00    +0.213 C 
ATOM     37  H   UNL     1      -8.044  -5.800   7.843  0.00  0.00    +0.149 HD
BRANCH   9  28
ATOM     28  C   UNL     1     -10.124  -6.169   7.717  0.00  0.00    +0.139 C 
BRANCH  28  30
ATOM      1  F   UNL     1     -12.550  -3.182  11.834  0.00  0.00    -0.205 F 
ATOM     30  C   UNL     1     -10.772  -5.372   8.817  0.00  0.00    -0.030 A 
ATOM     31  C   UNL     1     -10.646  -3.982   8.839  0.00  0.00    +0.008 A 
ATOM     32  C   UNL     1     -11.499  -6.021   9.816  0.00  0.00    +0.008 A 
ATOM     33  C   UNL     1     -11.246  -3.242   9.857  0.00  0.00    +0.038 A 
ATOM     34  C   UNL     1     -12.098  -5.282  10.834  0.00  0.00    +0.038 A 
ATOM     35  C   UNL     1     -11.972  -3.893  10.855  0.00  0.00    +0.123 A 
ENDBRANCH  28  30
ENDBRANCH   9  28
ENDBRANCH  20  22
ENDBRANCH  18  20
ENDBRANCH  14  18
TORSDOF 9
ENDMDL
MODEL 6
REMARK VINA RESULT:      -7.1     26.122     28.186
REMARK  Name = 45360924
REMARK  10 active torsions:
REMARK  status: ('A' for Active; 'I' for Inactive)
REMARK    1  A    between atoms: O_4  and  C_29
REMARK    2  A    between atoms: N_6  and  C_17
REMARK    3  A    between atoms: N_7  and  C_19
REMARK    4  A    between atoms: N_9  and  C_28
REMARK    5  A    between atoms: C_14  and  C_18
REMARK    6  A    between atoms: C_17  and  C_21
REMARK    7  A    between atoms: C_18  and  C_20
REMARK    8  A    between atoms: C_20  and  C_22
REMARK    9  A    between atoms: C_27  and  C_29
REMARK   10  A    between atoms: C_28  and  C_30
REMARK                            x       y       z     vdW  Elec       q    Type
REMARK                         _______ _______ _______ _____ _____    ______ ____
ROOT
ATOM      2  O   UNL     1      12.215   7.070   5.839  0.00  0.00    -0.274 OA
ATOM      6  N   UNL     1       9.975   7.633   4.438  0.00  0.00    -0.286 NA
ATOM      7  N   UNL     1      12.761   9.181   2.640  0.00  0.00    -0.296 NA
ATOM      8  N   UNL     1      13.532   6.753   3.995  0.00  0.00    -0.312 N 
ATOM     10  C   UNL     1      11.405   8.595   2.729  0.00  0.00    +0.084 C 
ATOM     11  C   UNL     1      11.191   7.357   3.650  0.00  0.00    +0.161 C 
ATOM     12  C   UNL     1      10.335   9.572   3.252  0.00  0.00    +0.036 C 
ATOM     13  C   UNL     1       9.224   8.659   3.723  0.00  0.00    +0.087 C 
ATOM     14  C   UNL     1      13.787   8.273   2.056  0.00  0.00    +0.074 C 
ATOM     15  C   UNL     1      12.337   7.065   4.615  0.00  0.00    +0.232 C 
ATOM     16  C   UNL     1      13.730   6.818   2.560  0.00  0.00    +0.123 C 
ATOM     19  C   UNL     1      12.733  10.458   1.906  0.00  0.00    +0.105 C 
ATOM     36  H   UNL     1      14.329   6.526   4.581  0.00  0.00    +0.149 HD
ENDROOT
BRANCH   6  17
ATOM     17  C   UNL     1       9.172   6.444   4.695  0.00  0.00    +0.120 C 
BRANCH  17  21
ATOM     21  C   UNL     1       9.235   6.025   6.140  0.00  0.00    -0.033 A 
ATOM     23  C   UNL     1       8.832   6.911   7.140  0.00  0.00    +0.006 A 
ATOM     24  C   UNL     1       9.693   4.753   6.479  0.00  0.00    +0.006 A 
ATOM     25  C   UNL     1       8.890   6.524   8.478  0.00  0.00    +0.015 A 
ATOM     26  C   UNL     1       9.751   4.366   7.817  0.00  0.00    +0.015 A 
ATOM     27  C   UNL     1       9.348   5.252   8.817  0.00  0.00    +0.059 A 
BRANCH  27  29
ATOM      5  O   UNL     1      10.442   4.605  10.844  0.00  0.00    -0.245 OA
ATOM     29  C   UNL     1       9.408   4.846  10.213  0.00  0.00    +0.337 C 
BRANCH  29   4
ATOM      4  O   UNL     1       8.175   4.754  10.782  0.00  0.00    -0.477 OA
ATOM     38  H   UNL     1       8.045   3.894  11.235  0.00  0.00    +0.295 HD
ENDBRANCH  29   4
ENDBRANCH  27  29
ENDBRANCH  17  21
ENDBRANCH   6  17
BRANCH  14  18
ATOM     18  C   UNL     1      15.206   8.808   2.342  0.00  0.00    +0.029 C 
BRANCH  18  20
ATOM     20  C   UNL     1      16.219   8.167   1.411  0.00  0.00    +0.097 C 
BRANCH  20  22
ATOM      3  O   UNL     1      17.961   9.848   1.488  0.00  0.00    -0.276 OA
ATOM      9  N   UNL     1      18.457   7.677   2.143  0.00  0.00    -0.311 N 
ATOM     22  C   UNL     1      17.623   8.682   1.673  0.00  0.00    +0.213 C 
ATOM     37  H   UNL     1      18.105   6.730   2.244  0.00  0.00    +0.149 HD
BRANCH   9  28
ATOM     28  C   UNL     1      19.844   7.913   2.466  0.00  0.00    +0.139 C 
BRANCH  28  30
ATOM      1  F   UNL     1      20.637   8.489   8.015  0.00  0.00    -0.205 F 
ATOM     30  C   UNL     1      20.055   8.068   3.948  0.00  0.00    -0.030 A 
ATOM     31  C   UNL     1      20.820   7.132   4.645  0.00  0.00    +0.008 A 
ATOM     32  C   UNL     1      19.486   9.146   4.627  0.00  0.00    +0.008 A 
ATOM     33  C   UNL     1      21.017   7.273   6.018  0.00  0.00    +0.038 A 
ATOM     34  C   UNL     1      19.682   9.288   6.000  0.00  0.00    +0.038 A 
ATOM     35  C   UNL     1      20.447   8.352   6.696  0.00  0.00    +0.123 A 
ENDBRANCH  28  30
ENDBRANCH   9  28
ENDBRANCH  20  22
ENDBRANCH  18  20
ENDBRANCH  14  18
TORSDOF 9
ENDMDL
MODEL 7
REMARK VINA RESULT:      -7.1     27.183     29.476
REMARK  Name = 45360924
REMARK  10 active torsions:
REMARK  status: ('A' for Active; 'I' for Inactive)
REMARK    1  A    between atoms: O_4  and  C_29
REMARK    2  A    between atoms: N_6  and  C_17
REMARK    3  A    between atoms: N_7  and  C_19
REMARK    4  A    between atoms: N_9  and  C_28
REMARK    5  A    between atoms: C_14  and  C_18
REMARK    6  A    between atoms: C_17  and  C_21
REMARK    7  A    between atoms: C_18  and  C_20
REMARK    8  A    between atoms: C_20  and  C_22
REMARK    9  A    between atoms: C_27  and  C_29
REMARK   10  A    between atoms: C_28  and  C_30
REMARK                            x       y       z     vdW  Elec       q    Type
REMARK                         _______ _______ _______ _____ _____    ______ ____
ROOT
ATOM      2  O   UNL     1      16.042   7.139   4.221  0.00  0.00    -0.274 OA
ATOM      6  N   UNL     1      17.190   9.188   5.556  0.00  0.00    -0.286 NA
ATOM      7  N   UNL     1      13.570   9.645   5.833  0.00  0.00    -0.296 NA
ATOM      8  N   UNL     1      14.328   6.864   5.710  0.00  0.00    -0.312 N 
ATOM     10  C   UNL     1      14.966   9.826   6.289  0.00  0.00    +0.084 C 
ATOM     11  C   UNL     1      15.955   8.632   6.141  0.00  0.00    +0.161 C 
ATOM     12  C   UNL     1      15.718  10.958   5.564  0.00  0.00    +0.036 C 
ATOM     13  C   UNL     1      17.174  10.625   5.807  0.00  0.00    +0.087 C 
ATOM     14  C   UNL     1      12.806   8.611   6.586  0.00  0.00    +0.074 C 
ATOM     15  C   UNL     1      15.465   7.496   5.247  0.00  0.00    +0.232 C 
ATOM     16  C   UNL     1      13.580   7.310   6.870  0.00  0.00    +0.123 C 
ATOM     19  C   UNL     1      12.843  10.926   5.847  0.00  0.00    +0.105 C 
ATOM     36  H   UNL     1      13.963   6.083   5.174  0.00  0.00    +0.149 HD
ENDROOT
BRANCH   6  17
ATOM     17  C   UNL     1      18.402   8.556   6.059  0.00  0.00    +0.120 C 
BRANCH  17  21
ATOM     21  C   UNL     1      19.308   8.109   4.943  0.00  0.00    -0.033 A 
ATOM     23  C   UNL     1      18.979   8.403   3.619  0.00  0.00    +0.006 A 
ATOM     24  C   UNL     1      20.475   7.403   5.231  0.00  0.00    +0.006 A 
ATOM     25  C   UNL     1      19.818   7.989   2.585  0.00  0.00    +0.015 A 
ATOM     26  C   UNL     1      21.314   6.989   4.197  0.00  0.00    +0.015 A 
ATOM     27  C   UNL     1      20.985   7.283   2.873  0.00  0.00    +0.059 A 
BRANCH  27  29
ATOM      5  O   UNL     1      22.194   7.542   0.825  0.00  0.00    -0.245 OA
ATOM     29  C   UNL     1      21.861   6.852   1.795  0.00  0.00    +0.337 C 
BRANCH  29   4
ATOM      4  O   UNL     1      22.298   5.574   1.958  0.00  0.00    -0.477 OA
ATOM     38  H   UNL     1      22.639   5.416   2.864  0.00  0.00    +0.295 HD
ENDBRANCH  29   4
ENDBRANCH  27  29
ENDBRANCH  17  21
ENDBRANCH   6  17
BRANCH  14  18
ATOM     18  C   UNL     1      11.520   8.228   5.822  0.00  0.00    +0.029 C 
BRANCH  18  20
ATOM     20  C   UNL     1      10.876   6.999   6.437  0.00  0.00    +0.097 C 
BRANCH  20  22
ATOM      3  O   UNL     1      10.118   4.835   5.656  0.00  0.00    -0.276 OA
ATOM      9  N   UNL     1      10.830   6.410   4.106  0.00  0.00    -0.311 N 
ATOM     22  C   UNL     1      10.559   5.949   5.386  0.00  0.00    +0.213 C 
ATOM     37  H   UNL     1      11.220   7.338   3.971  0.00  0.00    +0.149 HD
BRANCH   9  28
ATOM     28  C   UNL     1      10.613   5.597   2.932  0.00  0.00    +0.139 C 
BRANCH  28  30
ATOM      1  F   UNL     1      15.413   3.344   1.024  0.00  0.00    -0.205 F 
ATOM     30  C   UNL     1      11.894   4.995   2.422  0.00  0.00    -0.030 A 
ATOM     31  C   UNL     1      13.041   5.783   2.314  0.00  0.00    +0.008 A 
ATOM     32  C   UNL     1      11.938   3.649   2.058  0.00  0.00    +0.008 A 
ATOM     33  C   UNL     1      14.229   5.226   1.842  0.00  0.00    +0.038 A 
ATOM     34  C   UNL     1      13.125   3.092   1.585  0.00  0.00    +0.038 A 
ATOM     35  C   UNL     1      14.271   3.880   1.477  0.00  0.00    +0.123 A 
ENDBRANCH  28  30
ENDBRANCH   9  28
ENDBRANCH  20  22
ENDBRANCH  18  20
ENDBRANCH  14  18
TORSDOF 9
ENDMDL
MODEL 8
REMARK VINA RESULT:      -7.0      3.266     10.498
REMARK  Name = 45360924
REMARK  10 active torsions:
REMARK  status: ('A' for Active; 'I' for Inactive)
REMARK    1  A    between atoms: O_4  and  C_29
REMARK    2  A    between atoms: N_6  and  C_17
REMARK    3  A    between atoms: N_7  and  C_19
REMARK    4  A    between atoms: N_9  and  C_28
REMARK    5  A    between atoms: C_14  and  C_18
REMARK    6  A    between atoms: C_17  and  C_21
REMARK    7  A    between atoms: C_18  and  C_20
REMARK    8  A    between atoms: C_20  and  C_22
REMARK    9  A    between atoms: C_27  and  C_29
REMARK   10  A    between atoms: C_28  and  C_30
REMARK                            x       y       z     vdW  Elec       q    Type
REMARK                         _______ _______ _______ _____ _____    ______ ____
ROOT
ATOM      2  O   UNL     1      -5.529  -9.552   7.454  0.00  0.00    -0.274 OA
ATOM      6  N   UNL     1      -7.628  -8.354   8.662  0.00  0.00    -0.286 NA
ATOM      7  N   UNL     1      -5.849 -10.227  11.253  0.00  0.00    -0.296 NA
ATOM      8  N   UNL     1      -4.084  -9.232   9.199  0.00  0.00    -0.312 N 
ATOM     10  C   UNL     1      -6.734  -9.141  10.776  0.00  0.00    +0.084 C 
ATOM     11  C   UNL     1      -6.377  -8.427   9.439  0.00  0.00    +0.161 C 
ATOM     12  C   UNL     1      -8.187  -9.585  10.524  0.00  0.00    +0.036 C 
ATOM     13  C   UNL     1      -8.729  -8.512   9.606  0.00  0.00    +0.087 C 
ATOM     14  C   UNL     1      -4.463  -9.792  11.582  0.00  0.00    +0.074 C 
ATOM     15  C   UNL     1      -5.322  -9.133   8.592  0.00  0.00    +0.232 C 
ATOM     16  C   UNL     1      -3.828  -8.822  10.566  0.00  0.00    +0.123 C 
ATOM     19  C   UNL     1      -6.449 -10.927  12.402  0.00  0.00    +0.105 C 
ATOM     36  H   UNL     1      -3.331  -9.671   8.679  0.00  0.00    +0.149 HD
ENDROOT
BRANCH   6  17
ATOM     17  C   UNL     1      -7.749  -7.132   7.877  0.00  0.00    +0.120 C 
BRANCH  17  21
ATOM     21  C   UNL     1      -8.425  -7.379   6.554  0.00  0.00    -0.033 A 
ATOM     23  C   UNL     1      -9.733  -6.941   6.348  0.00  0.00    +0.006 A 
ATOM     24  C   UNL     1      -7.743  -8.044   5.536  0.00  0.00    +0.006 A 
ATOM     25  C   UNL     1     -10.359  -7.170   5.123  0.00  0.00    +0.015 A 
ATOM     26  C   UNL     1      -8.369  -8.273   4.311  0.00  0.00    +0.015 A 
ATOM     27  C   UNL     1      -9.677  -7.834   4.104  0.00  0.00    +0.059 A 
BRANCH  27  29
ATOM      5  O   UNL     1     -11.237  -8.887   2.626  0.00  0.00    -0.245 OA
ATOM     29  C   UNL     1     -10.329  -8.072   2.826  0.00  0.00    +0.337 C 
BRANCH  29   4
ATOM      4  O   UNL     1      -9.831  -7.287   1.832  0.00  0.00    -0.477 OA
ATOM     38  H   UNL     1      -9.333  -7.810   1.168  0.00  0.00    +0.295 HD
ENDBRANCH  29   4
ENDBRANCH  27  29
ENDBRANCH  17  21
ENDBRANCH   6  17
BRANCH  14  18
ATOM     18  C   UNL     1      -3.528 -11.015  11.703  0.00  0.00    +0.029 C 
BRANCH  18  20
ATOM     20  C   UNL     1      -2.259 -10.648  12.452  0.00  0.00    +0.097 C 
BRANCH  20  22
ATOM      3  O   UNL     1      -1.882 -12.402  14.079  0.00  0.00    -0.276 OA
ATOM      9  N   UNL     1      -2.672 -10.341  14.801  0.00  0.00    -0.311 N 
ATOM     22  C   UNL     1      -2.240 -11.250  13.845  0.00  0.00    +0.213 C 
ATOM     37  H   UNL     1      -2.976  -9.414  14.520  0.00  0.00    +0.149 HD
BRANCH   9  28
ATOM     28  C   UNL     1      -2.745 -10.673  16.204  0.00  0.00    +0.139 C 
BRANCH  28  30
ATOM      1  F   UNL     1      -7.987 -10.180  18.210  0.00  0.00    -0.205 F 
ATOM     30  C   UNL     1      -4.146 -10.541  16.739  0.00  0.00    -0.030 A 
ATOM     31  C   UNL     1      -4.457 -11.035  18.006  0.00  0.00    +0.008 A 
ATOM     32  C   UNL     1      -5.133  -9.925  15.969  0.00  0.00    +0.008 A 
ATOM     33  C   UNL     1      -5.754 -10.913  18.504  0.00  0.00    +0.038 A 
ATOM     34  C   UNL     1      -6.430  -9.804  16.466  0.00  0.00    +0.038 A 
ATOM     35  C   UNL     1      -6.741 -10.298  17.733  0.00  0.00    +0.123 A 
ENDBRANCH  28  30
ENDBRANCH   9  28
ENDBRANCH  20  22
ENDBRANCH  18  20
ENDBRANCH  14  18
TORSDOF 9
ENDMDL
MODEL 9
REMARK VINA RESULT:      -7.0      5.830     11.087
REMARK  Name = 45360924
REMARK  10 active torsions:
REMARK  status: ('A' for Active; 'I' for Inactive)
REMARK    1  A    between atoms: O_4  and  C_29
REMARK    2  A    between atoms: N_6  and  C_17
REMARK    3  A    between atoms: N_7  and  C_19
REMARK    4  A    between atoms: N_9  and  C_28
REMARK    5  A    between atoms: C_14  and  C_18
REMARK    6  A    between atoms: C_17  and  C_21
REMARK    7  A    between atoms: C_18  and  C_20
REMARK    8  A    between atoms: C_20  and  C_22
REMARK    9  A    between atoms: C_27  and  C_29
REMARK   10  A    between atoms: C_28  and  C_30
REMARK                            x       y       z     vdW  Elec       q    Type
REMARK                         _______ _______ _______ _____ _____    ______ ____
ROOT
ATOM      2  O   UNL     1     -10.452  -5.828  15.579  0.00  0.00    -0.274 OA
ATOM      6  N   UNL     1     -12.079  -7.428  14.132  0.00  0.00    -0.286 NA
ATOM      7  N   UNL     1      -9.264  -9.496  15.222  0.00  0.00    -0.296 NA
ATOM      8  N   UNL     1      -9.920  -7.428  17.125  0.00  0.00    -0.312 N 
ATOM     10  C   UNL     1     -10.660  -9.288  14.777  0.00  0.00    +0.084 C 
ATOM     11  C   UNL     1     -11.429  -8.041  15.306  0.00  0.00    +0.161 C 
ATOM     12  C   UNL     1     -10.813  -9.137  13.252  0.00  0.00    +0.036 C 
ATOM     13  C   UNL     1     -12.156  -8.455  13.099  0.00  0.00    +0.087 C 
ATOM     14  C   UNL     1      -9.112  -9.729  16.685  0.00  0.00    +0.074 C 
ATOM     15  C   UNL     1     -10.558  -6.985  15.983  0.00  0.00    +0.232 C 
ATOM     16  C   UNL     1      -9.959  -8.804  17.582  0.00  0.00    +0.123 C 
ATOM     19  C   UNL     1      -8.628 -10.587  14.464  0.00  0.00    +0.105 C 
ATOM     36  H   UNL     1      -9.343  -6.768  17.636  0.00  0.00    +0.149 HD
ENDROOT
BRANCH   6  17
ATOM     17  C   UNL     1     -13.384  -6.852  14.432  0.00  0.00    +0.120 C 
BRANCH  17  21
ATOM     21  C   UNL     1     -13.772  -5.792  13.436  0.00  0.00    -0.033 A 
ATOM     23  C   UNL     1     -15.002  -5.868  12.780  0.00  0.00    +0.006 A 
ATOM     24  C   UNL     1     -12.904  -4.734  13.169  0.00  0.00    +0.006 A 
ATOM     25  C   UNL     1     -15.361  -4.886  11.858  0.00  0.00    +0.015 A 
ATOM     26  C   UNL     1     -13.263  -3.752  12.247  0.00  0.00    +0.015 A 
ATOM     27  C   UNL     1     -14.492  -3.828  11.591  0.00  0.00    +0.059 A 
BRANCH  27  29
ATOM      5  O   UNL     1     -14.380  -2.667   9.502  0.00  0.00    -0.245 OA
ATOM     29  C   UNL     1     -14.867  -2.802  10.630  0.00  0.00    +0.337 C 
BRANCH  29   4
ATOM      4  O   UNL     1     -15.839  -1.975  11.102  0.00  0.00    -0.477 OA
ATOM     38  H   UNL     1     -16.465  -1.706  10.396  0.00  0.00    +0.295 HD
ENDBRANCH  29   4
ENDBRANCH  27  29
ENDBRANCH  17  21
ENDBRANCH   6  17
BRANCH  14  18
ATOM     18  C   UNL     1      -7.637  -9.561  17.108  0.00  0.00    +0.029 C 
BRANCH  18  20
ATOM     20  C   UNL     1      -7.432 -10.027  18.538  0.00  0.00    +0.097 C 
BRANCH  20  22
ATOM      3  O   UNL     1      -5.720 -11.210  19.777  0.00  0.00    -0.276 OA
ATOM      9  N   UNL     1      -5.382 -10.766  17.523  0.00  0.00    -0.311 N 
ATOM     22  C   UNL     1      -6.099 -10.733  18.710  0.00  0.00    +0.213 C 
ATOM     37  H   UNL     1      -5.756 -10.324  16.690  0.00  0.00    +0.149 HD
BRANCH   9  28
ATOM     28  C   UNL     1      -4.080 -11.384  17.426  0.00  0.00    +0.139 C 
BRANCH  28  30
ATOM      1  F   UNL     1      -1.435  -9.972  12.655  0.00  0.00    -0.205 F 
ATOM     30  C   UNL     1      -3.375 -11.007  16.152  0.00  0.00    -0.030 A 
ATOM     31  C   UNL     1      -2.031 -10.632  16.183  0.00  0.00    +0.008 A 
ATOM     32  C   UNL     1      -4.063 -11.031  14.938  0.00  0.00    +0.008 A 
ATOM     33  C   UNL     1      -1.375 -10.283  15.003  0.00  0.00    +0.038 A 
ATOM     34  C   UNL     1      -3.408 -10.681  13.758  0.00  0.00    +0.038 A 
ATOM     35  C   UNL     1      -2.065 -10.307  13.790  0.00  0.00    +0.123 A 
ENDBRANCH  28  30
ENDBRANCH   9  28
ENDBRANCH  20  22
ENDBRANCH  18  20
ENDBRANCH  14  18
TORSDOF 9
ENDMDL
MODEL 10
REMARK VINA RESULT:      -6.9     22.451     24.543
REMARK  Name = 45360924
REMARK  10 active torsions:
REMARK  status: ('A' for Active; 'I' for Inactive)
REMARK    1  A    between atoms: O_4  and  C_29
REMARK    2  A    between atoms: N_6  and  C_17
REMARK    3  A    between atoms: N_7  and  C_19
REMARK    4  A    between atoms: N_9  and  C_28
REMARK    5  A    between atoms: C_14  and  C_18
REMARK    6  A    between atoms: C_17  and  C_21
REMARK    7  A    between atoms: C_18  and  C_20
REMARK    8  A    between atoms: C_20  and  C_22
REMARK    9  A    between atoms: C_27  and  C_29
REMARK   10  A    between atoms: C_28  and  C_30
REMARK                            x       y       z     vdW  Elec       q    Type
REMARK                         _______ _______ _______ _____ _____    ______ ____
ROOT
ATOM      2  O   UNL     1       9.267   4.894  -0.212  0.00  0.00    -0.274 OA
ATOM      6  N   UNL     1      11.759   4.105  -0.893  0.00  0.00    -0.286 NA
ATOM      7  N   UNL     1       9.705   3.830  -3.908  0.00  0.00    -0.296 NA
ATOM      8  N   UNL     1       8.854   5.980  -2.182  0.00  0.00    -0.312 N 
ATOM     10  C   UNL     1      10.989   3.995  -3.191  0.00  0.00    +0.084 C 
ATOM     11  C   UNL     1      11.014   4.874  -1.907  0.00  0.00    +0.161 C 
ATOM     12  C   UNL     1      11.597   2.672  -2.687  0.00  0.00    +0.036 C 
ATOM     13  C   UNL     1      12.560   3.117  -1.607  0.00  0.00    +0.087 C 
ATOM     14  C   UNL     1       9.150   5.091  -4.475  0.00  0.00    +0.074 C 
ATOM     15  C   UNL     1       9.641   5.222  -1.337  0.00  0.00    +0.232 C 
ATOM     16  C   UNL     1       9.232   6.314  -3.542  0.00  0.00    +0.123 C 
ATOM     19  C   UNL     1       9.819   2.805  -4.960  0.00  0.00    +0.105 C 
ATOM     36  H   UNL     1       7.936   6.265  -1.854  0.00  0.00    +0.149 HD
ENDROOT
BRANCH   6  17
ATOM     17  C   UNL     1      12.571   4.940  -0.017  0.00  0.00    +0.120 C 
BRANCH  17  21
ATOM     21  C   UNL     1      11.990   5.032   1.369  0.00  0.00    -0.033 A 
ATOM     23  C   UNL     1      11.579   3.874   2.030  0.00  0.00    +0.006 A 
ATOM     24  C   UNL     1      11.866   6.273   1.992  0.00  0.00    +0.006 A 
ATOM     25  C   UNL     1      11.041   3.959   3.313  0.00  0.00    +0.015 A 
ATOM     26  C   UNL     1      11.327   6.358   3.276  0.00  0.00    +0.015 A 
ATOM     27  C   UNL     1      10.916   5.200   3.937  0.00  0.00    +0.059 A 
BRANCH  27  29
ATOM      5  O   UNL     1      10.108   6.339   5.880  0.00  0.00    -0.245 OA
ATOM     29  C   UNL     1      10.356   5.289   5.276  0.00  0.00    +0.337 C 
BRANCH  29   4
ATOM      4  O   UNL     1      10.120   4.067   5.826  0.00  0.00    -0.477 OA
ATOM     38  H   UNL     1      10.953   3.600   6.050  0.00  0.00    +0.295 HD
ENDBRANCH  29   4
ENDBRANCH  27  29
ENDBRANCH  17  21
ENDBRANCH   6  17
BRANCH  14  18
ATOM     18  C   UNL     1       7.668   4.901  -4.864  0.00  0.00    +0.029 C 
BRANCH  18  20
ATOM     20  C   UNL     1       6.976   6.244  -5.010  0.00  0.00    +0.097 C 
BRANCH  20  22
ATOM      3  O   UNL     1       5.657   6.536  -3.000  0.00  0.00    -0.276 OA
ATOM      9  N   UNL     1       4.578   6.056  -4.999  0.00  0.00    -0.311 N 
ATOM     22  C   UNL     1       5.690   6.301  -4.205  0.00  0.00    +0.213 C 
ATOM     37  H   UNL     1       4.694   5.844  -5.985  0.00  0.00    +0.149 HD
BRANCH   9  28
ATOM     28  C   UNL     1       3.236   6.054  -4.467  0.00  0.00    +0.139 C 
BRANCH  28  30
ATOM      1  F   UNL     1       0.641   1.127  -5.326  0.00  0.00    -0.205 F 
ATOM     30  C   UNL     1       2.544   4.738  -4.697  0.00  0.00    -0.030 A 
ATOM     31  C   UNL     1       1.247   4.539  -4.221  0.00  0.00    +0.008 A 
ATOM     32  C   UNL     1       3.198   3.715  -5.385  0.00  0.00    +0.008 A 
ATOM     33  C   UNL     1       0.604   3.320  -4.434  0.00  0.00    +0.038 A 
ATOM     34  C   UNL     1       2.556   2.496  -5.597  0.00  0.00    +0.038 A 
ATOM     35  C   UNL     1       1.259   2.298  -5.121  0.00  0.00    +0.123 A 
ENDBRANCH  28  30
ENDBRANCH   9  28
ENDBRANCH  20  22
ENDBRANCH  18  20
ENDBRANCH  14  18
TORSDOF 9
ENDMDL
