MODEL 1
REMARK VINA RESULT:      -7.9      0.000      0.000
REMARK  Name = 45783933
REMARK  10 active torsions:
REMARK  status: ('A' for Active; 'I' for Inactive)
REMARK    1  A    between atoms: N_2  and  C_13
REMARK    2  A    between atoms: C_8  and  C_12
REMARK    3  A    between atoms: C_9  and  C_13
REMARK    4  A    between atoms: C_11  and  C_16
REMARK    5  A    between atoms: C_12  and  C_17
REMARK    6  A    between atoms: C_12  and  C_18
REMARK    7  A    between atoms: C_15  and  C_21
REMARK    8  A    between atoms: C_16  and  C_24
REMARK    9  A    between atoms: C_26  and  C_28
REMARK   10  A    between atoms: C_28  and  C_30
REMARK                            x       y       z     vdW  Elec       q    Type
REMARK                         _______ _______ _______ _____ _____    ______ ____
ROOT
ATOM      8  C   UNL     1      17.138   8.110  21.337  0.00  0.00    +0.000 C 
ATOM      9  C   UNL     1      18.678   7.995  21.216  0.00  0.00    +0.029 C 
ATOM     10  C   UNL     1      16.621   9.288  20.496  0.00  0.00    +0.012 C 
ATOM     11  C   UNL     1      17.246  10.628  20.926  0.00  0.00    +0.024 C 
ATOM     14  C   UNL     1      19.372   9.337  21.204  0.00  0.00    -0.023 C 
ATOM     15  C   UNL     1      18.748  10.523  21.089  0.00  0.00    -0.073 C 
ATOM     21  C   UNL     1      19.523  11.811  21.073  0.00  0.00    +0.039 C 
ENDROOT
BRANCH   8  12
ATOM     12  C   UNL     1      16.436   6.818  20.907  0.00  0.00    -0.013 C 
ATOM     17  C   UNL     1      16.911   6.389  19.522  0.00  0.00    +0.007 C 
ATOM     18  C   UNL     1      14.922   7.004  20.925  0.00  0.00    +0.007 C 
ENDBRANCH   8  12
BRANCH   9  13
ATOM     13  C   UNL     1      19.258   7.130  22.341  0.00  0.00    +0.092 C 
BRANCH  13   2
ATOM      2  N   UNL     1      20.564   6.593  21.959  0.00  0.00    -0.299 NA
ATOM      3  N   UNL     1      22.602   4.604  21.740  0.00  0.00    -0.313 N 
ATOM      6  N   UNL     1      24.924   4.164  21.879  0.00  0.00    -0.240 NA
ATOM     19  C   UNL     1      21.310   6.162  23.148  0.00  0.00    +0.103 C 
ATOM     20  C   UNL     1      20.405   5.465  21.032  0.00  0.00    +0.103 C 
ATOM     22  C   UNL     1      22.701   5.651  22.766  0.00  0.00    +0.122 C 
ATOM     23  C   UNL     1      21.767   4.930  20.580  0.00  0.00    +0.122 C 
ATOM     25  C   UNL     1      23.679   3.722  21.594  0.00  0.00    +0.121 A 
ATOM     27  C   UNL     1      23.392   2.437  21.161  0.00  0.00    +0.043 A 
ATOM     29  C   UNL     1      24.451   1.550  21.012  0.00  0.00    +0.005 A 
ATOM     31  C   UNL     1      25.928   3.274  21.721  0.00  0.00    +0.113 A 
ATOM     32  C   UNL     1      25.747   1.968  21.294  0.00  0.00    +0.020 A 
ENDBRANCH  13   2
ENDBRANCH   9  13
BRANCH  11  16
ATOM     16  C   UNL     1      16.590  11.160  22.205  0.00  0.00    +0.105 C 
BRANCH  16  24
ATOM      1  O   UNL     1      14.188  10.767  22.027  0.00  0.00    -0.424 OA
ATOM      4  N   UNL     1      14.804  12.880  21.627  0.00  0.00    -0.112 NA
ATOM      5  N   UNL     1      13.430  12.803  21.491  0.00  0.00    -0.112 NA
ATOM     24  C   UNL     1      15.203  11.671  21.940  0.00  0.00    +0.218 A 
ATOM     26  C   UNL     1      13.115  11.552  21.733  0.00  0.00    +0.222 A 
BRANCH  26  28
ATOM     28  C   UNL     1      11.799  10.900  21.729  0.00  0.00    +0.135 C 
BRANCH  28  30
ATOM      7  N   UNL     1      11.126   7.647  20.104  0.00  0.00    -0.360 N 
ATOM     30  C   UNL     1      11.707   9.652  20.858  0.00  0.00    -0.013 A 
ATOM     33  C   UNL     1      12.401   9.418  19.638  0.00  0.00    +0.003 A 
ATOM     34  C   UNL     1      10.931   8.546  21.118  0.00  0.00    +0.087 A 
ATOM     35  C   UNL     1      12.018   8.153  19.186  0.00  0.00    +0.047 A 
ATOM     36  C   UNL     1      13.321  10.162  18.873  0.00  0.00    +0.010 A 
ATOM     37  C   UNL     1      12.512   7.593  18.002  0.00  0.00    +0.026 A 
ATOM     38  C   UNL     1      13.822   9.616  17.687  0.00  0.00    +0.001 A 
ATOM     39  C   UNL     1      13.422   8.351  17.259  0.00  0.00    +0.002 A 
ATOM     40  H   UNL     1      10.680   6.743  20.038  0.00  0.00    +0.165 HD
ENDBRANCH  28  30
ENDBRANCH  26  28
ENDBRANCH  16  24
ENDBRANCH  11  16
TORSDOF 7
ENDMDL
MODEL 2
REMARK VINA RESULT:      -7.8     27.972     32.240
REMARK  Name = 45783933
REMARK  10 active torsions:
REMARK  status: ('A' for Active; 'I' for Inactive)
REMARK    1  A    between atoms: N_2  and  C_13
REMARK    2  A    between atoms: C_8  and  C_12
REMARK    3  A    between atoms: C_9  and  C_13
REMARK    4  A    between atoms: C_11  and  C_16
REMARK    5  A    between atoms: C_12  and  C_17
REMARK    6  A    between atoms: C_12  and  C_18
REMARK    7  A    between atoms: C_15  and  C_21
REMARK    8  A    between atoms: C_16  and  C_24
REMARK    9  A    between atoms: C_26  and  C_28
REMARK   10  A    between atoms: C_28  and  C_30
REMARK                            x       y       z     vdW  Elec       q    Type
REMARK                         _______ _______ _______ _____ _____    ______ ____
ROOT
ATOM      8  C   UNL     1      -6.163 -13.437  16.351  0.00  0.00    +0.000 C 
ATOM      9  C   UNL     1      -7.239 -13.556  17.459  0.00  0.00    +0.029 C 
ATOM     10  C   UNL     1      -4.769 -13.270  16.974  0.00  0.00    +0.012 C 
ATOM     11  C   UNL     1      -4.680 -12.025  17.877  0.00  0.00    +0.024 C 
ATOM     14  C   UNL     1      -6.989 -12.632  18.627  0.00  0.00    -0.023 C 
ATOM     15  C   UNL     1      -5.859 -11.930  18.824  0.00  0.00    -0.073 C 
ATOM     21  C   UNL     1      -5.692 -11.044  20.026  0.00  0.00    +0.039 C 
ENDROOT
BRANCH   8  12
ATOM     12  C   UNL     1      -6.172 -14.651  15.417  0.00  0.00    -0.013 C 
ATOM     17  C   UNL     1      -6.134 -15.945  16.225  0.00  0.00    +0.007 C 
ATOM     18  C   UNL     1      -4.996 -14.585  14.448  0.00  0.00    +0.007 C 
ENDBRANCH   8  12
BRANCH   9  13
ATOM     13  C   UNL     1      -8.642 -13.301  16.897  0.00  0.00    +0.092 C 
BRANCH  13   2
ATOM      2  N   UNL     1      -8.968 -11.875  16.947  0.00  0.00    -0.299 NA
ATOM      3  N   UNL     1     -10.447  -9.514  16.316  0.00  0.00    -0.313 N 
ATOM      6  N   UNL     1     -10.315  -7.210  15.791  0.00  0.00    -0.240 NA
ATOM     19  C   UNL     1      -8.877 -11.279  15.609  0.00  0.00    +0.103 C 
ATOM     20  C   UNL     1     -10.316 -11.674  17.494  0.00  0.00    +0.103 C 
ATOM     22  C   UNL     1      -9.160  -9.776  15.658  0.00  0.00    +0.122 C 
ATOM     23  C   UNL     1     -10.647 -10.183  17.605  0.00  0.00    +0.122 C 
ATOM     25  C   UNL     1     -11.079  -8.292  16.063  0.00  0.00    +0.121 A 
ATOM     27  C   UNL     1     -12.464  -8.273  16.109  0.00  0.00    +0.043 A 
ATOM     29  C   UNL     1     -13.106  -7.065  15.860  0.00  0.00    +0.005 A 
ATOM     31  C   UNL     1     -10.974  -6.054  15.555  0.00  0.00    +0.113 A 
ATOM     32  C   UNL     1     -12.354  -5.929  15.577  0.00  0.00    +0.020 A 
ENDBRANCH  13   2
ENDBRANCH   9  13
BRANCH  11  16
ATOM     16  C   UNL     1      -4.540 -10.746  17.043  0.00  0.00    +0.105 C 
BRANCH  16  24
ATOM      1  O   UNL     1      -3.320 -10.435  14.953  0.00  0.00    -0.424 OA
ATOM      4  N   UNL     1      -2.025 -10.951  16.702  0.00  0.00    -0.112 NA
ATOM      5  N   UNL     1      -1.210 -10.806  15.596  0.00  0.00    -0.112 NA
ATOM     24  C   UNL     1      -3.247 -10.725  16.281  0.00  0.00    +0.218 A 
ATOM     26  C   UNL     1      -2.008 -10.505  14.598  0.00  0.00    +0.222 A 
BRANCH  26  28
ATOM     28  C   UNL     1      -1.689 -10.243  13.189  0.00  0.00    +0.135 C 
BRANCH  28  30
ATOM      7  N   UNL     1      -3.359 -12.866  11.187  0.00  0.00    -0.360 N 
ATOM     30  C   UNL     1      -2.451 -11.107  12.190  0.00  0.00    -0.013 A 
ATOM     33  C   UNL     1      -3.113 -10.656  11.013  0.00  0.00    +0.003 A 
ATOM     34  C   UNL     1      -2.620 -12.469  12.270  0.00  0.00    +0.087 A 
ATOM     35  C   UNL     1      -3.675 -11.780  10.403  0.00  0.00    +0.047 A 
ATOM     36  C   UNL     1      -3.289  -9.396  10.407  0.00  0.00    +0.010 A 
ATOM     37  C   UNL     1      -4.406 -11.707   9.212  0.00  0.00    +0.026 A 
ATOM     38  C   UNL     1      -4.019  -9.308   9.216  0.00  0.00    +0.001 A 
ATOM     39  C   UNL     1      -4.568 -10.446   8.629  0.00  0.00    +0.002 A 
ATOM     40  H   UNL     1      -3.633 -13.819  10.991  0.00  0.00    +0.165 HD
ENDBRANCH  28  30
ENDBRANCH  26  28
ENDBRANCH  16  24
ENDBRANCH  11  16
TORSDOF 7
ENDMDL
MODEL 3
REMARK VINA RESULT:      -7.7     27.976     33.124
REMARK  Name = 45783933
REMARK  10 active torsions:
REMARK  status: ('A' for Active; 'I' for Inactive)
REMARK    1  A    between atoms: N_2  and  C_13
REMARK    2  A    between atoms: C_8  and  C_12
REMARK    3  A    between atoms: C_9  and  C_13
REMARK    4  A    between atoms: C_11  and  C_16
REMARK    5  A    between atoms: C_12  and  C_17
REMARK    6  A    between atoms: C_12  and  C_18
REMARK    7  A    between atoms: C_15  and  C_21
REMARK    8  A    between atoms: C_16  and  C_24
REMARK    9  A    between atoms: C_26  and  C_28
REMARK   10  A    between atoms: C_28  and  C_30
REMARK                            x       y       z     vdW  Elec       q    Type
REMARK                         _______ _______ _______ _____ _____    ______ ____
ROOT
ATOM      8  C   UNL     1      -7.427 -11.502  17.084  0.00  0.00    +0.000 C 
ATOM      9  C   UNL     1      -7.549 -11.905  18.574  0.00  0.00    +0.029 C 
ATOM     10  C   UNL     1      -6.230 -12.212  16.432  0.00  0.00    +0.012 C 
ATOM     11  C   UNL     1      -4.902 -11.879  17.138  0.00  0.00    +0.024 C 
ATOM     14  C   UNL     1      -6.211 -12.019  19.267  0.00  0.00    -0.023 C 
ATOM     15  C   UNL     1      -5.019 -11.996  18.644  0.00  0.00    -0.073 C 
ATOM     21  C   UNL     1      -3.735 -12.130  19.415  0.00  0.00    +0.039 C 
ENDROOT
BRANCH   8  12
ATOM     12  C   UNL     1      -8.706 -11.820  16.303  0.00  0.00    -0.013 C 
ATOM     17  C   UNL     1      -9.028 -13.308  16.392  0.00  0.00    +0.007 C 
ATOM     18  C   UNL     1      -8.564 -11.383  14.849  0.00  0.00    +0.007 C 
ENDBRANCH   8  12
BRANCH   9  13
ATOM     13  C   UNL     1      -8.439 -10.921  19.342  0.00  0.00    +0.092 C 
BRANCH  13   2
ATOM      2  N   UNL     1      -9.799 -11.444  19.468  0.00  0.00    -0.299 NA
ATOM      3  N   UNL     1     -12.158 -12.270  20.851  0.00  0.00    -0.313 N 
ATOM      6  N   UNL     1     -13.894 -13.875  20.964  0.00  0.00    -0.240 NA
ATOM     19  C   UNL     1      -9.803 -12.686  20.251  0.00  0.00    +0.103 C 
ATOM     20  C   UNL     1     -10.676 -10.451  20.102  0.00  0.00    +0.103 C 
ATOM     22  C   UNL     1     -11.214 -13.273  20.341  0.00  0.00    +0.122 C 
ATOM     23  C   UNL     1     -12.116 -10.964  20.188  0.00  0.00    +0.122 C 
ATOM     25  C   UNL     1     -13.354 -12.723  21.419  0.00  0.00    +0.121 A 
ATOM     27  C   UNL     1     -13.913 -11.947  22.423  0.00  0.00    +0.043 A 
ATOM     29  C   UNL     1     -15.101 -12.384  22.996  0.00  0.00    +0.005 A 
ATOM     31  C   UNL     1     -15.050 -14.267  21.544  0.00  0.00    +0.113 A 
ATOM     32  C   UNL     1     -15.688 -13.565  22.554  0.00  0.00    +0.020 A 
ENDBRANCH  13   2
ENDBRANCH   9  13
BRANCH  11  16
ATOM     16  C   UNL     1      -4.392 -10.492  16.732  0.00  0.00    +0.105 C 
BRANCH  16  24
ATOM      1  O   UNL     1      -3.165 -10.346  14.628  0.00  0.00    -0.424 OA
ATOM      4  N   UNL     1      -1.895 -10.863  16.396  0.00  0.00    -0.112 NA
ATOM      5  N   UNL     1      -1.077 -10.816  15.282  0.00  0.00    -0.112 NA
ATOM     24  C   UNL     1      -3.103 -10.582  15.967  0.00  0.00    +0.218 A 
ATOM     26  C   UNL     1      -1.861 -10.510  14.274  0.00  0.00    +0.222 A 
BRANCH  26  28
ATOM     28  C   UNL     1      -1.532 -10.329  12.854  0.00  0.00    +0.135 C 
BRANCH  28  30
ATOM      7  N   UNL     1      -3.599 -12.682  10.888  0.00  0.00    -0.360 N 
ATOM     30  C   UNL     1      -2.451 -11.066  11.886  0.00  0.00    -0.013 A 
ATOM     33  C   UNL     1      -3.159 -10.497  10.791  0.00  0.00    +0.003 A 
ATOM     34  C   UNL     1      -2.741 -12.410  11.920  0.00  0.00    +0.087 A 
ATOM     35  C   UNL     1      -3.872 -11.532  10.182  0.00  0.00    +0.047 A 
ATOM     36  C   UNL     1      -3.263  -9.196  10.258  0.00  0.00    +0.010 A 
ATOM     37  C   UNL     1      -4.686 -11.331   9.061  0.00  0.00    +0.026 A 
ATOM     38  C   UNL     1      -4.074  -8.981   9.139  0.00  0.00    +0.001 A 
ATOM     39  C   UNL     1      -4.774 -10.032   8.551  0.00  0.00    +0.002 A 
ATOM     40  H   UNL     1      -3.977 -13.594  10.674  0.00  0.00    +0.165 HD
ENDBRANCH  28  30
ENDBRANCH  26  28
ENDBRANCH  16  24
ENDBRANCH  11  16
TORSDOF 7
ENDMDL
MODEL 4
REMARK VINA RESULT:      -7.6      2.451      4.456
REMARK  Name = 45783933
REMARK  10 active torsions:
REMARK  status: ('A' for Active; 'I' for Inactive)
REMARK    1  A    between atoms: N_2  and  C_13
REMARK    2  A    between atoms: C_8  and  C_12
REMARK    3  A    between atoms: C_9  and  C_13
REMARK    4  A    between atoms: C_11  and  C_16
REMARK    5  A    between atoms: C_12  and  C_17
REMARK    6  A    between atoms: C_12  and  C_18
REMARK    7  A    between atoms: C_15  and  C_21
REMARK    8  A    between atoms: C_16  and  C_24
REMARK    9  A    between atoms: C_26  and  C_28
REMARK   10  A    between atoms: C_28  and  C_30
REMARK                            x       y       z     vdW  Elec       q    Type
REMARK                         _______ _______ _______ _____ _____    ______ ____
ROOT
ATOM      8  C   UNL     1      14.110  11.047  20.708  0.00  0.00    +0.000 C 
ATOM      9  C   UNL     1      14.960  10.479  21.871  0.00  0.00    +0.029 C 
ATOM     10  C   UNL     1      13.693  12.496  21.006  0.00  0.00    +0.012 C 
ATOM     11  C   UNL     1      12.876  12.609  22.307  0.00  0.00    +0.024 C 
ATOM     14  C   UNL     1      14.459  10.905  23.231  0.00  0.00    -0.023 C 
ATOM     15  C   UNL     1      13.520  11.844  23.445  0.00  0.00    -0.073 C 
ATOM     21  C   UNL     1      13.091  12.213  24.838  0.00  0.00    +0.039 C 
ENDROOT
BRANCH   8  12
ATOM     12  C   UNL     1      14.862  10.988  19.374  0.00  0.00    -0.013 C 
ATOM     17  C   UNL     1      16.200  11.712  19.484  0.00  0.00    +0.007 C 
ATOM     18  C   UNL     1      14.013  11.589  18.258  0.00  0.00    +0.007 C 
ENDBRANCH   8  12
BRANCH   9  13
ATOM     13  C   UNL     1      15.031   8.950  21.809  0.00  0.00    +0.092 C 
BRANCH  13   2
ATOM      2  N   UNL     1      16.315   8.513  21.258  0.00  0.00    -0.299 NA
ATOM      3  N   UNL     1      18.962   7.443  21.346  0.00  0.00    -0.313 N 
ATOM      6  N   UNL     1      21.168   7.621  20.508  0.00  0.00    -0.240 NA
ATOM     19  C   UNL     1      17.414   9.301  21.829  0.00  0.00    +0.103 C 
ATOM     20  C   UNL     1      16.531   7.086  21.526  0.00  0.00    +0.103 C 
ATOM     22  C   UNL     1      18.756   8.892  21.217  0.00  0.00    +0.122 C 
ATOM     23  C   UNL     1      17.845   6.603  20.905  0.00  0.00    +0.122 C 
ATOM     25  C   UNL     1      20.271   6.955  21.268  0.00  0.00    +0.121 A 
ATOM     27  C   UNL     1      20.563   5.806  21.986  0.00  0.00    +0.043 A 
ATOM     29  C   UNL     1      21.859   5.309  21.919  0.00  0.00    +0.005 A 
ATOM     31  C   UNL     1      22.418   7.108  20.466  0.00  0.00    +0.113 A 
ATOM     32  C   UNL     1      22.811   5.966  21.146  0.00  0.00    +0.020 A 
ENDBRANCH  13   2
ENDBRANCH   9  13
BRANCH  11  16
ATOM     16  C   UNL     1      11.427  12.159  22.092  0.00  0.00    +0.105 C 
BRANCH  16  24
ATOM      1  O   UNL     1      11.286   9.997  20.969  0.00  0.00    -0.424 OA
ATOM      4  N   UNL     1      11.194   9.879  23.201  0.00  0.00    -0.112 NA
ATOM      5  N   UNL     1      11.102   8.593  22.701  0.00  0.00    -0.112 NA
ATOM     24  C   UNL     1      11.300  10.664  22.156  0.00  0.00    +0.218 A 
ATOM     26  C   UNL     1      11.160   8.710  21.395  0.00  0.00    +0.222 A 
BRANCH  26  28
ATOM     28  C   UNL     1      11.107   7.672  20.358  0.00  0.00    +0.135 C 
BRANCH  28  30
ATOM      7  N   UNL     1      14.368   7.155  18.691  0.00  0.00    -0.360 N 
ATOM     30  C   UNL     1      12.334   7.609  19.454  0.00  0.00    -0.013 A 
ATOM     33  C   UNL     1      12.459   8.178  18.156  0.00  0.00    +0.003 A 
ATOM     34  C   UNL     1      13.523   6.987  19.755  0.00  0.00    +0.087 A 
ATOM     35  C   UNL     1      13.744   7.878  17.700  0.00  0.00    +0.047 A 
ATOM     36  C   UNL     1      11.600   8.922  17.323  0.00  0.00    +0.010 A 
ATOM     37  C   UNL     1      14.216   8.287  16.447  0.00  0.00    +0.026 A 
ATOM     38  C   UNL     1      12.057   9.336  16.067  0.00  0.00    +0.001 A 
ATOM     39  C   UNL     1      13.345   9.023  15.637  0.00  0.00    +0.002 A 
ATOM     40  H   UNL     1      15.313   6.800  18.640  0.00  0.00    +0.165 HD
ENDBRANCH  28  30
ENDBRANCH  26  28
ENDBRANCH  16  24
ENDBRANCH  11  16
TORSDOF 7
ENDMDL
MODEL 5
REMARK VINA RESULT:      -7.5     28.274     32.443
REMARK  Name = 45783933
REMARK  10 active torsions:
REMARK  status: ('A' for Active; 'I' for Inactive)
REMARK    1  A    between atoms: N_2  and  C_13
REMARK    2  A    between atoms: C_8  and  C_12
REMARK    3  A    between atoms: C_9  and  C_13
REMARK    4  A    between atoms: C_11  and  C_16
REMARK    5  A    between atoms: C_12  and  C_17
REMARK    6  A    between atoms: C_12  and  C_18
REMARK    7  A    between atoms: C_15  and  C_21
REMARK    8  A    between atoms: C_16  and  C_24
REMARK    9  A    between atoms: C_26  and  C_28
REMARK   10  A    between atoms: C_28  and  C_30
REMARK                            x       y       z     vdW  Elec       q    Type
REMARK                         _______ _______ _______ _____ _____    ______ ____
ROOT
ATOM      8  C   UNL     1      -5.936 -13.377  16.190  0.00  0.00    +0.000 C 
ATOM      9  C   UNL     1      -7.076 -13.574  17.220  0.00  0.00    +0.029 C 
ATOM     10  C   UNL     1      -4.587 -13.212  16.908  0.00  0.00    +0.012 C 
ATOM     11  C   UNL     1      -4.586 -12.012  17.875  0.00  0.00    +0.024 C 
ATOM     14  C   UNL     1      -6.922 -12.705  18.446  0.00  0.00    -0.023 C 
ATOM     15  C   UNL     1      -5.823 -11.989  18.748  0.00  0.00    -0.073 C 
ATOM     21  C   UNL     1      -5.754 -11.161  20.000  0.00  0.00    +0.039 C 
ENDROOT
BRANCH   8  12
ATOM     12  C   UNL     1      -5.857 -14.542  15.200  0.00  0.00    -0.013 C 
ATOM     17  C   UNL     1      -4.592 -15.361  15.440  0.00  0.00    +0.007 C 
ATOM     18  C   UNL     1      -5.901 -14.026  13.765  0.00  0.00    +0.007 C 
ENDBRANCH   8  12
BRANCH   9  13
ATOM     13  C   UNL     1      -8.447 -13.320  16.583  0.00  0.00    +0.092 C 
BRANCH  13   2
ATOM      2  N   UNL     1      -8.829 -11.914  16.722  0.00  0.00    -0.299 NA
ATOM      3  N   UNL     1     -10.357  -9.562  16.182  0.00  0.00    -0.313 N 
ATOM      6  N   UNL     1     -10.282  -7.220  15.846  0.00  0.00    -0.240 NA
ATOM     19  C   UNL     1      -8.680 -11.211  15.443  0.00  0.00    +0.103 C 
ATOM     20  C   UNL     1     -10.215 -11.803  17.195  0.00  0.00    +0.103 C 
ATOM     22  C   UNL     1      -9.023  -9.727  15.589  0.00  0.00    +0.122 C 
ATOM     23  C   UNL     1     -10.609 -10.338  17.400  0.00  0.00    +0.122 C 
ATOM     25  C   UNL     1     -11.019  -8.345  15.984  0.00  0.00    +0.121 A 
ATOM     27  C   UNL     1     -12.404  -8.376  15.942  0.00  0.00    +0.043 A 
ATOM     29  C   UNL     1     -13.075  -7.175  15.746  0.00  0.00    +0.005 A 
ATOM     31  C   UNL     1     -10.969  -6.072  15.658  0.00  0.00    +0.113 A 
ATOM     32  C   UNL     1     -12.352  -5.995  15.601  0.00  0.00    +0.020 A 
ENDBRANCH  13   2
ENDBRANCH   9  13
BRANCH  11  16
ATOM     16  C   UNL     1      -4.425 -10.691  17.115  0.00  0.00    +0.105 C 
BRANCH  16  24
ATOM      1  O   UNL     1      -3.447 -10.680  14.879  0.00  0.00    -0.424 OA
ATOM      4  N   UNL     1      -1.946 -10.766  16.536  0.00  0.00    -0.112 NA
ATOM      5  N   UNL     1      -1.259 -10.767  15.336  0.00  0.00    -0.112 NA
ATOM     24  C   UNL     1      -3.219 -10.713  16.221  0.00  0.00    +0.218 A 
ATOM     26  C   UNL     1      -2.175 -10.716  14.397  0.00  0.00    +0.222 A 
BRANCH  26  28
ATOM     28  C   UNL     1      -2.019 -10.695  12.937  0.00  0.00    +0.135 C 
BRANCH  28  30
ATOM      7  N   UNL     1      -3.541 -13.279  10.773  0.00  0.00    -0.360 N 
ATOM     30  C   UNL     1      -2.517 -11.947  12.223  0.00  0.00    -0.013 A 
ATOM     33  C   UNL     1      -2.244 -13.295  12.588  0.00  0.00    +0.003 A 
ATOM     34  C   UNL     1      -3.316 -11.969  11.104  0.00  0.00    +0.087 A 
ATOM     35  C   UNL     1      -2.898 -14.110  11.662  0.00  0.00    +0.047 A 
ATOM     36  C   UNL     1      -1.501 -13.902  13.621  0.00  0.00    +0.010 A 
ATOM     37  C   UNL     1      -2.847 -15.508  11.717  0.00  0.00    +0.026 A 
ATOM     38  C   UNL     1      -1.440 -15.298  13.687  0.00  0.00    +0.001 A 
ATOM     39  C   UNL     1      -2.103 -16.087  12.749  0.00  0.00    +0.002 A 
ATOM     40  H   UNL     1      -4.099 -13.590   9.990  0.00  0.00    +0.165 HD
ENDBRANCH  28  30
ENDBRANCH  26  28
ENDBRANCH  16  24
ENDBRANCH  11  16
TORSDOF 7
ENDMDL
MODEL 6
REMARK VINA RESULT:      -7.4     28.069     32.853
REMARK  Name = 45783933
REMARK  10 active torsions:
REMARK  status: ('A' for Active; 'I' for Inactive)
REMARK    1  A    between atoms: N_2  and  C_13
REMARK    2  A    between atoms: C_8  and  C_12
REMARK    3  A    between atoms: C_9  and  C_13
REMARK    4  A    between atoms: C_11  and  C_16
REMARK    5  A    between atoms: C_12  and  C_17
REMARK    6  A    between atoms: C_12  and  C_18
REMARK    7  A    between atoms: C_15  and  C_21
REMARK    8  A    between atoms: C_16  and  C_24
REMARK    9  A    between atoms: C_26  and  C_28
REMARK   10  A    between atoms: C_28  and  C_30
REMARK                            x       y       z     vdW  Elec       q    Type
REMARK                         _______ _______ _______ _____ _____    ______ ____
ROOT
ATOM      8  C   UNL     1      -5.755 -10.564   6.760  0.00  0.00    +0.000 C 
ATOM      9  C   UNL     1      -7.226 -10.422   7.226  0.00  0.00    +0.029 C 
ATOM     10  C   UNL     1      -4.948 -11.386   7.778  0.00  0.00    +0.012 C 
ATOM     11  C   UNL     1      -4.957 -10.748   9.179  0.00  0.00    +0.024 C 
ATOM     14  C   UNL     1      -7.356 -10.204   8.715  0.00  0.00    -0.023 C 
ATOM     15  C   UNL     1      -6.352 -10.332   9.601  0.00  0.00    -0.073 C 
ATOM     21  C   UNL     1      -6.577 -10.109  11.070  0.00  0.00    +0.039 C 
ENDROOT
BRANCH   8  12
ATOM     12  C   UNL     1      -5.658 -11.213   5.376  0.00  0.00    -0.013 C 
ATOM     17  C   UNL     1      -6.735 -12.280   5.210  0.00  0.00    +0.007 C 
ATOM     18  C   UNL     1      -4.270 -11.809   5.164  0.00  0.00    +0.007 C 
ENDBRANCH   8  12
BRANCH   9  13
ATOM     13  C   UNL     1      -7.934  -9.286   6.480  0.00  0.00    +0.092 C 
BRANCH  13   2
ATOM      2  N   UNL     1      -8.623  -8.401   7.420  0.00  0.00    -0.299 NA
ATOM      3  N   UNL     1     -10.526  -6.430   8.229  0.00  0.00    -0.313 N 
ATOM      6  N   UNL     1     -10.906  -4.520   9.574  0.00  0.00    -0.240 NA
ATOM     19  C   UNL     1      -8.449  -6.997   7.028  0.00  0.00    +0.103 C 
ATOM     20  C   UNL     1     -10.054  -8.729   7.481  0.00  0.00    +0.103 C 
ATOM     22  C   UNL     1      -9.118  -6.059   8.035  0.00  0.00    +0.122 C 
ATOM     23  C   UNL     1     -10.776  -7.848   8.504  0.00  0.00    +0.122 C 
ATOM     25  C   UNL     1     -11.398  -5.461   8.737  0.00  0.00    +0.121 A 
ATOM     27  C   UNL     1     -12.724  -5.531   8.342  0.00  0.00    +0.043 A 
ATOM     29  C   UNL     1     -13.602  -4.574   8.838  0.00  0.00    +0.005 A 
ATOM     31  C   UNL     1     -11.789  -3.608  10.037  0.00  0.00    +0.113 A 
ATOM     32  C   UNL     1     -13.134  -3.591   9.703  0.00  0.00    +0.020 A 
ENDBRANCH  13   2
ENDBRANCH   9  13
BRANCH  11  16
ATOM     16  C   UNL     1      -3.985  -9.565   9.254  0.00  0.00    +0.105 C 
BRANCH  16  24
ATOM      1  O   UNL     1      -3.085 -10.879  11.103  0.00  0.00    -0.424 OA
ATOM      4  N   UNL     1      -1.924  -9.021  10.648  0.00  0.00    -0.112 NA
ATOM      5  N   UNL     1      -1.308  -9.660  11.708  0.00  0.00    -0.112 NA
ATOM     24  C   UNL     1      -2.955  -9.767  10.328  0.00  0.00    +0.218 A 
ATOM     26  C   UNL     1      -2.019 -10.740  11.939  0.00  0.00    +0.222 A 
BRANCH  26  28
ATOM     28  C   UNL     1      -1.829 -11.787  12.950  0.00  0.00    +0.135 C 
BRANCH  28  30
ATOM      7  N   UNL     1      -2.016 -10.952  16.548  0.00  0.00    -0.360 N 
ATOM     30  C   UNL     1      -2.180 -11.372  14.375  0.00  0.00    -0.013 A 
ATOM     33  C   UNL     1      -3.439 -10.890  14.831  0.00  0.00    +0.003 A 
ATOM     34  C   UNL     1      -1.326 -11.398  15.452  0.00  0.00    +0.087 A 
ATOM     35  C   UNL     1      -3.309 -10.634  16.197  0.00  0.00    +0.047 A 
ATOM     36  C   UNL     1      -4.681 -10.648  14.210  0.00  0.00    +0.010 A 
ATOM     37  C   UNL     1      -4.363 -10.146  16.978  0.00  0.00    +0.026 A 
ATOM     38  C   UNL     1      -5.743 -10.159  14.978  0.00  0.00    +0.001 A 
ATOM     39  C   UNL     1      -5.585  -9.912  16.341  0.00  0.00    +0.002 A 
ATOM     40  H   UNL     1      -1.633 -10.867  17.479  0.00  0.00    +0.165 HD
ENDBRANCH  28  30
ENDBRANCH  26  28
ENDBRANCH  16  24
ENDBRANCH  11  16
TORSDOF 7
ENDMDL
MODEL 7
REMARK VINA RESULT:      -7.3     28.339     32.527
REMARK  Name = 45783933
REMARK  10 active torsions:
REMARK  status: ('A' for Active; 'I' for Inactive)
REMARK    1  A    between atoms: N_2  and  C_13
REMARK    2  A    between atoms: C_8  and  C_12
REMARK    3  A    between atoms: C_9  and  C_13
REMARK    4  A    between atoms: C_11  and  C_16
REMARK    5  A    between atoms: C_12  and  C_17
REMARK    6  A    between atoms: C_12  and  C_18
REMARK    7  A    between atoms: C_15  and  C_21
REMARK    8  A    between atoms: C_16  and  C_24
REMARK    9  A    between atoms: C_26  and  C_28
REMARK   10  A    between atoms: C_28  and  C_30
REMARK                            x       y       z     vdW  Elec       q    Type
REMARK                         _______ _______ _______ _____ _____    ______ ____
ROOT
ATOM      8  C   UNL     1      -6.154 -10.758  15.472  0.00  0.00    +0.000 C 
ATOM      9  C   UNL     1      -5.214 -10.562  14.257  0.00  0.00    +0.029 C 
ATOM     10  C   UNL     1      -5.594 -10.031  16.705  0.00  0.00    +0.012 C 
ATOM     11  C   UNL     1      -4.189 -10.535  17.089  0.00  0.00    +0.024 C 
ATOM     14  C   UNL     1      -3.750 -10.623  14.626  0.00  0.00    -0.023 C 
ATOM     15  C   UNL     1      -3.274 -10.626  15.885  0.00  0.00    -0.073 C 
ATOM     21  C   UNL     1      -1.797 -10.674  16.158  0.00  0.00    +0.039 C 
ENDROOT
BRANCH   8  12
ATOM     12  C   UNL     1      -7.573 -10.261  15.178  0.00  0.00    -0.013 C 
ATOM     17  C   UNL     1      -7.996  -9.218  16.208  0.00  0.00    +0.007 C 
ATOM     18  C   UNL     1      -8.552 -11.430  15.160  0.00  0.00    +0.007 C 
ENDBRANCH   8  12
BRANCH   9  13
ATOM     13  C   UNL     1      -5.506 -11.592  13.160  0.00  0.00    +0.092 C 
BRANCH  13   2
ATOM      2  N   UNL     1      -5.552 -10.950  11.846  0.00  0.00    -0.299 NA
ATOM      3  N   UNL     1      -6.731  -9.470   9.707  0.00  0.00    -0.313 N 
ATOM      6  N   UNL     1      -6.964  -9.282   7.359  0.00  0.00    -0.240 NA
ATOM     19  C   UNL     1      -6.596 -11.557  11.012  0.00  0.00    +0.103 C 
ATOM     20  C   UNL     1      -5.798  -9.509  11.986  0.00  0.00    +0.103 C 
ATOM     22  C   UNL     1      -6.615 -10.931   9.616  0.00  0.00    +0.122 C 
ATOM     23  C   UNL     1      -5.791  -8.815  10.621  0.00  0.00    +0.122 C 
ATOM     25  C   UNL     1      -7.208  -8.777   8.588  0.00  0.00    +0.121 A 
ATOM     27  C   UNL     1      -7.908  -7.604   8.821  0.00  0.00    +0.043 A 
ATOM     29  C   UNL     1      -8.388  -6.904   7.719  0.00  0.00    +0.005 A 
ATOM     31  C   UNL     1      -7.445  -8.575   6.312  0.00  0.00    +0.113 A 
ATOM     32  C   UNL     1      -8.157  -7.392   6.437  0.00  0.00    +0.020 A 
ENDBRANCH  13   2
ENDBRANCH   9  13
BRANCH  11  16
ATOM     16  C   UNL     1      -4.265 -11.878  17.824  0.00  0.00    +0.105 C 
BRANCH  16  24
ATOM      1  O   UNL     1      -6.492 -12.809  18.182  0.00  0.00    -0.424 OA
ATOM      4  N   UNL     1      -5.825 -11.389  19.776  0.00  0.00    -0.112 NA
ATOM      5  N   UNL     1      -7.092 -11.833  20.104  0.00  0.00    -0.112 NA
ATOM     24  C   UNL     1      -5.515 -11.984  18.649  0.00  0.00    +0.218 A 
ATOM     26  C   UNL     1      -7.442 -12.660  19.146  0.00  0.00    +0.222 A 
BRANCH  26  28
ATOM     28  C   UNL     1      -8.684 -13.424  18.976  0.00  0.00    +0.135 C 
BRANCH  28  30
ATOM      7  N   UNL     1     -11.500 -12.587  21.221  0.00  0.00    -0.360 N 
ATOM     30  C   UNL     1      -9.889 -12.859  19.720  0.00  0.00    -0.013 A 
ATOM     33  C   UNL     1     -10.647 -11.711  19.355  0.00  0.00    +0.003 A 
ATOM     34  C   UNL     1     -10.437 -13.375  20.871  0.00  0.00    +0.087 A 
ATOM     35  C   UNL     1     -11.651 -11.562  20.314  0.00  0.00    +0.047 A 
ATOM     36  C   UNL     1     -10.575 -10.782  18.298  0.00  0.00    +0.010 A 
ATOM     37  C   UNL     1     -12.592 -10.527  20.268  0.00  0.00    +0.026 A 
ATOM     38  C   UNL     1     -11.508  -9.741  18.240  0.00  0.00    +0.001 A 
ATOM     39  C   UNL     1     -12.500  -9.616  19.211  0.00  0.00    +0.002 A 
ATOM     40  H   UNL     1     -12.089 -12.734  22.029  0.00  0.00    +0.165 HD
ENDBRANCH  28  30
ENDBRANCH  26  28
ENDBRANCH  16  24
ENDBRANCH  11  16
TORSDOF 7
ENDMDL
MODEL 8
REMARK VINA RESULT:      -7.3      2.424      5.359
REMARK  Name = 45783933
REMARK  10 active torsions:
REMARK  status: ('A' for Active; 'I' for Inactive)
REMARK    1  A    between atoms: N_2  and  C_13
REMARK    2  A    between atoms: C_8  and  C_12
REMARK    3  A    between atoms: C_9  and  C_13
REMARK    4  A    between atoms: C_11  and  C_16
REMARK    5  A    between atoms: C_12  and  C_17
REMARK    6  A    between atoms: C_12  and  C_18
REMARK    7  A    between atoms: C_15  and  C_21
REMARK    8  A    between atoms: C_16  and  C_24
REMARK    9  A    between atoms: C_26  and  C_28
REMARK   10  A    between atoms: C_28  and  C_30
REMARK                            x       y       z     vdW  Elec       q    Type
REMARK                         _______ _______ _______ _____ _____    ______ ____
ROOT
ATOM      8  C   UNL     1      13.959   9.943  21.495  0.00  0.00    +0.000 C 
ATOM      9  C   UNL     1      14.722   8.596  21.542  0.00  0.00    +0.029 C 
ATOM     10  C   UNL     1      12.659   9.851  22.310  0.00  0.00    +0.012 C 
ATOM     11  C   UNL     1      11.724   8.743  21.790  0.00  0.00    +0.024 C 
ATOM     14  C   UNL     1      13.808   7.396  21.459  0.00  0.00    -0.023 C 
ATOM     15  C   UNL     1      12.467   7.444  21.554  0.00  0.00    -0.073 C 
ATOM     21  C   UNL     1      11.636   6.193  21.474  0.00  0.00    +0.039 C 
ENDROOT
BRANCH   8  12
ATOM     12  C   UNL     1      14.817  11.100  22.017  0.00  0.00    -0.013 C 
ATOM     17  C   UNL     1      14.857  11.088  23.542  0.00  0.00    +0.007 C 
ATOM     18  C   UNL     1      14.284  12.433  21.501  0.00  0.00    +0.007 C 
ENDBRANCH   8  12
BRANCH   9  13
ATOM     13  C   UNL     1      15.771   8.516  20.427  0.00  0.00    +0.092 C 
BRANCH  13   2
ATOM      2  N   UNL     1      16.915   7.708  20.851  0.00  0.00    -0.299 NA
ATOM      3  N   UNL     1      19.586   6.703  20.727  0.00  0.00    -0.313 N 
ATOM      6  N   UNL     1      20.965   4.792  20.951  0.00  0.00    -0.240 NA
ATOM     19  C   UNL     1      17.307   6.774  19.789  0.00  0.00    +0.103 C 
ATOM     20  C   UNL     1      18.051   8.570  21.203  0.00  0.00    +0.103 C 
ATOM     22  C   UNL     1      18.467   5.884  20.242  0.00  0.00    +0.122 C 
ATOM     23  C   UNL     1      19.237   7.739  21.703  0.00  0.00    +0.122 C 
ATOM     25  C   UNL     1      20.860   6.125  20.754  0.00  0.00    +0.121 A 
ATOM     27  C   UNL     1      21.944   6.970  20.575  0.00  0.00    +0.043 A 
ATOM     29  C   UNL     1      23.216   6.411  20.599  0.00  0.00    +0.005 A 
ATOM     31  C   UNL     1      22.217   4.284  20.970  0.00  0.00    +0.113 A 
ATOM     32  C   UNL     1      23.365   5.043  20.800  0.00  0.00    +0.020 A 
ENDBRANCH  13   2
ENDBRANCH   9  13
BRANCH  11  16
ATOM     16  C   UNL     1      10.985   9.191  20.524  0.00  0.00    +0.105 C 
BRANCH  16  24
ATOM      1  O   UNL     1      12.752   9.307  18.845  0.00  0.00    -0.424 OA
ATOM      4  N   UNL     1      11.302   7.631  18.537  0.00  0.00    -0.112 NA
ATOM      5  N   UNL     1      12.238   7.578  17.521  0.00  0.00    -0.112 NA
ATOM     24  C   UNL     1      11.641   8.654  19.285  0.00  0.00    +0.218 A 
ATOM     26  C   UNL     1      13.065   8.574  17.741  0.00  0.00    +0.222 A 
BRANCH  26  28
ATOM     28  C   UNL     1      14.247   8.996  16.979  0.00  0.00    +0.135 C 
BRANCH  28  30
ATOM      7  N   UNL     1      13.680  12.152  15.136  0.00  0.00    -0.360 N 
ATOM     30  C   UNL     1      14.177  10.415  16.426  0.00  0.00    -0.013 A 
ATOM     33  C   UNL     1      14.797  11.571  16.978  0.00  0.00    +0.003 A 
ATOM     34  C   UNL     1      13.497  10.804  15.295  0.00  0.00    +0.087 A 
ATOM     35  C   UNL     1      14.469  12.647  16.150  0.00  0.00    +0.047 A 
ATOM     36  C   UNL     1      15.609  11.806  18.106  0.00  0.00    +0.010 A 
ATOM     37  C   UNL     1      14.914  13.951  16.394  0.00  0.00    +0.026 A 
ATOM     38  C   UNL     1      16.060  13.105  18.363  0.00  0.00    +0.001 A 
ATOM     39  C   UNL     1      15.717  14.160  17.519  0.00  0.00    +0.002 A 
ATOM     40  H   UNL     1      13.292  12.704  14.384  0.00  0.00    +0.165 HD
ENDBRANCH  28  30
ENDBRANCH  26  28
ENDBRANCH  16  24
ENDBRANCH  11  16
TORSDOF 7
ENDMDL
MODEL 9
REMARK VINA RESULT:      -7.3     28.296     32.755
REMARK  Name = 45783933
REMARK  10 active torsions:
REMARK  status: ('A' for Active; 'I' for Inactive)
REMARK    1  A    between atoms: N_2  and  C_13
REMARK    2  A    between atoms: C_8  and  C_12
REMARK    3  A    between atoms: C_9  and  C_13
REMARK    4  A    between atoms: C_11  and  C_16
REMARK    5  A    between atoms: C_12  and  C_17
REMARK    6  A    between atoms: C_12  and  C_18
REMARK    7  A    between atoms: C_15  and  C_21
REMARK    8  A    between atoms: C_16  and  C_24
REMARK    9  A    between atoms: C_26  and  C_28
REMARK   10  A    between atoms: C_28  and  C_30
REMARK                            x       y       z     vdW  Elec       q    Type
REMARK                         _______ _______ _______ _____ _____    ______ ____
ROOT
ATOM      8  C   UNL     1      -6.808 -10.119  15.350  0.00  0.00    +0.000 C 
ATOM      9  C   UNL     1      -7.863 -10.217  16.480  0.00  0.00    +0.029 C 
ATOM     10  C   UNL     1      -5.824 -11.296  15.432  0.00  0.00    +0.012 C 
ATOM     11  C   UNL     1      -5.088 -11.346  16.784  0.00  0.00    +0.024 C 
ATOM     14  C   UNL     1      -7.281 -10.684  17.793  0.00  0.00    -0.023 C 
ATOM     15  C   UNL     1      -6.040 -11.179  17.951  0.00  0.00    -0.073 C 
ATOM     21  C   UNL     1      -5.549 -11.634  19.296  0.00  0.00    +0.039 C 
ENDROOT
BRANCH   8  12
ATOM     12  C   UNL     1      -7.461 -10.084  13.965  0.00  0.00    -0.013 C 
ATOM     17  C   UNL     1      -8.399 -11.274  13.788  0.00  0.00    +0.007 C 
ATOM     18  C   UNL     1      -6.394 -10.071  12.874  0.00  0.00    +0.007 C 
ENDBRANCH   8  12
BRANCH   9  13
ATOM     13  C   UNL     1      -8.578  -8.877  16.687  0.00  0.00    +0.092 C 
BRANCH  13   2
ATOM      2  N   UNL     1      -9.995  -8.987  16.341  0.00  0.00    -0.299 NA
ATOM      3  N   UNL     1     -12.645  -8.033  15.866  0.00  0.00    -0.313 N 
ATOM      6  N   UNL     1     -14.955  -8.455  16.167  0.00  0.00    -0.240 NA
ATOM     19  C   UNL     1     -10.834  -8.543  17.460  0.00  0.00    +0.103 C 
ATOM     20  C   UNL     1     -10.295  -8.191  15.144  0.00  0.00    +0.103 C 
ATOM     22  C   UNL     1     -12.320  -8.708  17.130  0.00  0.00    +0.122 C 
ATOM     23  C   UNL     1     -11.763  -8.343  14.737  0.00  0.00    +0.122 C 
ATOM     25  C   UNL     1     -13.980  -7.687  15.630  0.00  0.00    +0.121 A 
ATOM     27  C   UNL     1     -14.216  -6.565  14.852  0.00  0.00    +0.043 A 
ATOM     29  C   UNL     1     -15.538  -6.209  14.609  0.00  0.00    +0.005 A 
ATOM     31  C   UNL     1     -16.227  -8.079  15.908  0.00  0.00    +0.113 A 
ATOM     32  C   UNL     1     -16.569  -6.975  15.143  0.00  0.00    +0.020 A 
ENDBRANCH  13   2
ENDBRANCH   9  13
BRANCH  11  16
ATOM     16  C   UNL     1      -3.962 -10.308  16.839  0.00  0.00    +0.105 C 
BRANCH  16  24
ATOM      1  O   UNL     1      -2.958 -11.651  15.067  0.00  0.00    -0.424 OA
ATOM      4  N   UNL     1      -1.488 -10.452  16.253  0.00  0.00    -0.112 NA
ATOM      5  N   UNL     1      -0.787 -11.159  15.294  0.00  0.00    -0.112 NA
ATOM     24  C   UNL     1      -2.750 -10.769  16.083  0.00  0.00    +0.218 A 
ATOM     26  C   UNL     1      -1.685 -11.845  14.625  0.00  0.00    +0.222 A 
BRANCH  26  28
ATOM     28  C   UNL     1      -1.509 -12.768  13.497  0.00  0.00    +0.135 C 
BRANCH  28  30
ATOM      7  N   UNL     1      -4.176 -13.066  10.952  0.00  0.00    -0.360 N 
ATOM     30  C   UNL     1      -2.539 -12.619  12.382  0.00  0.00    -0.013 A 
ATOM     33  C   UNL     1      -2.756 -11.464  11.580  0.00  0.00    +0.003 A 
ATOM     34  C   UNL     1      -3.426 -13.586  11.973  0.00  0.00    +0.087 A 
ATOM     35  C   UNL     1      -3.789 -11.771  10.691  0.00  0.00    +0.047 A 
ATOM     36  C   UNL     1      -2.172 -10.182  11.524  0.00  0.00    +0.010 A 
ATOM     37  C   UNL     1      -4.268 -10.857   9.745  0.00  0.00    +0.026 A 
ATOM     38  C   UNL     1      -2.642  -9.259  10.584  0.00  0.00    +0.001 A 
ATOM     39  C   UNL     1      -3.674  -9.592   9.709  0.00  0.00    +0.002 A 
ATOM     40  H   UNL     1      -4.908 -13.560  10.461  0.00  0.00    +0.165 HD
ENDBRANCH  28  30
ENDBRANCH  26  28
ENDBRANCH  16  24
ENDBRANCH  11  16
TORSDOF 7
ENDMDL
MODEL 10
REMARK VINA RESULT:      -7.2      5.606      8.328
REMARK  Name = 45783933
REMARK  10 active torsions:
REMARK  status: ('A' for Active; 'I' for Inactive)
REMARK    1  A    between atoms: N_2  and  C_13
REMARK    2  A    between atoms: C_8  and  C_12
REMARK    3  A    between atoms: C_9  and  C_13
REMARK    4  A    between atoms: C_11  and  C_16
REMARK    5  A    between atoms: C_12  and  C_17
REMARK    6  A    between atoms: C_12  and  C_18
REMARK    7  A    between atoms: C_15  and  C_21
REMARK    8  A    between atoms: C_16  and  C_24
REMARK    9  A    between atoms: C_26  and  C_28
REMARK   10  A    between atoms: C_28  and  C_30
REMARK                            x       y       z     vdW  Elec       q    Type
REMARK                         _______ _______ _______ _____ _____    ______ ____
ROOT
ATOM      8  C   UNL     1      13.481  11.906  21.538  0.00  0.00    +0.000 C 
ATOM      9  C   UNL     1      13.543  13.364  22.058  0.00  0.00    +0.029 C 
ATOM     10  C   UNL     1      12.034  11.523  21.189  0.00  0.00    +0.012 C 
ATOM     11  C   UNL     1      11.091  11.649  22.400  0.00  0.00    +0.024 C 
ATOM     14  C   UNL     1      12.381  13.721  22.955  0.00  0.00    -0.023 C 
ATOM     15  C   UNL     1      11.284  12.962  23.131  0.00  0.00    -0.073 C 
ATOM     21  C   UNL     1      10.168  13.406  24.034  0.00  0.00    +0.039 C 
ENDROOT
BRANCH   8  12
ATOM     12  C   UNL     1      14.381  11.700  20.315  0.00  0.00    -0.013 C 
ATOM     17  C   UNL     1      13.541  11.614  19.044  0.00  0.00    +0.007 C 
ATOM     18  C   UNL     1      15.232  10.446  20.487  0.00  0.00    +0.007 C 
ENDBRANCH   8  12
BRANCH   9  13
ATOM     13  C   UNL     1      14.859  13.632  22.797  0.00  0.00    +0.092 C 
BRANCH  13   2
ATOM      2  N   UNL     1      14.738  13.280  24.212  0.00  0.00    -0.299 NA
ATOM      3  N   UNL     1      15.632  12.290  26.738  0.00  0.00    -0.313 N 
ATOM      6  N   UNL     1      15.064  11.005  28.642  0.00  0.00    -0.240 NA
ATOM     19  C   UNL     1      14.966  11.843  24.406  0.00  0.00    +0.103 C 
ATOM     20  C   UNL     1      15.694  14.052  25.016  0.00  0.00    +0.103 C 
ATOM     22  C   UNL     1      14.787  11.453  25.875  0.00  0.00    +0.122 C 
ATOM     23  C   UNL     1      15.540  13.735  26.506  0.00  0.00    +0.122 C 
ATOM     25  C   UNL     1      15.949  11.810  28.013  0.00  0.00    +0.121 A 
ATOM     27  C   UNL     1      17.166  12.198  28.552  0.00  0.00    +0.043 A 
ATOM     29  C   UNL     1      17.494  11.728  29.818  0.00  0.00    +0.005 A 
ATOM     31  C   UNL     1      15.418  10.569  29.872  0.00  0.00    +0.113 A 
ATOM     32  C   UNL     1      16.609  10.898  30.499  0.00  0.00    +0.020 A 
ENDBRANCH  13   2
ENDBRANCH   9  13
BRANCH  11  16
ATOM     16  C   UNL     1      11.252  10.461  23.354  0.00  0.00    +0.105 C 
BRANCH  16  24
ATOM      1  O   UNL     1      12.177   8.498  22.236  0.00  0.00    -0.424 OA
ATOM      4  N   UNL     1       9.943   8.527  22.339  0.00  0.00    -0.112 NA
ATOM      5  N   UNL     1      10.325   7.371  21.684  0.00  0.00    -0.112 NA
ATOM     24  C   UNL     1      11.055   9.153  22.642  0.00  0.00    +0.218 A 
ATOM     26  C   UNL     1      11.637   7.396  21.648  0.00  0.00    +0.222 A 
BRANCH  26  28
ATOM     28  C   UNL     1      12.576   6.425  21.073  0.00  0.00    +0.135 C 
BRANCH  28  30
ATOM      7  N   UNL     1      15.132   7.414  18.589  0.00  0.00    -0.360 N 
ATOM     30  C   UNL     1      13.408   6.953  19.908  0.00  0.00    -0.013 A 
ATOM     33  C   UNL     1      12.927   7.690  18.790  0.00  0.00    +0.003 A 
ATOM     34  C   UNL     1      14.766   6.799  19.756  0.00  0.00    +0.087 A 
ATOM     35  C   UNL     1      14.029   7.966  17.977  0.00  0.00    +0.047 A 
ATOM     36  C   UNL     1      11.657   8.150  18.389  0.00  0.00    +0.010 A 
ATOM     37  C   UNL     1      13.924   8.682  16.779  0.00  0.00    +0.026 A 
ATOM     38  C   UNL     1      11.537   8.867  17.194  0.00  0.00    +0.001 A 
ATOM     39  C   UNL     1      12.653   9.128  16.402  0.00  0.00    +0.002 A 
ATOM     40  H   UNL     1      16.075   7.457  18.227  0.00  0.00    +0.165 HD
ENDBRANCH  28  30
ENDBRANCH  26  28
ENDBRANCH  16  24
ENDBRANCH  11  16
TORSDOF 7
ENDMDL
