MODEL 1
REMARK VINA RESULT:      -7.3      0.000      0.000
REMARK  Name = 45783324
REMARK  6 active torsions:
REMARK  status: ('A' for Active; 'I' for Inactive)
REMARK    1  A    between atoms: N_3  and  C_13
REMARK    2  A    between atoms: C_9  and  C_19
REMARK    3  A    between atoms: C_13  and  C_20
REMARK    4  A    between atoms: C_14  and  C_22
REMARK    5  A    between atoms: C_20  and  C_24
REMARK    6  A    between atoms: C_23  and  C_26
REMARK                            x       y       z     vdW  Elec       q    Type
REMARK                         _______ _______ _______ _____ _____    ______ ____
ROOT
ATOM      4  N   UNL     1      14.808   7.277  20.724  0.00  0.00    -0.315 N 
ATOM      7  N   UNL     1      15.952   6.174  18.968  0.00  0.00    -0.240 NA
ATOM     14  C   UNL     1      12.334   8.383  21.767  0.00  0.00    +0.078 C 
ATOM     15  C   UNL     1      13.697   8.965  22.135  0.00  0.00    +0.031 C 
ATOM     16  C   UNL     1      12.452   6.920  21.343  0.00  0.00    +0.031 C 
ATOM     17  C   UNL     1      14.778   8.696  21.087  0.00  0.00    +0.107 C 
ATOM     18  C   UNL     1      13.534   6.693  20.288  0.00  0.00    +0.107 C 
ATOM     21  C   UNL     1      15.983   6.722  20.204  0.00  0.00    +0.122 A 
ATOM     25  C   UNL     1      17.116   6.772  21.002  0.00  0.00    +0.055 A 
ATOM     26  C   UNL     1      18.290   6.224  20.499  0.00  0.00    +0.027 A 
ATOM     27  C   UNL     1      18.297   5.651  19.232  0.00  0.00    +0.031 A 
ATOM     28  C   UNL     1      17.113   5.651  18.513  0.00  0.00    +0.113 A 
ENDROOT
BRANCH  26  23
ATOM      1  O   UNL     1      20.882   6.613  22.867  0.00  0.00    -0.336 OA
ATOM      5  N   UNL     1      20.652   5.687  20.839  0.00  0.00    -0.190 NA
ATOM      6  N   UNL     1      19.550   6.825  22.490  0.00  0.00    -0.056 NA
ATOM     19  C   UNL     1      21.460   5.938  21.839  0.00  0.00    +0.245 A 
ATOM     23  C   UNL     1      19.492   6.251  21.285  0.00  0.00    +0.202 A 
BRANCH  19   9
ATOM      3  N   UNL     1      23.342   4.480  21.114  0.00  0.00    -0.291 NA
ATOM      9  C   UNL     1      22.922   5.582  22.003  0.00  0.00    +0.146 C 
ATOM     10  C   UNL     1      23.862   6.749  21.649  0.00  0.00    +0.030 C 
ATOM     11  C   UNL     1      24.762   4.695  20.831  0.00  0.00    +0.085 C 
ATOM     12  C   UNL     1      24.811   6.191  20.599  0.00  0.00    +0.017 C 
BRANCH   3  13
ATOM     13  C   UNL     1      23.089   3.160  21.677  0.00  0.00    +0.085 C 
BRANCH  13  20
ATOM     20  C   UNL     1      23.688   2.079  20.782  0.00  0.00    +0.012 C 
ATOM     24  C   UNL     1      24.388   1.005  21.601  0.00  0.00    +0.005 C 
ENDBRANCH  13  20
ENDBRANCH   3  13
ENDBRANCH  19   9
ENDBRANCH  26  23
BRANCH  14  22
ATOM      2  O   UNL     1      11.877  10.392  20.552  0.00  0.00    -0.276 OA
ATOM      8  N   UNL     1      10.795   8.463  19.914  0.00  0.00    -0.329 N 
ATOM     22  C   UNL     1      11.665   9.190  20.693  0.00  0.00    +0.214 C 
ATOM     29  H   UNL     1      10.287   8.906  19.156  0.00  0.00    +0.145 HD
ATOM     30  H   UNL     1      10.586   7.486  20.085  0.00  0.00    +0.145 HD
ENDBRANCH  14  22
TORSDOF 5
ENDMDL
MODEL 2
REMARK VINA RESULT:      -7.2     18.837     21.990
REMARK  Name = 45783324
REMARK  6 active torsions:
REMARK  status: ('A' for Active; 'I' for Inactive)
REMARK    1  A    between atoms: N_3  and  C_13
REMARK    2  A    between atoms: C_9  and  C_19
REMARK    3  A    between atoms: C_13  and  C_20
REMARK    4  A    between atoms: C_14  and  C_22
REMARK    5  A    between atoms: C_20  and  C_24
REMARK    6  A    between atoms: C_23  and  C_26
REMARK                            x       y       z     vdW  Elec       q    Type
REMARK                         _______ _______ _______ _____ _____    ______ ____
ROOT
ATOM      4  N   UNL     1      11.090   3.681  -1.591  0.00  0.00    -0.315 N 
ATOM      7  N   UNL     1      13.140   3.283  -0.474  0.00  0.00    -0.240 NA
ATOM     14  C   UNL     1       9.453   3.357  -3.967  0.00  0.00    +0.078 C 
ATOM     15  C   UNL     1       9.331   4.581  -3.063  0.00  0.00    +0.031 C 
ATOM     16  C   UNL     1      10.022   2.161  -3.207  0.00  0.00    +0.031 C 
ATOM     17  C   UNL     1      10.603   4.884  -2.271  0.00  0.00    +0.107 C 
ATOM     18  C   UNL     1      11.298   2.499  -2.436  0.00  0.00    +0.107 C 
ATOM     21  C   UNL     1      11.895   3.809  -0.453  0.00  0.00    +0.122 A 
ATOM     25  C   UNL     1      11.353   4.476   0.635  0.00  0.00    +0.055 A 
ATOM     26  C   UNL     1      12.139   4.610   1.774  0.00  0.00    +0.027 A 
ATOM     27  C   UNL     1      13.426   4.081   1.790  0.00  0.00    +0.031 A 
ATOM     28  C   UNL     1      13.875   3.433   0.651  0.00  0.00    +0.113 A 
ENDROOT
BRANCH  26  23
ATOM      1  O   UNL     1      11.360   6.714   4.501  0.00  0.00    -0.336 OA
ATOM      5  N   UNL     1      10.547   4.822   3.618  0.00  0.00    -0.190 NA
ATOM      6  N   UNL     1      12.168   6.421   3.395  0.00  0.00    -0.056 NA
ATOM     19  C   UNL     1      10.432   5.724   4.560  0.00  0.00    +0.245 A 
ATOM     23  C   UNL     1      11.626   5.293   2.928  0.00  0.00    +0.202 A 
BRANCH  19   9
ATOM      3  N   UNL     1       9.955   6.507   6.874  0.00  0.00    -0.291 NA
ATOM      9  C   UNL     1       9.422   5.812   5.685  0.00  0.00    +0.146 C 
ATOM     10  C   UNL     1       8.164   6.610   5.295  0.00  0.00    +0.030 C 
ATOM     11  C   UNL     1       8.809   7.135   7.533  0.00  0.00    +0.085 C 
ATOM     12  C   UNL     1       8.038   7.695   6.355  0.00  0.00    +0.017 C 
BRANCH   3  13
ATOM     13  C   UNL     1      10.689   5.627   7.773  0.00  0.00    +0.085 C 
BRANCH  13  20
ATOM     20  C   UNL     1       9.826   4.432   8.167  0.00  0.00    +0.012 C 
ATOM     24  C   UNL     1       9.464   4.472   9.643  0.00  0.00    +0.005 C 
ENDBRANCH  13  20
ENDBRANCH   3  13
ENDBRANCH  19   9
ENDBRANCH  26  23
BRANCH  14  22
ATOM      2  O   UNL     1      11.098   2.848  -5.628  0.00  0.00    -0.276 OA
ATOM      8  N   UNL     1      10.058   4.899  -5.718  0.00  0.00    -0.329 N 
ATOM     22  C   UNL     1      10.284   3.653  -5.182  0.00  0.00    +0.214 C 
ATOM     29  H   UNL     1      10.563   5.206  -6.543  0.00  0.00    +0.145 HD
ATOM     30  H   UNL     1       9.428   5.574  -5.300  0.00  0.00    +0.145 HD
ENDBRANCH  14  22
TORSDOF 5
ENDMDL
MODEL 3
REMARK VINA RESULT:      -6.8     14.492     18.082
REMARK  Name = 45783324
REMARK  6 active torsions:
REMARK  status: ('A' for Active; 'I' for Inactive)
REMARK    1  A    between atoms: N_3  and  C_13
REMARK    2  A    between atoms: C_9  and  C_19
REMARK    3  A    between atoms: C_13  and  C_20
REMARK    4  A    between atoms: C_14  and  C_22
REMARK    5  A    between atoms: C_20  and  C_24
REMARK    6  A    between atoms: C_23  and  C_26
REMARK                            x       y       z     vdW  Elec       q    Type
REMARK                         _______ _______ _______ _____ _____    ______ ____
ROOT
ATOM      4  N   UNL     1      18.500   8.676   5.843  0.00  0.00    -0.315 N 
ATOM      7  N   UNL     1      16.945  10.353   6.457  0.00  0.00    -0.240 NA
ATOM     14  C   UNL     1      21.259   7.782   5.694  0.00  0.00    +0.078 C 
ATOM     15  C   UNL     1      20.213   7.349   4.668  0.00  0.00    +0.031 C 
ATOM     16  C   UNL     1      20.607   8.179   7.017  0.00  0.00    +0.031 C 
ATOM     17  C   UNL     1      19.052   8.334   4.529  0.00  0.00    +0.107 C 
ATOM     18  C   UNL     1      19.458   9.171   6.839  0.00  0.00    +0.107 C 
ATOM     21  C   UNL     1      17.179   9.125   5.941  0.00  0.00    +0.122 A 
ATOM     25  C   UNL     1      16.183   8.269   5.498  0.00  0.00    +0.055 A 
ATOM     26  C   UNL     1      14.864   8.701   5.590  0.00  0.00    +0.027 A 
ATOM     27  C   UNL     1      14.585   9.958   6.115  0.00  0.00    +0.031 A 
ATOM     28  C   UNL     1      15.652  10.739   6.531  0.00  0.00    +0.113 A 
ENDROOT
BRANCH  26  23
ATOM      1  O   UNL     1      12.548   6.623   3.918  0.00  0.00    -0.336 OA
ATOM      5  N   UNL     1      12.781   7.479   5.976  0.00  0.00    -0.190 NA
ATOM      6  N   UNL     1      13.726   7.381   3.895  0.00  0.00    -0.056 NA
ATOM     19  C   UNL     1      12.055   6.736   5.179  0.00  0.00    +0.245 A 
ATOM     23  C   UNL     1      13.795   7.853   5.143  0.00  0.00    +0.202 A 
BRANCH  19   9
ATOM      3  N   UNL     1      10.107   6.464   6.705  0.00  0.00    -0.291 NA
ATOM      9  C   UNL     1      10.766   5.997   5.468  0.00  0.00    +0.146 C 
ATOM     10  C   UNL     1       9.708   6.191   4.365  0.00  0.00    +0.030 C 
ATOM     11  C   UNL     1       8.672   6.250   6.514  0.00  0.00    +0.085 C 
ATOM     12  C   UNL     1       8.473   6.712   5.085  0.00  0.00    +0.017 C 
BRANCH   3  13
ATOM     13  C   UNL     1      10.605   5.804   7.904  0.00  0.00    +0.085 C 
BRANCH  13  20
ATOM     20  C   UNL     1       9.730   4.601   8.249  0.00  0.00    +0.012 C 
ATOM     24  C   UNL     1       9.375   4.579   9.727  0.00  0.00    +0.005 C 
ENDBRANCH  13  20
ENDBRANCH   3  13
ENDBRANCH  19   9
ENDBRANCH  26  23
BRANCH  14  22
ATOM      2  O   UNL     1      22.215   9.135   3.968  0.00  0.00    -0.276 OA
ATOM      8  N   UNL     1      22.764   9.606   6.153  0.00  0.00    -0.329 N 
ATOM     22  C   UNL     1      22.111   8.900   5.170  0.00  0.00    +0.214 C 
ATOM     29  H   UNL     1      23.367  10.386   5.915  0.00  0.00    +0.145 HD
ATOM     30  H   UNL     1      22.716   9.359   7.135  0.00  0.00    +0.145 HD
ENDBRANCH  14  22
TORSDOF 5
ENDMDL
MODEL 4
REMARK VINA RESULT:      -6.7      1.702      2.369
REMARK  Name = 45783324
REMARK  6 active torsions:
REMARK  status: ('A' for Active; 'I' for Inactive)
REMARK    1  A    between atoms: N_3  and  C_13
REMARK    2  A    between atoms: C_9  and  C_19
REMARK    3  A    between atoms: C_13  and  C_20
REMARK    4  A    between atoms: C_14  and  C_22
REMARK    5  A    between atoms: C_20  and  C_24
REMARK    6  A    between atoms: C_23  and  C_26
REMARK                            x       y       z     vdW  Elec       q    Type
REMARK                         _______ _______ _______ _____ _____    ______ ____
ROOT
ATOM      4  N   UNL     1      15.046   8.234  20.228  0.00  0.00    -0.315 N 
ATOM      7  N   UNL     1      16.704   9.724  21.029  0.00  0.00    -0.240 NA
ATOM     14  C   UNL     1      12.325   7.808  19.309  0.00  0.00    +0.078 C 
ATOM     15  C   UNL     1      13.109   6.723  20.045  0.00  0.00    +0.031 C 
ATOM     16  C   UNL     1      13.263   8.803  18.629  0.00  0.00    +0.031 C 
ATOM     17  C   UNL     1      14.209   7.275  20.953  0.00  0.00    +0.107 C 
ATOM     18  C   UNL     1      14.342   9.340  19.569  0.00  0.00    +0.107 C 
ATOM     21  C   UNL     1      16.357   8.471  20.660  0.00  0.00    +0.122 A 
ATOM     25  C   UNL     1      17.223   7.389  20.679  0.00  0.00    +0.055 A 
ATOM     26  C   UNL     1      18.529   7.609  21.104  0.00  0.00    +0.027 A 
ATOM     27  C   UNL     1      18.922   8.885  21.492  0.00  0.00    +0.031 A 
ATOM     28  C   UNL     1      17.981   9.900  21.436  0.00  0.00    +0.113 A 
ENDROOT
BRANCH  26  23
ATOM      1  O   UNL     1      20.513   4.718  20.678  0.00  0.00    -0.336 OA
ATOM      5  N   UNL     1      20.436   6.447  22.102  0.00  0.00    -0.190 NA
ATOM      6  N   UNL     1      19.447   5.523  20.256  0.00  0.00    -0.056 NA
ATOM     19  C   UNL     1      21.039   5.333  21.769  0.00  0.00    +0.245 A 
ATOM     23  C   UNL     1      19.466   6.522  21.145  0.00  0.00    +0.202 A 
BRANCH  19   9
ATOM      3  N   UNL     1      23.487   4.890  21.697  0.00  0.00    -0.291 NA
ATOM      9  C   UNL     1      22.223   4.652  22.423  0.00  0.00    +0.146 C 
ATOM     10  C   UNL     1      22.490   5.163  23.851  0.00  0.00    +0.030 C 
ATOM     11  C   UNL     1      24.554   4.836  22.697  0.00  0.00    +0.085 C 
ATOM     12  C   UNL     1      23.945   5.610  23.847  0.00  0.00    +0.017 C 
BRANCH   3  13
ATOM     13  C   UNL     1      23.709   3.948  20.607  0.00  0.00    +0.085 C 
BRANCH  13  20
ATOM     20  C   UNL     1      23.294   2.542  21.030  0.00  0.00    +0.012 C 
ATOM     24  C   UNL     1      24.478   1.588  21.021  0.00  0.00    +0.005 C 
ENDBRANCH  13  20
ENDBRANCH   3  13
ENDBRANCH  19   9
ENDBRANCH  26  23
BRANCH  14  22
ATOM      2  O   UNL     1      11.469   9.724  20.455  0.00  0.00    -0.276 OA
ATOM      8  N   UNL     1      10.430   7.698  20.794  0.00  0.00    -0.329 N 
ATOM     22  C   UNL     1      11.378   8.520  20.229  0.00  0.00    +0.214 C 
ATOM     29  H   UNL     1       9.736   8.073  21.432  0.00  0.00    +0.145 HD
ATOM     30  H   UNL     1      10.409   6.696  20.645  0.00  0.00    +0.145 HD
ENDBRANCH  14  22
TORSDOF 5
ENDMDL
MODEL 5
REMARK VINA RESULT:      -6.7     27.633     30.550
REMARK  Name = 45783324
REMARK  6 active torsions:
REMARK  status: ('A' for Active; 'I' for Inactive)
REMARK    1  A    between atoms: N_3  and  C_13
REMARK    2  A    between atoms: C_9  and  C_19
REMARK    3  A    between atoms: C_13  and  C_20
REMARK    4  A    between atoms: C_14  and  C_22
REMARK    5  A    between atoms: C_20  and  C_24
REMARK    6  A    between atoms: C_23  and  C_26
REMARK                            x       y       z     vdW  Elec       q    Type
REMARK                         _______ _______ _______ _____ _____    ______ ____
ROOT
ATOM      4  N   UNL     1      -5.271 -11.072  16.808  0.00  0.00    -0.315 N 
ATOM      7  N   UNL     1      -2.905 -11.022  16.741  0.00  0.00    -0.240 NA
ATOM     14  C   UNL     1      -7.706 -11.354  18.364  0.00  0.00    +0.078 C 
ATOM     15  C   UNL     1      -7.623 -11.800  16.906  0.00  0.00    +0.031 C 
ATOM     16  C   UNL     1      -6.667 -10.278  18.674  0.00  0.00    +0.031 C 
ATOM     17  C   UNL     1      -6.204 -12.145  16.453  0.00  0.00    +0.107 C 
ATOM     18  C   UNL     1      -5.260 -10.662  18.217  0.00  0.00    +0.107 C 
ATOM     21  C   UNL     1      -4.083 -10.924  16.084  0.00  0.00    +0.122 A 
ATOM     25  C   UNL     1      -4.193 -10.682  14.724  0.00  0.00    +0.055 A 
ATOM     26  C   UNL     1      -3.021 -10.531  13.992  0.00  0.00    +0.027 A 
ATOM     27  C   UNL     1      -1.791 -10.625  14.633  0.00  0.00    +0.031 A 
ATOM     28  C   UNL     1      -1.786 -10.870  15.996  0.00  0.00    +0.113 A 
ENDROOT
BRANCH  26  23
ATOM      1  O   UNL     1      -2.532 -10.059  10.526  0.00  0.00    -0.336 OA
ATOM      5  N   UNL     1      -4.243  -9.914  11.965  0.00  0.00    -0.190 NA
ATOM      6  N   UNL     1      -2.012 -10.388  11.784  0.00  0.00    -0.056 NA
ATOM     19  C   UNL     1      -3.850  -9.793  10.722  0.00  0.00    +0.245 A 
ATOM     23  C   UNL     1      -3.081 -10.280  12.579  0.00  0.00    +0.202 A 
BRANCH  19   9
ATOM      3  N   UNL     1      -5.450 -10.527   8.963  0.00  0.00    -0.291 NA
ATOM      9  C   UNL     1      -4.650  -9.406   9.496  0.00  0.00    +0.146 C 
ATOM     10  C   UNL     1      -5.677  -8.294   9.782  0.00  0.00    +0.030 C 
ATOM     11  C   UNL     1      -6.623  -9.930   8.324  0.00  0.00    +0.085 C 
ATOM     12  C   UNL     1      -7.013  -8.859   9.322  0.00  0.00    +0.017 C 
BRANCH   3  13
ATOM     13  C   UNL     1      -4.703 -11.382   8.049  0.00  0.00    +0.085 C 
BRANCH  13  20
ATOM     20  C   UNL     1      -5.000 -10.997   6.603  0.00  0.00    +0.012 C 
ATOM     24  C   UNL     1      -4.331 -11.951   5.626  0.00  0.00    +0.005 C 
ENDBRANCH  13  20
ENDBRANCH   3  13
ENDBRANCH  19   9
ENDBRANCH  26  23
BRANCH  14  22
ATOM      2  O   UNL     1      -7.116 -12.383  20.441  0.00  0.00    -0.276 OA
ATOM      8  N   UNL     1      -7.946 -13.719  18.760  0.00  0.00    -0.329 N 
ATOM     22  C   UNL     1      -7.559 -12.515  19.302  0.00  0.00    +0.214 C 
ATOM     29  H   UNL     1      -7.891 -14.573  19.305  0.00  0.00    +0.145 HD
ATOM     30  H   UNL     1      -8.250 -13.819  17.798  0.00  0.00    +0.145 HD
ENDBRANCH  14  22
TORSDOF 5
ENDMDL
MODEL 6
REMARK VINA RESULT:      -6.7      2.958      4.052
REMARK  Name = 45783324
REMARK  6 active torsions:
REMARK  status: ('A' for Active; 'I' for Inactive)
REMARK    1  A    between atoms: N_3  and  C_13
REMARK    2  A    between atoms: C_9  and  C_19
REMARK    3  A    between atoms: C_13  and  C_20
REMARK    4  A    between atoms: C_14  and  C_22
REMARK    5  A    between atoms: C_20  and  C_24
REMARK    6  A    between atoms: C_23  and  C_26
REMARK                            x       y       z     vdW  Elec       q    Type
REMARK                         _______ _______ _______ _____ _____    ______ ____
ROOT
ATOM      4  N   UNL     1      14.812   7.567  19.504  0.00  0.00    -0.315 N 
ATOM      7  N   UNL     1      16.454   5.968  18.908  0.00  0.00    -0.240 NA
ATOM     14  C   UNL     1      12.161   8.677  19.092  0.00  0.00    +0.078 C 
ATOM     15  C   UNL     1      13.334   9.538  19.556  0.00  0.00    +0.031 C 
ATOM     16  C   UNL     1      12.377   7.208  19.448  0.00  0.00    +0.031 C 
ATOM     17  C   UNL     1      14.698   8.983  19.145  0.00  0.00    +0.107 C 
ATOM     18  C   UNL     1      13.746   6.686  19.013  0.00  0.00    +0.107 C 
ATOM     21  C   UNL     1      16.079   7.003  19.693  0.00  0.00    +0.122 A 
ATOM     25  C   UNL     1      16.876   7.550  20.687  0.00  0.00    +0.055 A 
ATOM     26  C   UNL     1      18.137   6.999  20.887  0.00  0.00    +0.027 A 
ATOM     27  C   UNL     1      18.557   5.933  20.099  0.00  0.00    +0.031 A 
ATOM     28  C   UNL     1      17.686   5.458  19.132  0.00  0.00    +0.113 A 
ENDROOT
BRANCH  26  23
ATOM      1  O   UNL     1      20.018   8.882  23.209  0.00  0.00    -0.336 OA
ATOM      5  N   UNL     1      19.811   6.722  22.648  0.00  0.00    -0.190 NA
ATOM      6  N   UNL     1      19.069   8.835  22.179  0.00  0.00    -0.056 NA
ATOM     19  C   UNL     1      20.403   7.597  23.422  0.00  0.00    +0.245 A 
ATOM     23  C   UNL     1      19.002   7.529  21.903  0.00  0.00    +0.202 A 
BRANCH  19   9
ATOM      3  N   UNL     1      20.921   6.571  25.630  0.00  0.00    -0.291 NA
ATOM      9  C   UNL     1      21.439   7.374  24.504  0.00  0.00    +0.146 C 
ATOM     10  C   UNL     1      22.668   6.593  24.000  0.00  0.00    +0.030 C 
ATOM     11  C   UNL     1      22.068   5.856  26.190  0.00  0.00    +0.085 C 
ATOM     12  C   UNL     1      22.795   5.403  24.941  0.00  0.00    +0.017 C 
BRANCH   3  13
ATOM     13  C   UNL     1      20.230   7.370  26.634  0.00  0.00    +0.085 C 
BRANCH  13  20
ATOM     20  C   UNL     1      21.029   8.631  26.949  0.00  0.00    +0.012 C 
ATOM     24  C   UNL     1      21.305   8.755  28.439  0.00  0.00    +0.005 C 
ENDBRANCH  13  20
ENDBRANCH   3  13
ENDBRANCH  19   9
ENDBRANCH  26  23
BRANCH  14  22
ATOM      2  O   UNL     1      11.298   7.993  16.969  0.00  0.00    -0.276 OA
ATOM      8  N   UNL     1      12.460   9.977  17.084  0.00  0.00    -0.329 N 
ATOM     22  C   UNL     1      11.916   8.832  17.619  0.00  0.00    +0.214 C 
ATOM     29  H   UNL     1      12.355  10.186  16.097  0.00  0.00    +0.145 HD
ATOM     30  H   UNL     1      13.020  10.627  17.624  0.00  0.00    +0.145 HD
ENDBRANCH  14  22
TORSDOF 5
ENDMDL
MODEL 7
REMARK VINA RESULT:      -6.6     28.217     30.698
REMARK  Name = 45783324
REMARK  6 active torsions:
REMARK  status: ('A' for Active; 'I' for Inactive)
REMARK    1  A    between atoms: N_3  and  C_13
REMARK    2  A    between atoms: C_9  and  C_19
REMARK    3  A    between atoms: C_13  and  C_20
REMARK    4  A    between atoms: C_14  and  C_22
REMARK    5  A    between atoms: C_20  and  C_24
REMARK    6  A    between atoms: C_23  and  C_26
REMARK                            x       y       z     vdW  Elec       q    Type
REMARK                         _______ _______ _______ _____ _____    ______ ____
ROOT
ATOM      4  N   UNL     1      -5.306 -10.140  10.582  0.00  0.00    -0.315 N 
ATOM      7  N   UNL     1      -2.979 -10.356  10.965  0.00  0.00    -0.240 NA
ATOM     14  C   UNL     1      -7.493  -9.819   8.699  0.00  0.00    +0.078 C 
ATOM     15  C   UNL     1      -7.557  -9.254  10.117  0.00  0.00    +0.031 C 
ATOM     16  C   UNL     1      -6.516 -10.990   8.613  0.00  0.00    +0.031 C 
ATOM     17  C   UNL     1      -6.183  -8.975  10.726  0.00  0.00    +0.107 C 
ATOM     18  C   UNL     1      -5.151 -10.671   9.222  0.00  0.00    +0.107 C 
ATOM     21  C   UNL     1      -4.234 -10.311  11.465  0.00  0.00    +0.122 A 
ATOM     25  C   UNL     1      -4.535 -10.424  12.814  0.00  0.00    +0.055 A 
ATOM     26  C   UNL     1      -3.481 -10.596  13.704  0.00  0.00    +0.027 A 
ATOM     27  C   UNL     1      -2.176 -10.647  13.226  0.00  0.00    +0.031 A 
ATOM     28  C   UNL     1      -1.980 -10.524  11.860  0.00  0.00    +0.113 A 
ENDROOT
BRANCH  26  23
ATOM      1  O   UNL     1      -3.522 -11.164  17.190  0.00  0.00    -0.336 OA
ATOM      5  N   UNL     1      -4.911 -10.289  15.665  0.00  0.00    -0.190 NA
ATOM      6  N   UNL     1      -2.857 -11.253  15.960  0.00  0.00    -0.056 NA
ATOM     19  C   UNL     1      -4.722 -10.586  16.926  0.00  0.00    +0.245 A 
ATOM     23  C   UNL     1      -3.739 -10.717  15.111  0.00  0.00    +0.202 A 
BRANCH  19   9
ATOM      3  N   UNL     1      -7.070 -10.492  17.746  0.00  0.00    -0.291 NA
ATOM      9  C   UNL     1      -5.644 -10.373  18.108  0.00  0.00    +0.146 C 
ATOM     10  C   UNL     1      -5.435 -11.418  19.221  0.00  0.00    +0.030 C 
ATOM     11  C   UNL     1      -7.763 -10.969  18.944  0.00  0.00    +0.085 C 
ATOM     12  C   UNL     1      -6.809 -12.029  19.456  0.00  0.00    +0.017 C 
BRANCH   3  13
ATOM     13  C   UNL     1      -7.640  -9.249  17.242  0.00  0.00    +0.085 C 
BRANCH  13  20
ATOM     20  C   UNL     1      -9.139  -9.409  17.009  0.00  0.00    +0.012 C 
ATOM     24  C   UNL     1      -9.902  -8.160  17.421  0.00  0.00    +0.005 C 
ENDBRANCH  13  20
ENDBRANCH   3  13
ENDBRANCH  19   9
ENDBRANCH  26  23
BRANCH  14  22
ATOM      2  O   UNL     1      -6.640  -9.028   6.609  0.00  0.00    -0.276 OA
ATOM      8  N   UNL     1      -7.386  -7.477   8.138  0.00  0.00    -0.329 N 
ATOM     22  C   UNL     1      -7.132  -8.757   7.702  0.00  0.00    +0.214 C 
ATOM     29  H   UNL     1      -7.183  -6.680   7.545  0.00  0.00    +0.145 HD
ATOM     30  H   UNL     1      -7.735  -7.269   9.067  0.00  0.00    +0.145 HD
ENDBRANCH  14  22
TORSDOF 5
ENDMDL
MODEL 8
REMARK VINA RESULT:      -6.5     28.447     31.415
REMARK  Name = 45783324
REMARK  6 active torsions:
REMARK  status: ('A' for Active; 'I' for Inactive)
REMARK    1  A    between atoms: N_3  and  C_13
REMARK    2  A    between atoms: C_9  and  C_19
REMARK    3  A    between atoms: C_13  and  C_20
REMARK    4  A    between atoms: C_14  and  C_22
REMARK    5  A    between atoms: C_20  and  C_24
REMARK    6  A    between atoms: C_23  and  C_26
REMARK                            x       y       z     vdW  Elec       q    Type
REMARK                         _______ _______ _______ _____ _____    ______ ____
ROOT
ATOM      4  N   UNL     1      -4.279 -10.960  14.805  0.00  0.00    -0.315 N 
ATOM      7  N   UNL     1      -2.415 -10.869  13.347  0.00  0.00    -0.240 NA
ATOM     14  C   UNL     1      -5.346 -11.567  17.436  0.00  0.00    +0.078 C 
ATOM     15  C   UNL     1      -6.184 -11.723  16.169  0.00  0.00    +0.031 C 
ATOM     16  C   UNL     1      -4.217 -10.558  17.233  0.00  0.00    +0.031 C 
ATOM     17  C   UNL     1      -5.348 -11.957  14.910  0.00  0.00    +0.107 C 
ATOM     18  C   UNL     1      -3.398 -10.830  15.971  0.00  0.00    +0.107 C 
ATOM     21  C   UNL     1      -3.736 -10.661  13.550  0.00  0.00    +0.122 A 
ATOM     25  C   UNL     1      -4.599 -10.163  12.587  0.00  0.00    +0.055 A 
ATOM     26  C   UNL     1      -4.074  -9.860  11.336  0.00  0.00    +0.027 A 
ATOM     27  C   UNL     1      -2.720 -10.060  11.089  0.00  0.00    +0.031 A 
ATOM     28  C   UNL     1      -1.940 -10.562  12.118  0.00  0.00    +0.113 A 
ENDROOT
BRANCH  26  23
ATOM      1  O   UNL     1      -6.007  -8.004   9.034  0.00  0.00    -0.336 OA
ATOM      5  N   UNL     1      -5.583 -10.168   9.436  0.00  0.00    -0.190 NA
ATOM      6  N   UNL     1      -5.130  -8.034  10.126  0.00  0.00    -0.056 NA
ATOM     19  C   UNL     1      -6.222  -9.301   8.691  0.00  0.00    +0.245 A 
ATOM     23  C   UNL     1      -4.926  -9.343  10.303  0.00  0.00    +0.202 A 
BRANCH  19   9
ATOM      3  N   UNL     1      -8.079  -8.420   7.288  0.00  0.00    -0.291 NA
ATOM      9  C   UNL     1      -7.149  -9.544   7.519  0.00  0.00    +0.146 C 
ATOM     10  C   UNL     1      -6.394  -9.707   6.186  0.00  0.00    +0.030 C 
ATOM     11  C   UNL     1      -8.375  -8.417   5.855  0.00  0.00    +0.085 C 
ATOM     12  C   UNL     1      -7.009  -8.675   5.252  0.00  0.00    +0.017 C 
BRANCH   3  13
ATOM     13  C   UNL     1      -9.288  -8.500   8.097  0.00  0.00    +0.085 C 
BRANCH  13  20
ATOM     20  C   UNL     1      -9.581  -7.150   8.746  0.00  0.00    +0.012 C 
ATOM     24  C   UNL     1      -8.662  -6.064   8.208  0.00  0.00    +0.005 C 
ENDBRANCH  13  20
ENDBRANCH   3  13
ENDBRANCH  19   9
ENDBRANCH  26  23
BRANCH  14  22
ATOM      2  O   UNL     1      -5.175 -13.953  17.420  0.00  0.00    -0.276 OA
ATOM      8  N   UNL     1      -3.864 -12.776  18.901  0.00  0.00    -0.329 N 
ATOM     22  C   UNL     1      -4.798 -12.886  17.897  0.00  0.00    +0.214 C 
ATOM     29  H   UNL     1      -3.424 -13.604  19.290  0.00  0.00    +0.145 HD
ATOM     30  H   UNL     1      -3.610 -11.892  19.326  0.00  0.00    +0.145 HD
ENDBRANCH  14  22
TORSDOF 5
ENDMDL
MODEL 9
REMARK VINA RESULT:      -6.2      6.598      7.978
REMARK  Name = 45783324
REMARK  6 active torsions:
REMARK  status: ('A' for Active; 'I' for Inactive)
REMARK    1  A    between atoms: N_3  and  C_13
REMARK    2  A    between atoms: C_9  and  C_19
REMARK    3  A    between atoms: C_13  and  C_20
REMARK    4  A    between atoms: C_14  and  C_22
REMARK    5  A    between atoms: C_20  and  C_24
REMARK    6  A    between atoms: C_23  and  C_26
REMARK                            x       y       z     vdW  Elec       q    Type
REMARK                         _______ _______ _______ _____ _____    ______ ____
ROOT
ATOM      4  N   UNL     1      12.774   9.098  19.178  0.00  0.00    -0.315 N 
ATOM      7  N   UNL     1      12.196   9.154  16.882  0.00  0.00    -0.240 NA
ATOM     14  C   UNL     1      12.207   8.136  21.858  0.00  0.00    +0.078 C 
ATOM     15  C   UNL     1      12.862   9.493  21.608  0.00  0.00    +0.031 C 
ATOM     16  C   UNL     1      12.445   7.182  20.689  0.00  0.00    +0.031 C 
ATOM     17  C   UNL     1      12.538  10.083  20.236  0.00  0.00    +0.107 C 
ATOM     18  C   UNL     1      12.100   7.803  19.336  0.00  0.00    +0.107 C 
ATOM     21  C   UNL     1      13.033   9.534  17.873  0.00  0.00    +0.122 A 
ATOM     25  C   UNL     1      14.147  10.337  17.682  0.00  0.00    +0.055 A 
ATOM     26  C   UNL     1      14.418  10.777  16.392  0.00  0.00    +0.027 A 
ATOM     27  C   UNL     1      13.580  10.407  15.346  0.00  0.00    +0.031 A 
ATOM     28  C   UNL     1      12.492   9.601  15.641  0.00  0.00    +0.113 A 
ENDROOT
BRANCH  26  23
ATOM      1  O   UNL     1      17.065  13.115  16.338  0.00  0.00    -0.336 OA
ATOM      5  N   UNL     1      16.328  11.457  15.023  0.00  0.00    -0.190 NA
ATOM      6  N   UNL     1      15.937  12.584  16.976  0.00  0.00    -0.056 NA
ATOM     19  C   UNL     1      17.224  12.396  15.197  0.00  0.00    +0.245 A 
ATOM     23  C   UNL     1      15.559  11.611  16.140  0.00  0.00    +0.202 A 
BRANCH  19   9
ATOM      3  N   UNL     1      19.333  11.661  14.099  0.00  0.00    -0.291 NA
ATOM      9  C   UNL     1      18.394  12.779  14.315  0.00  0.00    +0.146 C 
ATOM     10  C   UNL     1      17.959  13.204  12.900  0.00  0.00    +0.030 C 
ATOM     11  C   UNL     1      19.942  11.880  12.786  0.00  0.00    +0.085 C 
ATOM     12  C   UNL     1      18.750  12.310  11.956  0.00  0.00    +0.017 C 
BRANCH   3  13
ATOM     13  C   UNL     1      20.332  11.538  15.152  0.00  0.00    +0.085 C 
BRANCH  13  20
ATOM     20  C   UNL     1      21.647  11.018  14.578  0.00  0.00    +0.012 C 
ATOM     24  C   UNL     1      22.649  10.706  15.679  0.00  0.00    +0.005 C 
ENDBRANCH  13  20
ENDBRANCH   3  13
ENDBRANCH  19   9
ENDBRANCH  26  23
BRANCH  14  22
ATOM      2  O   UNL     1      10.246   9.333  22.526  0.00  0.00    -0.276 OA
ATOM      8  N   UNL     1      10.021   7.124  21.918  0.00  0.00    -0.329 N 
ATOM     22  C   UNL     1      10.738   8.278  22.132  0.00  0.00    +0.214 C 
ATOM     29  H   UNL     1       9.018   7.105  22.069  0.00  0.00    +0.145 HD
ATOM     30  H   UNL     1      10.452   6.247  21.652  0.00  0.00    +0.145 HD
ENDBRANCH  14  22
TORSDOF 5
ENDMDL
MODEL 10
REMARK VINA RESULT:      -6.1     19.112     22.347
REMARK  Name = 45783324
REMARK  6 active torsions:
REMARK  status: ('A' for Active; 'I' for Inactive)
REMARK    1  A    between atoms: N_3  and  C_13
REMARK    2  A    between atoms: C_9  and  C_19
REMARK    3  A    between atoms: C_13  and  C_20
REMARK    4  A    between atoms: C_14  and  C_22
REMARK    5  A    between atoms: C_20  and  C_24
REMARK    6  A    between atoms: C_23  and  C_26
REMARK                            x       y       z     vdW  Elec       q    Type
REMARK                         _______ _______ _______ _____ _____    ______ ____
ROOT
ATOM      4  N   UNL     1      10.696   4.144  -1.618  0.00  0.00    -0.315 N 
ATOM      7  N   UNL     1      12.746   3.520  -0.609  0.00  0.00    -0.240 NA
ATOM     14  C   UNL     1       9.079   4.374  -4.019  0.00  0.00    +0.078 C 
ATOM     15  C   UNL     1       8.930   5.344  -2.849  0.00  0.00    +0.031 C 
ATOM     16  C   UNL     1       9.663   3.039  -3.561  0.00  0.00    +0.031 C 
ATOM     17  C   UNL     1      10.193   5.468  -1.995  0.00  0.00    +0.107 C 
ATOM     18  C   UNL     1      10.929   3.202  -2.719  0.00  0.00    +0.107 C 
ATOM     21  C   UNL     1      11.492   4.008  -0.475  0.00  0.00    +0.122 A 
ATOM     25  C   UNL     1      10.933   4.386   0.736  0.00  0.00    +0.055 A 
ATOM     26  C   UNL     1      11.711   4.256   1.881  0.00  0.00    +0.027 A 
ATOM     27  C   UNL     1      13.005   3.758   1.782  0.00  0.00    +0.031 A 
ATOM     28  C   UNL     1      13.472   3.407   0.526  0.00  0.00    +0.113 A 
ENDROOT
BRANCH  26  23
ATOM      1  O   UNL     1      10.178   4.577   5.047  0.00  0.00    -0.336 OA
ATOM      5  N   UNL     1      11.356   5.890   3.666  0.00  0.00    -0.190 NA
ATOM      6  N   UNL     1      10.484   3.791   3.928  0.00  0.00    -0.056 NA
ATOM     19  C   UNL     1      10.728   5.796   4.810  0.00  0.00    +0.245 A 
ATOM     23  C   UNL     1      11.179   4.635   3.160  0.00  0.00    +0.202 A 
BRANCH  19   9
ATOM      3  N   UNL     1       9.198   7.469   5.840  0.00  0.00    -0.291 NA
ATOM      9  C   UNL     1      10.535   6.843   5.887  0.00  0.00    +0.146 C 
ATOM     10  C   UNL     1      10.645   6.262   7.309  0.00  0.00    +0.030 C 
ATOM     11  C   UNL     1       8.879   7.864   7.212  0.00  0.00    +0.085 C 
ATOM     12  C   UNL     1       9.351   6.662   8.003  0.00  0.00    +0.017 C 
BRANCH   3  13
ATOM     13  C   UNL     1       9.122   8.591   4.914  0.00  0.00    +0.085 C 
BRANCH  13  20
ATOM     20  C   UNL     1       8.105   8.302   3.814  0.00  0.00    +0.012 C 
ATOM     24  C   UNL     1       7.043   9.388   3.740  0.00  0.00    +0.005 C 
ENDBRANCH  13  20
ENDBRANCH   3  13
ENDBRANCH  19   9
ENDBRANCH  26  23
BRANCH  14  22
ATOM      2  O   UNL     1      10.666   4.279  -5.805  0.00  0.00    -0.276 OA
ATOM      8  N   UNL     1       9.758   6.323  -5.261  0.00  0.00    -0.329 N 
ATOM     22  C   UNL     1       9.911   4.964  -5.119  0.00  0.00    +0.214 C 
ATOM     29  H   UNL     1      10.272   6.829  -5.976  0.00  0.00    +0.145 HD
ATOM     30  H   UNL     1       9.179   6.882  -4.645  0.00  0.00    +0.145 HD
ENDBRANCH  14  22
TORSDOF 5
ENDMDL
