MODEL 1
REMARK VINA RESULT:      -8.2      0.000      0.000
REMARK  Name = 51136964
REMARK  6 active torsions:
REMARK  status: ('A' for Active; 'I' for Inactive)
REMARK    1  A    between atoms: N_2  and  C_11
REMARK    2  A    between atoms: C_7  and  C_12
REMARK    3  A    between atoms: C_11  and  C_13
REMARK    4  A    between atoms: C_14  and  C_18
REMARK    5  A    between atoms: C_16  and  C_21
REMARK    6  A    between atoms: C_25  and  C_26
REMARK                            x       y       z     vdW  Elec       q    Type
REMARK                         _______ _______ _______ _____ _____    ______ ____
ROOT
ATOM      1  O   UNL     1     -17.465   2.372  22.330  0.00  0.00    -0.336 OA
ATOM      3  N   UNL     1     -17.060   3.929  23.887  0.00  0.00    -0.190 NA
ATOM      4  N   UNL     1     -17.152   1.676  23.503  0.00  0.00    -0.056 NA
ATOM     12  C   UNL     1     -17.387   3.691  22.642  0.00  0.00    +0.245 A 
ATOM     16  C   UNL     1     -16.926   2.662  24.376  0.00  0.00    +0.204 A 
ENDROOT
BRANCH  16  21
ATOM      5  N   UNL     1     -16.293   0.841  27.556  0.00  0.00    -0.254 NA
ATOM     21  C   UNL     1     -16.565   2.416  25.742  0.00  0.00    +0.041 A 
ATOM     22  C   UNL     1     -16.148   3.452  26.570  0.00  0.00    +0.015 A 
ATOM     23  C   UNL     1     -16.620   1.140  26.278  0.00  0.00    +0.123 A 
ATOM     24  C   UNL     1     -15.803   3.184  27.891  0.00  0.00    +0.029 A 
ATOM     25  C   UNL     1     -15.892   1.873  28.330  0.00  0.00    +0.071 A 
BRANCH  25  26
ATOM      6  N   UNL     1     -14.888   0.839  32.317  0.00  0.00    -0.263 NA
ATOM     26  C   UNL     1     -15.550   1.520  29.688  0.00  0.00    +0.003 A 
ATOM     27  C   UNL     1     -15.310   0.192  30.025  0.00  0.00    +0.030 A 
ATOM     28  C   UNL     1     -15.459   2.507  30.663  0.00  0.00    +0.030 A 
ATOM     29  C   UNL     1     -14.986  -0.093  31.342  0.00  0.00    +0.111 A 
ATOM     30  C   UNL     1     -15.128   2.118  31.951  0.00  0.00    +0.111 A 
ENDBRANCH  25  26
ENDBRANCH  16  21
BRANCH  12   7
ATOM      2  N   UNL     1     -16.462   5.179  20.875  0.00  0.00    -0.287 NA
ATOM      7  C   UNL     1     -17.685   4.669  21.524  0.00  0.00    +0.146 C 
ATOM      8  C   UNL     1     -18.500   4.035  20.382  0.00  0.00    +0.030 C 
ATOM      9  C   UNL     1     -17.684   4.293  19.123  0.00  0.00    +0.017 C 
ATOM     10  C   UNL     1     -16.825   5.485  19.491  0.00  0.00    +0.085 C 
BRANCH   2  11
ATOM     11  C   UNL     1     -15.887   6.332  21.558  0.00  0.00    +0.120 C 
BRANCH  11  13
ATOM     13  C   UNL     1     -14.464   6.582  21.134  0.00  0.00    -0.030 A 
ATOM     14  C   UNL     1     -13.406   5.900  21.735  0.00  0.00    -0.046 A 
ATOM     15  C   UNL     1     -14.211   7.510  20.124  0.00  0.00    +0.005 A 
ATOM     17  C   UNL     1     -12.096   6.148  21.326  0.00  0.00    +0.003 A 
ATOM     18  C   UNL     1     -13.651   4.902  22.818  0.00  0.00    +0.044 C 
ATOM     19  C   UNL     1     -12.901   7.758  19.715  0.00  0.00    +0.000 A 
ATOM     20  C   UNL     1     -11.843   7.076  20.316  0.00  0.00    +0.000 A 
ENDBRANCH  11  13
ENDBRANCH   2  11
ENDBRANCH  12   7
TORSDOF 5
ENDMDL
MODEL 2
REMARK VINA RESULT:      -7.7     29.872     33.269
REMARK  Name = 51136964
REMARK  6 active torsions:
REMARK  status: ('A' for Active; 'I' for Inactive)
REMARK    1  A    between atoms: N_2  and  C_11
REMARK    2  A    between atoms: C_7  and  C_12
REMARK    3  A    between atoms: C_11  and  C_13
REMARK    4  A    between atoms: C_14  and  C_18
REMARK    5  A    between atoms: C_16  and  C_21
REMARK    6  A    between atoms: C_25  and  C_26
REMARK                            x       y       z     vdW  Elec       q    Type
REMARK                         _______ _______ _______ _____ _____    ______ ____
ROOT
ATOM      1  O   UNL     1      14.390   6.969  19.330  0.00  0.00    -0.336 OA
ATOM      3  N   UNL     1      15.599   7.340  21.179  0.00  0.00    -0.190 NA
ATOM      4  N   UNL     1      15.664   6.449  19.073  0.00  0.00    -0.056 NA
ATOM     12  C   UNL     1      14.438   7.475  20.590  0.00  0.00    +0.245 A 
ATOM     16  C   UNL     1      16.319   6.705  20.209  0.00  0.00    +0.204 A 
ENDROOT
BRANCH  16  21
ATOM      5  N   UNL     1      19.550   4.900  19.841  0.00  0.00    -0.254 NA
ATOM     21  C   UNL     1      17.692   6.340  20.406  0.00  0.00    +0.041 A 
ATOM     22  C   UNL     1      18.492   7.027  21.313  0.00  0.00    +0.015 A 
ATOM     23  C   UNL     1      18.263   5.294  19.702  0.00  0.00    +0.123 A 
ATOM     24  C   UNL     1      19.820   6.652  21.484  0.00  0.00    +0.029 A 
ATOM     25  C   UNL     1      20.296   5.591  20.731  0.00  0.00    +0.071 A 
BRANCH  25  26
ATOM      6  N   UNL     1      24.313   4.287  21.096  0.00  0.00    -0.263 NA
ATOM     26  C   UNL     1      21.664   5.146  20.855  0.00  0.00    +0.003 A 
ATOM     27  C   UNL     1      21.941   3.831  21.213  0.00  0.00    +0.030 A 
ATOM     28  C   UNL     1      22.709   6.032  20.618  0.00  0.00    +0.030 A 
ATOM     29  C   UNL     1      23.270   3.455  21.319  0.00  0.00    +0.111 A 
ATOM     30  C   UNL     1      24.004   5.557  20.750  0.00  0.00    +0.111 A 
ENDBRANCH  25  26
ENDBRANCH  16  21
BRANCH  12   7
ATOM      2  N   UNL     1      12.292   8.606  20.033  0.00  0.00    -0.287 NA
ATOM      7  C   UNL     1      13.164   8.106  21.114  0.00  0.00    +0.146 C 
ATOM      8  C   UNL     1      12.286   7.112  21.896  0.00  0.00    +0.030 C 
ATOM      9  C   UNL     1      10.924   7.167  21.219  0.00  0.00    +0.017 C 
ATOM     10  C   UNL     1      10.920   8.518  20.533  0.00  0.00    +0.085 C 
BRANCH   2  11
ATOM     11  C   UNL     1      12.631   9.956  19.599  0.00  0.00    +0.120 C 
BRANCH  11  13
ATOM     13  C   UNL     1      13.128   9.980  18.178  0.00  0.00    -0.030 A 
ATOM     14  C   UNL     1      14.350  10.571  17.855  0.00  0.00    -0.046 A 
ATOM     15  C   UNL     1      12.348   9.400  17.178  0.00  0.00    +0.005 A 
ATOM     17  C   UNL     1      14.790  10.581  16.532  0.00  0.00    +0.003 A 
ATOM     18  C   UNL     1      15.202  11.199  18.908  0.00  0.00    +0.044 C 
ATOM     19  C   UNL     1      12.789   9.410  15.854  0.00  0.00    +0.000 A 
ATOM     20  C   UNL     1      14.010  10.001  15.531  0.00  0.00    +0.000 A 
ENDBRANCH  11  13
ENDBRANCH   2  11
ENDBRANCH  12   7
TORSDOF 5
ENDMDL
MODEL 3
REMARK VINA RESULT:      -7.6     30.949     35.530
REMARK  Name = 51136964
REMARK  6 active torsions:
REMARK  status: ('A' for Active; 'I' for Inactive)
REMARK    1  A    between atoms: N_2  and  C_11
REMARK    2  A    between atoms: C_7  and  C_12
REMARK    3  A    between atoms: C_11  and  C_13
REMARK    4  A    between atoms: C_14  and  C_18
REMARK    5  A    between atoms: C_16  and  C_21
REMARK    6  A    between atoms: C_25  and  C_26
REMARK                            x       y       z     vdW  Elec       q    Type
REMARK                         _______ _______ _______ _____ _____    ______ ____
ROOT
ATOM      1  O   UNL     1      10.296   6.896  -1.267  0.00  0.00    -0.336 OA
ATOM      3  N   UNL     1      10.472   5.080   0.030  0.00  0.00    -0.190 NA
ATOM      4  N   UNL     1      10.034   7.325   0.040  0.00  0.00    -0.056 NA
ATOM     12  C   UNL     1      10.543   5.563  -1.184  0.00  0.00    +0.245 A 
ATOM     16  C   UNL     1      10.157   6.198   0.747  0.00  0.00    +0.204 A 
ENDROOT
BRANCH  16  21
ATOM      5  N   UNL     1      10.409   5.056   4.277  0.00  0.00    -0.254 NA
ATOM     21  C   UNL     1       9.971   6.154   2.168  0.00  0.00    +0.041 A 
ATOM     22  C   UNL     1       9.208   7.116   2.821  0.00  0.00    +0.015 A 
ATOM     23  C   UNL     1      10.545   5.154   2.934  0.00  0.00    +0.123 A 
ATOM     24  C   UNL     1       9.045   7.049   4.200  0.00  0.00    +0.029 A 
ATOM     25  C   UNL     1       9.661   6.008   4.875  0.00  0.00    +0.071 A 
BRANCH  25  26
ATOM      6  N   UNL     1       9.295   5.615   9.080  0.00  0.00    -0.263 NA
ATOM     26  C   UNL     1       9.536   5.875   6.308  0.00  0.00    +0.003 A 
ATOM     27  C   UNL     1       9.094   6.948   7.073  0.00  0.00    +0.030 A 
ATOM     28  C   UNL     1       9.858   4.672   6.926  0.00  0.00    +0.030 A 
ATOM     29  C   UNL     1       8.992   6.769   8.443  0.00  0.00    +0.111 A 
ATOM     30  C   UNL     1       9.721   4.595   8.303  0.00  0.00    +0.111 A 
ENDBRANCH  25  26
ENDBRANCH  16  21
BRANCH  12   7
ATOM      2  N   UNL     1      11.752   3.693  -2.294  0.00  0.00    -0.287 NA
ATOM      7  C   UNL     1      10.859   4.852  -2.484  0.00  0.00    +0.146 C 
ATOM      8  C   UNL     1       9.605   4.273  -3.164  0.00  0.00    +0.030 C 
ATOM      9  C   UNL     1       9.912   2.796  -3.371  0.00  0.00    +0.017 C 
ATOM     10  C   UNL     1      11.426   2.741  -3.355  0.00  0.00    +0.085 C 
BRANCH   2  11
ATOM     11  C   UNL     1      13.166   4.051  -2.294  0.00  0.00    +0.120 C 
BRANCH  11  13
ATOM     13  C   UNL     1      13.790   3.870  -0.936  0.00  0.00    -0.030 A 
ATOM     14  C   UNL     1      15.133   4.177  -0.717  0.00  0.00    -0.046 A 
ATOM     15  C   UNL     1      13.005   3.388   0.112  0.00  0.00    +0.005 A 
ATOM     17  C   UNL     1      15.690   4.001   0.550  0.00  0.00    +0.003 A 
ATOM     18  C   UNL     1      15.993   4.694  -1.822  0.00  0.00    +0.044 C 
ATOM     19  C   UNL     1      13.562   3.213   1.378  0.00  0.00    +0.000 A 
ATOM     20  C   UNL     1      14.905   3.520   1.597  0.00  0.00    +0.000 A 
ENDBRANCH  11  13
ENDBRANCH   2  11
ENDBRANCH  12   7
TORSDOF 5
ENDMDL
MODEL 4
REMARK VINA RESULT:      -7.5     29.212     32.640
REMARK  Name = 51136964
REMARK  6 active torsions:
REMARK  status: ('A' for Active; 'I' for Inactive)
REMARK    1  A    between atoms: N_2  and  C_11
REMARK    2  A    between atoms: C_7  and  C_12
REMARK    3  A    between atoms: C_11  and  C_13
REMARK    4  A    between atoms: C_14  and  C_18
REMARK    5  A    between atoms: C_16  and  C_21
REMARK    6  A    between atoms: C_25  and  C_26
REMARK                            x       y       z     vdW  Elec       q    Type
REMARK                         _______ _______ _______ _____ _____    ______ ____
ROOT
ATOM      1  O   UNL     1      14.253   8.345  20.010  0.00  0.00    -0.336 OA
ATOM      3  N   UNL     1      15.200   7.190  21.678  0.00  0.00    -0.190 NA
ATOM      4  N   UNL     1      15.545   8.025  19.576  0.00  0.00    -0.056 NA
ATOM     12  C   UNL     1      14.132   7.818  21.256  0.00  0.00    +0.245 A 
ATOM     16  C   UNL     1      16.040   7.343  20.613  0.00  0.00    +0.204 A 
ENDROOT
BRANCH  16  21
ATOM      5  N   UNL     1      19.574   6.750  21.609  0.00  0.00    -0.254 NA
ATOM     21  C   UNL     1      17.369   6.804  20.618  0.00  0.00    +0.041 A 
ATOM     22  C   UNL     1      17.758   5.848  19.687  0.00  0.00    +0.015 A 
ATOM     23  C   UNL     1      18.306   7.219  21.550  0.00  0.00    +0.123 A 
ATOM     24  C   UNL     1      19.053   5.342  19.715  0.00  0.00    +0.029 A 
ATOM     25  C   UNL     1      19.915   5.823  20.688  0.00  0.00    +0.071 A 
BRANCH  25  26
ATOM      6  N   UNL     1      23.904   4.414  20.954  0.00  0.00    -0.263 NA
ATOM     26  C   UNL     1      21.274   5.343  20.778  0.00  0.00    +0.003 A 
ATOM     27  C   UNL     1      22.336   6.206  20.534  0.00  0.00    +0.030 A 
ATOM     28  C   UNL     1      21.524   4.017  21.111  0.00  0.00    +0.030 A 
ATOM     29  C   UNL     1      23.621   5.697  20.633  0.00  0.00    +0.111 A 
ATOM     30  C   UNL     1      22.846   3.606  21.186  0.00  0.00    +0.111 A 
ENDBRANCH  25  26
ENDBRANCH  16  21
BRANCH  12   7
ATOM      2  N   UNL     1      12.234   9.366  21.693  0.00  0.00    -0.287 NA
ATOM      7  C   UNL     1      12.805   8.031  21.955  0.00  0.00    +0.146 C 
ATOM      8  C   UNL     1      11.721   7.043  21.485  0.00  0.00    +0.030 C 
ATOM      9  C   UNL     1      10.558   7.915  21.035  0.00  0.00    +0.017 C 
ATOM     10  C   UNL     1      10.781   9.218  21.774  0.00  0.00    +0.085 C 
BRANCH   2  11
ATOM     11  C   UNL     1      12.732  10.392  22.601  0.00  0.00    +0.120 C 
BRANCH  11  13
ATOM     13  C   UNL     1      11.939  11.668  22.494  0.00  0.00    -0.030 A 
ATOM     14  C   UNL     1      11.209  12.152  23.580  0.00  0.00    -0.046 A 
ATOM     15  C   UNL     1      11.942  12.368  21.288  0.00  0.00    +0.005 A 
ATOM     17  C   UNL     1      10.482  13.336  23.458  0.00  0.00    +0.003 A 
ATOM     18  C   UNL     1      11.190  11.419  24.881  0.00  0.00    +0.044 C 
ATOM     19  C   UNL     1      11.215  13.552  21.166  0.00  0.00    +0.000 A 
ATOM     20  C   UNL     1      10.485  14.036  22.252  0.00  0.00    +0.000 A 
ENDBRANCH  11  13
ENDBRANCH   2  11
ENDBRANCH  12   7
TORSDOF 5
ENDMDL
MODEL 5
REMARK VINA RESULT:      -7.4     32.588     36.077
REMARK  Name = 51136964
REMARK  6 active torsions:
REMARK  status: ('A' for Active; 'I' for Inactive)
REMARK    1  A    between atoms: N_2  and  C_11
REMARK    2  A    between atoms: C_7  and  C_12
REMARK    3  A    between atoms: C_11  and  C_13
REMARK    4  A    between atoms: C_14  and  C_18
REMARK    5  A    between atoms: C_16  and  C_21
REMARK    6  A    between atoms: C_25  and  C_26
REMARK                            x       y       z     vdW  Elec       q    Type
REMARK                         _______ _______ _______ _____ _____    ______ ____
ROOT
ATOM      1  O   UNL     1      20.826   5.257  20.446  0.00  0.00    -0.336 OA
ATOM      3  N   UNL     1      19.797   7.122  21.137  0.00  0.00    -0.190 NA
ATOM      4  N   UNL     1      19.477   5.108  20.100  0.00  0.00    -0.056 NA
ATOM     12  C   UNL     1      20.927   6.469  21.052  0.00  0.00    +0.245 A 
ATOM     16  C   UNL     1      18.935   6.248  20.539  0.00  0.00    +0.204 A 
ENDROOT
BRANCH  16  21
ATOM      5  N   UNL     1      15.503   7.416  21.367  0.00  0.00    -0.254 NA
ATOM     21  C   UNL     1      17.539   6.543  20.398  0.00  0.00    +0.041 A 
ATOM     22  C   UNL     1      16.864   6.267  19.214  0.00  0.00    +0.015 A 
ATOM     23  C   UNL     1      16.820   7.113  21.436  0.00  0.00    +0.123 A 
ATOM     24  C   UNL     1      15.510   6.564  19.105  0.00  0.00    +0.029 A 
ATOM     25  C   UNL     1      14.882   7.132  20.201  0.00  0.00    +0.071 A 
BRANCH  25  26
ATOM      6  N   UNL     1      10.761   8.119  20.081  0.00  0.00    -0.263 NA
ATOM     26  C   UNL     1      13.478   7.468  20.161  0.00  0.00    +0.003 A 
ATOM     27  C   UNL     1      12.634   7.067  21.191  0.00  0.00    +0.030 A 
ATOM     28  C   UNL     1      12.966   8.194  19.091  0.00  0.00    +0.030 A 
ATOM     29  C   UNL     1      11.296   7.415  21.104  0.00  0.00    +0.111 A 
ATOM     30  C   UNL     1      11.612   8.492  19.099  0.00  0.00    +0.111 A 
ENDBRANCH  25  26
ENDBRANCH  16  21
BRANCH  12   7
ATOM      2  N   UNL     1      23.278   5.762  21.462  0.00  0.00    -0.287 NA
ATOM      7  C   UNL     1      22.308   6.872  21.528  0.00  0.00    +0.146 C 
ATOM      8  C   UNL     1      22.930   7.988  20.667  0.00  0.00    +0.030 C 
ATOM      9  C   UNL     1      24.274   7.435  20.213  0.00  0.00    +0.017 C 
ATOM     10  C   UNL     1      24.590   6.372  21.245  0.00  0.00    +0.085 C 
BRANCH   2  11
ATOM     11  C   UNL     1      23.258   4.911  22.646  0.00  0.00    +0.120 C 
BRANCH  11  13
ATOM     13  C   UNL     1      23.654   3.495  22.325  0.00  0.00    -0.030 A 
ATOM     14  C   UNL     1      24.026   2.607  23.334  0.00  0.00    -0.046 A 
ATOM     15  C   UNL     1      23.645   3.074  20.995  0.00  0.00    +0.005 A 
ATOM     17  C   UNL     1      24.389   1.300  23.013  0.00  0.00    +0.003 A 
ATOM     18  C   UNL     1      24.044   3.035  24.765  0.00  0.00    +0.044 C 
ATOM     19  C   UNL     1      24.008   1.766  20.674  0.00  0.00    +0.000 A 
ATOM     20  C   UNL     1      24.380   0.879  21.684  0.00  0.00    +0.000 A 
ENDBRANCH  11  13
ENDBRANCH   2  11
ENDBRANCH  12   7
TORSDOF 5
ENDMDL
MODEL 6
REMARK VINA RESULT:      -7.3     18.098     19.303
REMARK  Name = 51136964
REMARK  6 active torsions:
REMARK  status: ('A' for Active; 'I' for Inactive)
REMARK    1  A    between atoms: N_2  and  C_11
REMARK    2  A    between atoms: C_7  and  C_12
REMARK    3  A    between atoms: C_11  and  C_13
REMARK    4  A    between atoms: C_14  and  C_18
REMARK    5  A    between atoms: C_16  and  C_21
REMARK    6  A    between atoms: C_25  and  C_26
REMARK                            x       y       z     vdW  Elec       q    Type
REMARK                         _______ _______ _______ _____ _____    ______ ____
ROOT
ATOM      1  O   UNL     1      -5.219  -9.479  16.050  0.00  0.00    -0.336 OA
ATOM      3  N   UNL     1      -5.727 -11.455  16.974  0.00  0.00    -0.190 NA
ATOM      4  N   UNL     1      -6.433  -9.293  16.722  0.00  0.00    -0.056 NA
ATOM     12  C   UNL     1      -4.874 -10.778  16.247  0.00  0.00    +0.245 A 
ATOM     16  C   UNL     1      -6.667 -10.502  17.241  0.00  0.00    +0.204 A 
ENDROOT
BRANCH  16  21
ATOM      5  N   UNL     1     -10.139 -10.312  18.559  0.00  0.00    -0.254 NA
ATOM     21  C   UNL     1      -7.829 -10.790  18.031  0.00  0.00    +0.041 A 
ATOM     22  C   UNL     1      -7.805 -11.783  19.004  0.00  0.00    +0.015 A 
ATOM     23  C   UNL     1      -9.010 -10.090  17.849  0.00  0.00    +0.123 A 
ATOM     24  C   UNL     1      -8.947 -12.042  19.755  0.00  0.00    +0.029 A 
ATOM     25  C   UNL     1     -10.078 -11.285  19.495  0.00  0.00    +0.071 A 
BRANCH  25  26
ATOM      6  N   UNL     1     -13.666 -11.907  21.665  0.00  0.00    -0.263 NA
ATOM     26  C   UNL     1     -11.300 -11.497  20.235  0.00  0.00    +0.003 A 
ATOM     27  C   UNL     1     -11.558 -12.734  20.816  0.00  0.00    +0.030 A 
ATOM     28  C   UNL     1     -12.223 -10.466  20.367  0.00  0.00    +0.030 A 
ATOM     29  C   UNL     1     -12.745 -12.886  21.514  0.00  0.00    +0.111 A 
ATOM     30  C   UNL     1     -13.380 -10.720  21.086  0.00  0.00    +0.111 A 
ENDBRANCH  25  26
ENDBRANCH  16  21
BRANCH  12   7
ATOM      2  N   UNL     1      -3.309 -10.567  14.325  0.00  0.00    -0.287 NA
ATOM      7  C   UNL     1      -3.578 -11.238  15.611  0.00  0.00    +0.146 C 
ATOM      8  C   UNL     1      -2.346 -10.926  16.481  0.00  0.00    +0.030 C 
ATOM      9  C   UNL     1      -1.415 -10.130  15.578  0.00  0.00    +0.017 C 
ATOM     10  C   UNL     1      -1.854 -10.518  14.180  0.00  0.00    +0.085 C 
BRANCH   2  11
ATOM     11  C   UNL     1      -3.950 -11.222  13.190  0.00  0.00    +0.120 C 
BRANCH  11  13
ATOM     13  C   UNL     1      -4.177 -10.268  12.048  0.00  0.00    -0.030 A 
ATOM     14  C   UNL     1      -5.380  -9.574  11.921  0.00  0.00    -0.046 A 
ATOM     15  C   UNL     1      -3.163 -10.082  11.108  0.00  0.00    +0.005 A 
ATOM     17  C   UNL     1      -5.569  -8.695  10.855  0.00  0.00    +0.003 A 
ATOM     18  C   UNL     1      -6.481  -9.757  12.914  0.00  0.00    +0.044 C 
ATOM     19  C   UNL     1      -3.351  -9.203  10.042  0.00  0.00    +0.000 A 
ATOM     20  C   UNL     1      -4.555  -8.510   9.915  0.00  0.00    +0.000 A 
ENDBRANCH  11  13
ENDBRANCH   2  11
ENDBRANCH  12   7
TORSDOF 5
ENDMDL
MODEL 7
REMARK VINA RESULT:      -7.2     18.184     19.860
REMARK  Name = 51136964
REMARK  6 active torsions:
REMARK  status: ('A' for Active; 'I' for Inactive)
REMARK    1  A    between atoms: N_2  and  C_11
REMARK    2  A    between atoms: C_7  and  C_12
REMARK    3  A    between atoms: C_11  and  C_13
REMARK    4  A    between atoms: C_14  and  C_18
REMARK    5  A    between atoms: C_16  and  C_21
REMARK    6  A    between atoms: C_25  and  C_26
REMARK                            x       y       z     vdW  Elec       q    Type
REMARK                         _______ _______ _______ _____ _____    ______ ____
ROOT
ATOM      1  O   UNL     1      -4.909 -11.829  16.915  0.00  0.00    -0.336 OA
ATOM      3  N   UNL     1      -5.405 -10.206  15.454  0.00  0.00    -0.190 NA
ATOM      4  N   UNL     1      -6.215 -11.423  17.213  0.00  0.00    -0.056 NA
ATOM     12  C   UNL     1      -4.506 -11.062  15.869  0.00  0.00    +0.245 A 
ATOM     16  C   UNL     1      -6.436 -10.464  16.309  0.00  0.00    +0.204 A 
ENDROOT
BRANCH  16  21
ATOM      5  N   UNL     1      -9.556  -9.002  14.910  0.00  0.00    -0.254 NA
ATOM     21  C   UNL     1      -7.675  -9.745  16.234  0.00  0.00    +0.041 A 
ATOM     22  C   UNL     1      -8.202  -9.108  17.352  0.00  0.00    +0.015 A 
ATOM     23  C   UNL     1      -8.384  -9.663  15.047  0.00  0.00    +0.123 A 
ATOM     24  C   UNL     1      -9.406  -8.418  17.250  0.00  0.00    +0.029 A 
ATOM     25  C   UNL     1     -10.037  -8.396  16.017  0.00  0.00    +0.071 A 
BRANCH  25  26
ATOM      6  N   UNL     1     -13.712  -6.352  15.486  0.00  0.00    -0.263 NA
ATOM     26  C   UNL     1     -11.289  -7.700  15.837  0.00  0.00    +0.003 A 
ATOM     27  C   UNL     1     -12.469  -8.244  16.334  0.00  0.00    +0.030 A 
ATOM     28  C   UNL     1     -11.320  -6.484  15.164  0.00  0.00    +0.030 A 
ATOM     29  C   UNL     1     -13.643  -7.537  16.134  0.00  0.00    +0.111 A 
ATOM     30  C   UNL     1     -12.546  -5.855  15.017  0.00  0.00    +0.111 A 
ENDBRANCH  25  26
ENDBRANCH  16  21
BRANCH  12   7
ATOM      2  N   UNL     1      -2.855 -10.650  14.054  0.00  0.00    -0.287 NA
ATOM      7  C   UNL     1      -3.105 -11.311  15.349  0.00  0.00    +0.146 C 
ATOM      8  C   UNL     1      -2.016 -10.758  16.287  0.00  0.00    +0.030 C 
ATOM      9  C   UNL     1      -1.167  -9.843  15.415  0.00  0.00    +0.017 C 
ATOM     10  C   UNL     1      -1.423 -10.352  14.010  0.00  0.00    +0.085 C 
BRANCH   2  11
ATOM     11  C   UNL     1      -3.283 -11.446  12.910  0.00  0.00    +0.120 C 
BRANCH  11  13
ATOM     13  C   UNL     1      -3.782 -10.584  11.782  0.00  0.00    -0.030 A 
ATOM     14  C   UNL     1      -5.146 -10.475  11.511  0.00  0.00    -0.046 A 
ATOM     15  C   UNL     1      -2.859  -9.887  11.002  0.00  0.00    +0.005 A 
ATOM     17  C   UNL     1      -5.586  -9.670  10.461  0.00  0.00    +0.003 A 
ATOM     18  C   UNL     1      -6.154 -11.212  12.331  0.00  0.00    +0.044 C 
ATOM     19  C   UNL     1      -3.299  -9.082   9.951  0.00  0.00    +0.000 A 
ATOM     20  C   UNL     1      -4.663  -8.973   9.681  0.00  0.00    +0.000 A 
ENDBRANCH  11  13
ENDBRANCH   2  11
ENDBRANCH  12   7
TORSDOF 5
ENDMDL
MODEL 8
REMARK VINA RESULT:      -7.0     17.385     19.967
REMARK  Name = 51136964
REMARK  6 active torsions:
REMARK  status: ('A' for Active; 'I' for Inactive)
REMARK    1  A    between atoms: N_2  and  C_11
REMARK    2  A    between atoms: C_7  and  C_12
REMARK    3  A    between atoms: C_11  and  C_13
REMARK    4  A    between atoms: C_14  and  C_18
REMARK    5  A    between atoms: C_16  and  C_21
REMARK    6  A    between atoms: C_25  and  C_26
REMARK                            x       y       z     vdW  Elec       q    Type
REMARK                         _______ _______ _______ _____ _____    ______ ____
ROOT
ATOM      1  O   UNL     1      -9.695 -10.962  20.400  0.00  0.00    -0.336 OA
ATOM      3  N   UNL     1      -9.678 -11.003  18.161  0.00  0.00    -0.190 NA
ATOM      4  N   UNL     1      -8.353 -10.837  20.019  0.00  0.00    -0.056 NA
ATOM     12  C   UNL     1     -10.407 -11.055  19.247  0.00  0.00    +0.245 A 
ATOM     16  C   UNL     1      -8.425 -10.869  18.685  0.00  0.00    +0.204 A 
ENDROOT
BRANCH  16  21
ATOM      5  N   UNL     1      -5.171 -11.719  17.098  0.00  0.00    -0.254 NA
ATOM     21  C   UNL     1      -7.264 -10.771  17.847  0.00  0.00    +0.041 A 
ATOM     22  C   UNL     1      -7.086  -9.687  16.995  0.00  0.00    +0.015 A 
ATOM     23  C   UNL     1      -6.287 -11.752  17.861  0.00  0.00    +0.123 A 
ATOM     24  C   UNL     1      -5.952  -9.618  16.194  0.00  0.00    +0.029 A 
ATOM     25  C   UNL     1      -5.032 -10.651  16.282  0.00  0.00    +0.071 A 
BRANCH  25  26
ATOM      6  N   UNL     1      -1.508 -10.639  13.927  0.00  0.00    -0.263 NA
ATOM     26  C   UNL     1      -3.831 -10.647  15.481  0.00  0.00    +0.003 A 
ATOM     27  C   UNL     1      -2.583 -10.685  16.092  0.00  0.00    +0.030 A 
ATOM     28  C   UNL     1      -3.919 -10.605  14.094  0.00  0.00    +0.030 A 
ATOM     29  C   UNL     1      -1.462 -10.679  15.278  0.00  0.00    +0.111 A 
ATOM     30  C   UNL     1      -2.738 -10.603  13.369  0.00  0.00    +0.111 A 
ENDBRANCH  25  26
ENDBRANCH  16  21
BRANCH  12   7
ATOM      2  N   UNL     1     -12.295 -11.883  20.640  0.00  0.00    -0.287 NA
ATOM      7  C   UNL     1     -11.908 -11.201  19.389  0.00  0.00    +0.146 C 
ATOM      8  C   UNL     1     -12.634  -9.844  19.442  0.00  0.00    +0.030 C 
ATOM      9  C   UNL     1     -13.451  -9.881  20.726  0.00  0.00    +0.017 C 
ATOM     10  C   UNL     1     -13.613 -11.362  21.004  0.00  0.00    +0.085 C 
BRANCH   2  11
ATOM     11  C   UNL     1     -12.294 -13.336  20.525  0.00  0.00    +0.120 C 
BRANCH  11  13
ATOM     13  C   UNL     1     -11.492 -13.983  21.623  0.00  0.00    -0.030 A 
ATOM     14  C   UNL     1     -10.224 -14.508  21.372  0.00  0.00    -0.046 A 
ATOM     15  C   UNL     1     -12.035 -14.054  22.906  0.00  0.00    +0.005 A 
ATOM     17  C   UNL     1      -9.500 -15.103  22.405  0.00  0.00    +0.003 A 
ATOM     18  C   UNL     1      -9.623 -14.444  20.007  0.00  0.00    +0.044 C 
ATOM     19  C   UNL     1     -11.310 -14.649  23.939  0.00  0.00    +0.000 A 
ATOM     20  C   UNL     1     -10.042 -15.174  23.688  0.00  0.00    +0.000 A 
ENDBRANCH  11  13
ENDBRANCH   2  11
ENDBRANCH  12   7
TORSDOF 5
ENDMDL
MODEL 9
REMARK VINA RESULT:      -7.0     30.864     36.338
REMARK  Name = 51136964
REMARK  6 active torsions:
REMARK  status: ('A' for Active; 'I' for Inactive)
REMARK    1  A    between atoms: N_2  and  C_11
REMARK    2  A    between atoms: C_7  and  C_12
REMARK    3  A    between atoms: C_11  and  C_13
REMARK    4  A    between atoms: C_14  and  C_18
REMARK    5  A    between atoms: C_16  and  C_21
REMARK    6  A    between atoms: C_25  and  C_26
REMARK                            x       y       z     vdW  Elec       q    Type
REMARK                         _______ _______ _______ _____ _____    ______ ____
ROOT
ATOM      1  O   UNL     1      11.500   4.606   3.305  0.00  0.00    -0.336 OA
ATOM      3  N   UNL     1      11.653   5.965   1.531  0.00  0.00    -0.190 NA
ATOM      4  N   UNL     1      11.406   3.784   2.176  0.00  0.00    -0.056 NA
ATOM     12  C   UNL     1      11.642   5.873   2.837  0.00  0.00    +0.245 A 
ATOM     16  C   UNL     1      11.505   4.657   1.169  0.00  0.00    +0.204 A 
ENDROOT
BRANCH  16  21
ATOM      5  N   UNL     1      10.409   4.437  -2.378  0.00  0.00    -0.254 NA
ATOM     21  C   UNL     1      11.459   4.257  -0.207  0.00  0.00    +0.041 A 
ATOM     22  C   UNL     1      12.370   3.338  -0.717  0.00  0.00    +0.015 A 
ATOM     23  C   UNL     1      10.507   4.772  -1.071  0.00  0.00    +0.123 A 
ATOM     24  C   UNL     1      12.302   2.968  -2.056  0.00  0.00    +0.029 A 
ATOM     25  C   UNL     1      11.311   3.542  -2.837  0.00  0.00    +0.071 A 
BRANCH  25  26
ATOM      6  N   UNL     1      10.925   2.556  -6.941  0.00  0.00    -0.263 NA
ATOM     26  C   UNL     1      11.180   3.206  -4.235  0.00  0.00    +0.003 A 
ATOM     27  C   UNL     1      12.312   3.092  -5.035  0.00  0.00    +0.030 A 
ATOM     28  C   UNL     1       9.921   2.996  -4.786  0.00  0.00    +0.030 A 
ATOM     29  C   UNL     1      12.132   2.769  -6.370  0.00  0.00    +0.111 A 
ATOM     30  C   UNL     1       9.848   2.675  -6.132  0.00  0.00    +0.111 A 
ENDBRANCH  25  26
ENDBRANCH  16  21
BRANCH  12   7
ATOM      2  N   UNL     1      11.468   6.491   5.241  0.00  0.00    -0.287 NA
ATOM      7  C   UNL     1      11.766   6.968   3.877  0.00  0.00    +0.146 C 
ATOM      8  C   UNL     1      13.191   7.544   3.966  0.00  0.00    +0.030 C 
ATOM      9  C   UNL     1      13.586   7.402   5.429  0.00  0.00    +0.017 C 
ATOM     10  C   UNL     1      12.256   7.322   6.151  0.00  0.00    +0.085 C 
BRANCH   2  11
ATOM     11  C   UNL     1      10.046   6.522   5.563  0.00  0.00    +0.120 C 
BRANCH  11  13
ATOM     13  C   UNL     1       9.762   5.904   6.906  0.00  0.00    -0.030 A 
ATOM     14  C   UNL     1       9.246   6.668   7.952  0.00  0.00    -0.046 A 
ATOM     15  C   UNL     1      10.022   4.546   7.096  0.00  0.00    +0.005 A 
ATOM     17  C   UNL     1       8.990   6.074   9.188  0.00  0.00    +0.003 A 
ATOM     18  C   UNL     1       8.960   8.122   7.774  0.00  0.00    +0.044 C 
ATOM     19  C   UNL     1       9.767   3.953   8.331  0.00  0.00    +0.000 A 
ATOM     20  C   UNL     1       9.250   4.716   9.378  0.00  0.00    +0.000 A 
ENDBRANCH  11  13
ENDBRANCH   2  11
ENDBRANCH  12   7
TORSDOF 5
ENDMDL
MODEL 10
REMARK VINA RESULT:      -6.9     28.954     32.812
REMARK  Name = 51136964
REMARK  6 active torsions:
REMARK  status: ('A' for Active; 'I' for Inactive)
REMARK    1  A    between atoms: N_2  and  C_11
REMARK    2  A    between atoms: C_7  and  C_12
REMARK    3  A    between atoms: C_11  and  C_13
REMARK    4  A    between atoms: C_14  and  C_18
REMARK    5  A    between atoms: C_16  and  C_21
REMARK    6  A    between atoms: C_25  and  C_26
REMARK                            x       y       z     vdW  Elec       q    Type
REMARK                         _______ _______ _______ _____ _____    ______ ____
ROOT
ATOM      1  O   UNL     1      15.435  10.851  13.427  0.00  0.00    -0.336 OA
ATOM      3  N   UNL     1      14.056  11.877  14.862  0.00  0.00    -0.190 NA
ATOM      4  N   UNL     1      15.126   9.906  14.413  0.00  0.00    -0.056 NA
ATOM     12  C   UNL     1      14.765  11.983  13.768  0.00  0.00    +0.245 A 
ATOM     16  C   UNL     1      14.309  10.585  15.223  0.00  0.00    +0.204 A 
ENDROOT
BRANCH  16  21
ATOM      5  N   UNL     1      12.675   8.104  17.460  0.00  0.00    -0.254 NA
ATOM     21  C   UNL     1      13.729  10.003  16.399  0.00  0.00    +0.041 A 
ATOM     22  C   UNL     1      13.647  10.721  17.587  0.00  0.00    +0.015 A 
ATOM     23  C   UNL     1      13.233   8.711  16.387  0.00  0.00    +0.123 A 
ATOM     24  C   UNL     1      13.080  10.132  18.712  0.00  0.00    +0.029 A 
ATOM     25  C   UNL     1      12.613   8.833  18.596  0.00  0.00    +0.071 A 
BRANCH  25  26
ATOM      6  N   UNL     1      10.852   6.846  21.901  0.00  0.00    -0.263 NA
ATOM     26  C   UNL     1      12.013   8.156  19.722  0.00  0.00    +0.003 A 
ATOM     27  C   UNL     1      11.073   8.811  20.510  0.00  0.00    +0.030 A 
ATOM     28  C   UNL     1      12.373   6.848  20.022  0.00  0.00    +0.030 A 
ATOM     29  C   UNL     1      10.527   8.118  21.579  0.00  0.00    +0.111 A 
ATOM     30  C   UNL     1      11.768   6.242  21.112  0.00  0.00    +0.111 A 
ENDBRANCH  25  26
ENDBRANCH  16  21
BRANCH  12   7
ATOM      2  N   UNL     1      16.225  13.152  12.126  0.00  0.00    -0.287 NA
ATOM      7  C   UNL     1      14.936  13.173  12.846  0.00  0.00    +0.146 C 
ATOM      8  C   UNL     1      13.869  13.223  11.737  0.00  0.00    +0.030 C 
ATOM      9  C   UNL     1      14.654  13.291  10.434  0.00  0.00    +0.017 C 
ATOM     10  C   UNL     1      16.000  13.843  10.856  0.00  0.00    +0.085 C 
BRANCH   2  11
ATOM     11  C   UNL     1      17.317  13.746  12.887  0.00  0.00    +0.120 C 
BRANCH  11  13
ATOM     13  C   UNL     1      18.432  12.763  13.128  0.00  0.00    -0.030 A 
ATOM     14  C   UNL     1      18.657  12.232  14.398  0.00  0.00    -0.046 A 
ATOM     15  C   UNL     1      19.244  12.384  12.059  0.00  0.00    +0.005 A 
ATOM     17  C   UNL     1      19.695  11.322  14.599  0.00  0.00    +0.003 A 
ATOM     18  C   UNL     1      17.802  12.623  15.558  0.00  0.00    +0.044 C 
ATOM     19  C   UNL     1      20.282  11.474  12.260  0.00  0.00    +0.000 A 
ATOM     20  C   UNL     1      20.507  10.943  13.530  0.00  0.00    +0.000 A 
ENDBRANCH  11  13
ENDBRANCH   2  11
ENDBRANCH  12   7
TORSDOF 5
ENDMDL
