MODEL 1
REMARK VINA RESULT:      -6.4      0.000      0.000
REMARK  Name = 38027309
REMARK  10 active torsions:
REMARK  status: ('A' for Active; 'I' for Inactive)
REMARK    1  A    between atoms: N_3  and  C_12
REMARK    2  A    between atoms: N_4  and  C_19
REMARK    3  A    between atoms: C_5  and  C_9
REMARK    4  A    between atoms: C_6  and  C_12
REMARK    5  A    between atoms: C_8  and  C_14
REMARK    6  A    between atoms: C_9  and  C_17
REMARK    7  A    between atoms: C_9  and  C_18
REMARK    8  A    between atoms: C_10  and  C_21
REMARK    9  A    between atoms: C_13  and  C_20
REMARK   10  A    between atoms: C_14  and  C_24
REMARK                            x       y       z     vdW  Elec       q    Type
REMARK                         _______ _______ _______ _____ _____    ______ ____
ROOT
ATOM      5  C   UNL     1      14.269   7.536  20.775  0.00  0.00    +0.000 C 
ATOM      6  C   UNL     1      12.887   6.841  20.851  0.00  0.00    +0.032 C 
ATOM      7  C   UNL     1      14.553   8.310  22.072  0.00  0.00    +0.012 C 
ATOM      8  C   UNL     1      13.482   9.380  22.357  0.00  0.00    +0.023 C 
ATOM     10  C   UNL     1      12.079   8.834  22.188  0.00  0.00    -0.073 C 
ATOM     11  C   UNL     1      11.833   7.690  21.524  0.00  0.00    -0.022 C 
ATOM     21  C   UNL     1      10.968   9.608  22.840  0.00  0.00    +0.039 C 
ENDROOT
BRANCH   5   9
ATOM      9  C   UNL     1      15.397   6.533  20.513  0.00  0.00    -0.013 C 
ATOM     17  C   UNL     1      15.902   6.662  19.080  0.00  0.00    +0.007 C 
ATOM     18  C   UNL     1      16.534   6.739  21.509  0.00  0.00    +0.007 C 
ENDBRANCH   5   9
BRANCH   6  12
ATOM     12  C   UNL     1      12.398   6.429  19.458  0.00  0.00    +0.112 C 
BRANCH  12   3
ATOM      1  O   UNL     1      13.382   7.389  16.896  0.00  0.00    -0.276 OA
ATOM      3  N   UNL     1      11.944   7.567  18.722  0.00  0.00    -0.315 N 
ATOM     20  C   UNL     1      12.476   7.954  17.497  0.00  0.00    +0.216 C 
ATOM     27  H   UNL     1      11.161   8.097  19.092  0.00  0.00    +0.149 HD
BRANCH  20  13
ATOM     13  C   UNL     1      11.849   9.174  16.906  0.00  0.00    +0.075 C 
ATOM     15  C   UNL     1      12.148   9.531  15.480  0.00  0.00    +0.013 C 
ATOM     16  C   UNL     1      10.790   9.014  15.855  0.00  0.00    +0.013 C 
ENDBRANCH  20  13
ENDBRANCH  12   3
ENDBRANCH   6  12
BRANCH   8  14
ATOM     14  C   UNL     1      13.697  10.622  21.483  0.00  0.00    +0.103 C 
BRANCH  14  24
ATOM      2  O   UNL     1      14.970  12.392  22.531  0.00  0.00    -0.276 OA
ATOM      4  N   UNL     1      12.660  12.342  22.780  0.00  0.00    -0.312 N 
ATOM     24  C   UNL     1      13.879  11.874  22.311  0.00  0.00    +0.214 C 
ATOM     28  H   UNL     1      11.808  11.859  22.510  0.00  0.00    +0.149 HD
BRANCH   4  19
ATOM     19  C   UNL     1      12.532  13.522  23.600  0.00  0.00    +0.073 C 
ATOM     22  C   UNL     1      12.474  13.173  25.081  0.00  0.00    +0.022 C 
ATOM     23  C   UNL     1      11.204  14.234  23.368  0.00  0.00    +0.022 C 
ATOM     25  C   UNL     1      11.020  12.779  25.327  0.00  0.00    +0.002 C 
ATOM     26  C   UNL     1      10.201  13.494  24.253  0.00  0.00    +0.002 C 
ENDBRANCH   4  19
ENDBRANCH  14  24
ENDBRANCH   8  14
TORSDOF 7
ENDMDL
MODEL 2
REMARK VINA RESULT:      -6.3      1.947      3.873
REMARK  Name = 38027309
REMARK  10 active torsions:
REMARK  status: ('A' for Active; 'I' for Inactive)
REMARK    1  A    between atoms: N_3  and  C_12
REMARK    2  A    between atoms: N_4  and  C_19
REMARK    3  A    between atoms: C_5  and  C_9
REMARK    4  A    between atoms: C_6  and  C_12
REMARK    5  A    between atoms: C_8  and  C_14
REMARK    6  A    between atoms: C_9  and  C_17
REMARK    7  A    between atoms: C_9  and  C_18
REMARK    8  A    between atoms: C_10  and  C_21
REMARK    9  A    between atoms: C_13  and  C_20
REMARK   10  A    between atoms: C_14  and  C_24
REMARK                            x       y       z     vdW  Elec       q    Type
REMARK                         _______ _______ _______ _____ _____    ______ ____
ROOT
ATOM      5  C   UNL     1      14.160   9.660  18.832  0.00  0.00    +0.000 C 
ATOM      6  C   UNL     1      14.266   8.244  18.216  0.00  0.00    +0.032 C 
ATOM      7  C   UNL     1      15.487  10.056  19.499  0.00  0.00    +0.012 C 
ATOM      8  C   UNL     1      15.897   9.070  20.609  0.00  0.00    +0.023 C 
ATOM     10  C   UNL     1      15.769   7.629  20.159  0.00  0.00    -0.073 C 
ATOM     11  C   UNL     1      15.047   7.280  19.079  0.00  0.00    -0.022 C 
ATOM     21  C   UNL     1      16.528   6.601  20.951  0.00  0.00    +0.039 C 
ENDROOT
BRANCH   5   9
ATOM      9  C   UNL     1      13.774  10.710  17.785  0.00  0.00    -0.013 C 
ATOM     17  C   UNL     1      13.877  12.113  18.373  0.00  0.00    +0.007 C 
ATOM     18  C   UNL     1      14.656  10.575  16.547  0.00  0.00    +0.007 C 
ENDBRANCH   5   9
BRANCH   6  12
ATOM     12  C   UNL     1      12.878   7.661  17.929  0.00  0.00    +0.112 C 
BRANCH  12   3
ATOM      1  O   UNL     1      12.039   6.342  20.380  0.00  0.00    -0.276 OA
ATOM      3  N   UNL     1      11.923   8.126  18.885  0.00  0.00    -0.315 N 
ATOM     20  C   UNL     1      11.581   7.425  20.036  0.00  0.00    +0.216 C 
ATOM     27  H   UNL     1      11.503   9.038  18.739  0.00  0.00    +0.149 HD
BRANCH  20  13
ATOM     13  C   UNL     1      10.562   8.099  20.894  0.00  0.00    +0.075 C 
ATOM     15  C   UNL     1      10.379   7.640  22.310  0.00  0.00    +0.013 C 
ATOM     16  C   UNL     1      11.021   8.966  22.029  0.00  0.00    +0.013 C 
ENDBRANCH  20  13
ENDBRANCH  12   3
ENDBRANCH   6  12
BRANCH   8  14
ATOM     14  C   UNL     1      15.095   9.317  21.892  0.00  0.00    +0.103 C 
BRANCH  14  24
ATOM      2  O   UNL     1      16.018  11.451  22.563  0.00  0.00    -0.276 OA
ATOM      4  N   UNL     1      13.734  11.261  22.178  0.00  0.00    -0.312 N 
ATOM     24  C   UNL     1      15.035  10.785  22.250  0.00  0.00    +0.214 C 
ATOM     28  H   UNL     1      12.994  10.636  21.873  0.00  0.00    +0.149 HD
BRANCH   4  19
ATOM     19  C   UNL     1      13.378  12.629  22.471  0.00  0.00    +0.073 C 
ATOM     22  C   UNL     1      12.733  12.760  23.844  0.00  0.00    +0.022 C 
ATOM     23  C   UNL     1      12.292  13.146  21.535  0.00  0.00    +0.022 C 
ATOM     25  C   UNL     1      11.274  12.372  23.621  0.00  0.00    +0.002 C 
ATOM     26  C   UNL     1      10.980  12.660  22.149  0.00  0.00    +0.002 C 
ENDBRANCH   4  19
ENDBRANCH  14  24
ENDBRANCH   8  14
TORSDOF 7
ENDMDL
MODEL 3
REMARK VINA RESULT:      -6.3      1.735      2.454
REMARK  Name = 38027309
REMARK  10 active torsions:
REMARK  status: ('A' for Active; 'I' for Inactive)
REMARK    1  A    between atoms: N_3  and  C_12
REMARK    2  A    between atoms: N_4  and  C_19
REMARK    3  A    between atoms: C_5  and  C_9
REMARK    4  A    between atoms: C_6  and  C_12
REMARK    5  A    between atoms: C_8  and  C_14
REMARK    6  A    between atoms: C_9  and  C_17
REMARK    7  A    between atoms: C_9  and  C_18
REMARK    8  A    between atoms: C_10  and  C_21
REMARK    9  A    between atoms: C_13  and  C_20
REMARK   10  A    between atoms: C_14  and  C_24
REMARK                            x       y       z     vdW  Elec       q    Type
REMARK                         _______ _______ _______ _____ _____    ______ ____
ROOT
ATOM      5  C   UNL     1      15.065   8.482  20.626  0.00  0.00    +0.000 C 
ATOM      6  C   UNL     1      14.748   7.069  20.079  0.00  0.00    +0.032 C 
ATOM      7  C   UNL     1      14.471   8.658  22.032  0.00  0.00    +0.012 C 
ATOM      8  C   UNL     1      12.944   8.460  22.048  0.00  0.00    +0.023 C 
ATOM     10  C   UNL     1      12.529   7.216  21.290  0.00  0.00    -0.073 C 
ATOM     11  C   UNL     1      13.353   6.599  20.424  0.00  0.00    -0.022 C 
ATOM     21  C   UNL     1      11.160   6.668  21.584  0.00  0.00    +0.039 C 
ENDROOT
BRANCH   5   9
ATOM      9  C   UNL     1      16.572   8.753  20.662  0.00  0.00    -0.013 C 
ATOM     17  C   UNL     1      16.867  10.014  21.468  0.00  0.00    +0.007 C 
ATOM     18  C   UNL     1      17.315   7.554  21.242  0.00  0.00    +0.007 C 
ENDBRANCH   5   9
BRANCH   6  12
ATOM     12  C   UNL     1      14.945   7.006  18.560  0.00  0.00    +0.112 C 
BRANCH  12   3
ATOM      1  O   UNL     1      12.313   7.256  17.350  0.00  0.00    -0.276 OA
ATOM      3  N   UNL     1      14.383   8.158  17.927  0.00  0.00    -0.315 N 
ATOM     20  C   UNL     1      13.108   8.187  17.372  0.00  0.00    +0.216 C 
ATOM     27  H   UNL     1      14.927   9.015  17.920  0.00  0.00    +0.149 HD
BRANCH  20  13
ATOM     13  C   UNL     1      12.726   9.496  16.763  0.00  0.00    +0.075 C 
ATOM     15  C   UNL     1      13.685  10.647  16.846  0.00  0.00    +0.013 C 
ATOM     16  C   UNL     1      13.443   9.966  15.531  0.00  0.00    +0.013 C 
ENDBRANCH  20  13
ENDBRANCH  12   3
ENDBRANCH   6  12
BRANCH   8  14
ATOM     14  C   UNL     1      12.220   9.699  21.508  0.00  0.00    +0.103 C 
BRANCH  14  24
ATOM      2  O   UNL     1      10.184   9.584  22.810  0.00  0.00    -0.276 OA
ATOM      4  N   UNL     1      11.512  11.488  22.926  0.00  0.00    -0.312 N 
ATOM     24  C   UNL     1      11.182  10.217  22.477  0.00  0.00    +0.214 C 
ATOM     28  H   UNL     1      12.382  11.912  22.617  0.00  0.00    +0.149 HD
BRANCH   4  19
ATOM     19  C   UNL     1      10.698  12.230  23.859  0.00  0.00    +0.073 C 
ATOM     22  C   UNL     1      10.915  13.731  23.723  0.00  0.00    +0.022 C 
ATOM     23  C   UNL     1      11.100  11.959  25.303  0.00  0.00    +0.022 C 
ATOM     25  C   UNL     1      12.183  14.010  24.525  0.00  0.00    +0.002 C 
ATOM     26  C   UNL     1      12.279  12.896  25.566  0.00  0.00    +0.002 C 
ENDBRANCH   4  19
ENDBRANCH  14  24
ENDBRANCH   8  14
TORSDOF 7
ENDMDL
MODEL 4
REMARK VINA RESULT:      -6.1      1.941      3.920
REMARK  Name = 38027309
REMARK  10 active torsions:
REMARK  status: ('A' for Active; 'I' for Inactive)
REMARK    1  A    between atoms: N_3  and  C_12
REMARK    2  A    between atoms: N_4  and  C_19
REMARK    3  A    between atoms: C_5  and  C_9
REMARK    4  A    between atoms: C_6  and  C_12
REMARK    5  A    between atoms: C_8  and  C_14
REMARK    6  A    between atoms: C_9  and  C_17
REMARK    7  A    between atoms: C_9  and  C_18
REMARK    8  A    between atoms: C_10  and  C_21
REMARK    9  A    between atoms: C_13  and  C_20
REMARK   10  A    between atoms: C_14  and  C_24
REMARK                            x       y       z     vdW  Elec       q    Type
REMARK                         _______ _______ _______ _____ _____    ______ ____
ROOT
ATOM      5  C   UNL     1      13.690   9.783  18.115  0.00  0.00    +0.000 C 
ATOM      6  C   UNL     1      14.830   8.941  18.738  0.00  0.00    +0.032 C 
ATOM      7  C   UNL     1      13.828  11.258  18.523  0.00  0.00    +0.012 C 
ATOM      8  C   UNL     1      13.792  11.444  20.052  0.00  0.00    +0.023 C 
ATOM     10  C   UNL     1      14.698  10.458  20.761  0.00  0.00    -0.073 C 
ATOM     11  C   UNL     1      15.163   9.352  20.154  0.00  0.00    -0.022 C 
ATOM     21  C   UNL     1      15.095  10.796  22.171  0.00  0.00    +0.039 C 
ENDROOT
BRANCH   5   9
ATOM      9  C   UNL     1      13.668   9.669  16.587  0.00  0.00    -0.013 C 
ATOM     17  C   UNL     1      12.279   9.267  16.103  0.00  0.00    +0.007 C 
ATOM     18  C   UNL     1      14.105  10.983  15.949  0.00  0.00    +0.007 C 
ENDBRANCH   5   9
BRANCH   6  12
ATOM     12  C   UNL     1      14.493   7.445  18.708  0.00  0.00    +0.112 C 
BRANCH  12   3
ATOM      1  O   UNL     1      11.637   7.395  19.252  0.00  0.00    -0.276 OA
ATOM      3  N   UNL     1      13.844   7.046  19.917  0.00  0.00    -0.315 N 
ATOM     20  C   UNL     1      12.464   7.054  20.089  0.00  0.00    +0.216 C 
ATOM     27  H   UNL     1      14.419   6.696  20.677  0.00  0.00    +0.149 HD
BRANCH  20  13
ATOM     13  C   UNL     1      12.005   6.595  21.434  0.00  0.00    +0.075 C 
ATOM     15  C   UNL     1      10.577   6.824  21.836  0.00  0.00    +0.013 C 
ATOM     16  C   UNL     1      11.055   5.436  21.525  0.00  0.00    +0.013 C 
ENDBRANCH  20  13
ENDBRANCH  12   3
ENDBRANCH   6  12
BRANCH   8  14
ATOM     14  C   UNL     1      12.358  11.355  20.586  0.00  0.00    +0.103 C 
BRANCH  14  24
ATOM      2  O   UNL     1      11.498  13.615  20.521  0.00  0.00    -0.276 OA
ATOM      4  N   UNL     1      11.979  12.631  22.572  0.00  0.00    -0.312 N 
ATOM     24  C   UNL     1      11.893  12.662  21.187  0.00  0.00    +0.214 C 
ATOM     28  H   UNL     1      12.286  11.778  23.029  0.00  0.00    +0.149 HD
BRANCH   4  19
ATOM     19  C   UNL     1      11.603  13.744  23.409  0.00  0.00    +0.073 C 
ATOM     22  C   UNL     1      12.623  13.987  24.513  0.00  0.00    +0.022 C 
ATOM     23  C   UNL     1      10.323  13.464  24.186  0.00  0.00    +0.022 C 
ATOM     25  C   UNL     1      12.260  12.978  25.599  0.00  0.00    +0.002 C 
ATOM     26  C   UNL     1      10.773  12.675  25.415  0.00  0.00    +0.002 C 
ENDBRANCH   4  19
ENDBRANCH  14  24
ENDBRANCH   8  14
TORSDOF 7
ENDMDL
MODEL 5
REMARK VINA RESULT:      -6.1      2.284      3.336
REMARK  Name = 38027309
REMARK  10 active torsions:
REMARK  status: ('A' for Active; 'I' for Inactive)
REMARK    1  A    between atoms: N_3  and  C_12
REMARK    2  A    between atoms: N_4  and  C_19
REMARK    3  A    between atoms: C_5  and  C_9
REMARK    4  A    between atoms: C_6  and  C_12
REMARK    5  A    between atoms: C_8  and  C_14
REMARK    6  A    between atoms: C_9  and  C_17
REMARK    7  A    between atoms: C_9  and  C_18
REMARK    8  A    between atoms: C_10  and  C_21
REMARK    9  A    between atoms: C_13  and  C_20
REMARK   10  A    between atoms: C_14  and  C_24
REMARK                            x       y       z     vdW  Elec       q    Type
REMARK                         _______ _______ _______ _____ _____    ______ ____
ROOT
ATOM      5  C   UNL     1      12.725  10.131  19.799  0.00  0.00    +0.000 C 
ATOM      6  C   UNL     1      12.629   8.812  18.995  0.00  0.00    +0.032 C 
ATOM      7  C   UNL     1      13.019   9.837  21.279  0.00  0.00    +0.012 C 
ATOM      8  C   UNL     1      11.935   8.951  21.922  0.00  0.00    +0.023 C 
ATOM     10  C   UNL     1      11.590   7.760  21.051  0.00  0.00    -0.073 C 
ATOM     11  C   UNL     1      11.920   7.709  19.748  0.00  0.00    -0.022 C 
ATOM     21  C   UNL     1      10.897   6.608  21.723  0.00  0.00    +0.039 C 
ENDROOT
BRANCH   5   9
ATOM      9  C   UNL     1      13.800  11.065  19.234  0.00  0.00    -0.013 C 
ATOM     17  C   UNL     1      13.705  12.441  19.885  0.00  0.00    +0.007 C 
ATOM     18  C   UNL     1      15.187  10.464  19.436  0.00  0.00    +0.007 C 
ENDBRANCH   5   9
BRANCH   6  12
ATOM     12  C   UNL     1      11.934   9.035  17.646  0.00  0.00    +0.112 C 
BRANCH  12   3
ATOM      1  O   UNL     1      13.584   8.555  15.301  0.00  0.00    -0.276 OA
ATOM      3  N   UNL     1      12.640  10.002  16.865  0.00  0.00    -0.315 N 
ATOM     20  C   UNL     1      13.410   9.680  15.753  0.00  0.00    +0.216 C 
ATOM     27  H   UNL     1      12.539  10.982  17.110  0.00  0.00    +0.149 HD
BRANCH  20  13
ATOM     13  C   UNL     1      14.057  10.850  15.087  0.00  0.00    +0.075 C 
ATOM     15  C   UNL     1      14.447  12.038  15.916  0.00  0.00    +0.013 C 
ATOM     16  C   UNL     1      15.506  11.134  15.358  0.00  0.00    +0.013 C 
ENDBRANCH  20  13
ENDBRANCH  12   3
ENDBRANCH   6  12
BRANCH   8  14
ATOM     14  C   UNL     1      10.681   9.767  22.257  0.00  0.00    +0.103 C 
BRANCH  14  24
ATOM      2  O   UNL     1      11.372  10.881  24.291  0.00  0.00    -0.276 OA
ATOM      4  N   UNL     1      10.806  12.148  22.426  0.00  0.00    -0.312 N 
ATOM     24  C   UNL     1      10.998  10.964  23.124  0.00  0.00    +0.214 C 
ATOM     28  H   UNL     1      10.529  12.108  21.450  0.00  0.00    +0.149 HD
BRANCH   4  19
ATOM     19  C   UNL     1      11.030  13.450  23.007  0.00  0.00    +0.073 C 
ATOM     22  C   UNL     1       9.755  14.022  23.613  0.00  0.00    +0.022 C 
ATOM     23  C   UNL     1      11.399  14.487  21.953  0.00  0.00    +0.022 C 
ATOM     25  C   UNL     1       9.003  14.621  22.427  0.00  0.00    +0.002 C 
ATOM     26  C   UNL     1      10.063  14.958  21.379  0.00  0.00    +0.002 C 
ENDBRANCH   4  19
ENDBRANCH  14  24
ENDBRANCH   8  14
TORSDOF 7
ENDMDL
MODEL 6
REMARK VINA RESULT:      -6.0     26.329     28.783
REMARK  Name = 38027309
REMARK  10 active torsions:
REMARK  status: ('A' for Active; 'I' for Inactive)
REMARK    1  A    between atoms: N_3  and  C_12
REMARK    2  A    between atoms: N_4  and  C_19
REMARK    3  A    between atoms: C_5  and  C_9
REMARK    4  A    between atoms: C_6  and  C_12
REMARK    5  A    between atoms: C_8  and  C_14
REMARK    6  A    between atoms: C_9  and  C_17
REMARK    7  A    between atoms: C_9  and  C_18
REMARK    8  A    between atoms: C_10  and  C_21
REMARK    9  A    between atoms: C_13  and  C_20
REMARK   10  A    between atoms: C_14  and  C_24
REMARK                            x       y       z     vdW  Elec       q    Type
REMARK                         _______ _______ _______ _____ _____    ______ ____
ROOT
ATOM      5  C   UNL     1      -6.356 -10.356  15.848  0.00  0.00    +0.000 C 
ATOM      6  C   UNL     1      -6.937 -10.521  17.274  0.00  0.00    +0.032 C 
ATOM      7  C   UNL     1      -5.387 -11.505  15.527  0.00  0.00    +0.012 C 
ATOM      8  C   UNL     1      -4.217 -11.576  16.526  0.00  0.00    +0.023 C 
ATOM     10  C   UNL     1      -4.693 -11.473  17.961  0.00  0.00    -0.073 C 
ATOM     11  C   UNL     1      -5.917 -11.012  18.276  0.00  0.00    -0.022 C 
ATOM     21  C   UNL     1      -3.748 -11.956  19.025  0.00  0.00    +0.039 C 
ENDROOT
BRANCH   5   9
ATOM      9  C   UNL     1      -7.459 -10.297  14.787  0.00  0.00    -0.013 C 
ATOM     17  C   UNL     1      -6.852 -10.283  13.388  0.00  0.00    +0.007 C 
ATOM     18  C   UNL     1      -8.417 -11.473  14.950  0.00  0.00    +0.007 C 
ENDBRANCH   5   9
BRANCH   6  12
ATOM     12  C   UNL     1      -7.553  -9.210  17.775  0.00  0.00    +0.112 C 
BRANCH  12   3
ATOM      1  O   UNL     1      -9.670  -7.684  16.492  0.00  0.00    -0.276 OA
ATOM      3  N   UNL     1      -8.963  -9.350  17.962  0.00  0.00    -0.315 N 
ATOM     20  C   UNL     1      -9.909  -8.572  17.302  0.00  0.00    +0.216 C 
ATOM     27  H   UNL     1      -9.295 -10.086  18.577  0.00  0.00    +0.149 HD
BRANCH  20  13
ATOM     13  C   UNL     1     -11.326  -8.891  17.648  0.00  0.00    +0.075 C 
ATOM     15  C   UNL     1     -12.407  -8.589  16.653  0.00  0.00    +0.013 C 
ATOM     16  C   UNL     1     -12.018 -10.012  16.930  0.00  0.00    +0.013 C 
ENDBRANCH  20  13
ENDBRANCH  12   3
ENDBRANCH   6  12
BRANCH   8  14
ATOM     14  C   UNL     1      -3.163 -10.505  16.220  0.00  0.00    +0.103 C 
BRANCH  14  24
ATOM      2  O   UNL     1      -1.069 -11.427  15.434  0.00  0.00    -0.276 OA
ATOM      4  N   UNL     1      -2.688 -10.786  13.894  0.00  0.00    -0.312 N 
ATOM     24  C   UNL     1      -2.175 -10.964  15.172  0.00  0.00    +0.214 C 
ATOM     28  H   UNL     1      -3.632 -10.427  13.786  0.00  0.00    +0.149 HD
BRANCH   4  19
ATOM     19  C   UNL     1      -1.961 -11.135  12.698  0.00  0.00    +0.073 C 
ATOM     22  C   UNL     1      -1.868  -9.960  11.734  0.00  0.00    +0.022 C 
ATOM     23  C   UNL     1      -2.691 -12.190  11.877  0.00  0.00    +0.022 C 
ATOM     25  C   UNL     1      -3.201  -9.968  10.990  0.00  0.00    +0.002 C 
ATOM     26  C   UNL     1      -3.708 -11.409  11.046  0.00  0.00    +0.002 C 
ENDBRANCH   4  19
ENDBRANCH  14  24
ENDBRANCH   8  14
TORSDOF 7
ENDMDL
MODEL 7
REMARK VINA RESULT:      -5.9     13.511     18.330
REMARK  Name = 38027309
REMARK  10 active torsions:
REMARK  status: ('A' for Active; 'I' for Inactive)
REMARK    1  A    between atoms: N_3  and  C_12
REMARK    2  A    between atoms: N_4  and  C_19
REMARK    3  A    between atoms: C_5  and  C_9
REMARK    4  A    between atoms: C_6  and  C_12
REMARK    5  A    between atoms: C_8  and  C_14
REMARK    6  A    between atoms: C_9  and  C_17
REMARK    7  A    between atoms: C_9  and  C_18
REMARK    8  A    between atoms: C_10  and  C_21
REMARK    9  A    between atoms: C_13  and  C_20
REMARK   10  A    between atoms: C_14  and  C_24
REMARK                            x       y       z     vdW  Elec       q    Type
REMARK                         _______ _______ _______ _____ _____    ______ ____
ROOT
ATOM      5  C   UNL     1      12.628   7.461   5.386  0.00  0.00    +0.000 C 
ATOM      6  C   UNL     1      11.534   8.508   5.712  0.00  0.00    +0.032 C 
ATOM      7  C   UNL     1      12.705   7.220   3.870  0.00  0.00    +0.012 C 
ATOM      8  C   UNL     1      11.366   6.724   3.292  0.00  0.00    +0.023 C 
ATOM     10  C   UNL     1      10.197   7.550   3.787  0.00  0.00    -0.073 C 
ATOM     11  C   UNL     1      10.294   8.352   4.862  0.00  0.00    -0.022 C 
ATOM     21  C   UNL     1       8.925   7.469   2.990  0.00  0.00    +0.039 C 
ENDROOT
BRANCH   5   9
ATOM      9  C   UNL     1      14.001   7.891   5.913  0.00  0.00    -0.013 C 
ATOM     17  C   UNL     1      15.110   7.162   5.162  0.00  0.00    +0.007 C 
ATOM     18  C   UNL     1      14.168   9.402   5.793  0.00  0.00    +0.007 C 
ENDBRANCH   5   9
BRANCH   6  12
ATOM     12  C   UNL     1      11.145   8.458   7.194  0.00  0.00    +0.112 C 
BRANCH  12   3
ATOM      1  O   UNL     1       8.504   7.871   8.259  0.00  0.00    -0.276 OA
ATOM      3  N   UNL     1      10.609   7.179   7.536  0.00  0.00    -0.315 N 
ATOM     20  C   UNL     1       9.327   6.991   8.043  0.00  0.00    +0.216 C 
ATOM     27  H   UNL     1      11.178   6.357   7.360  0.00  0.00    +0.149 HD
BRANCH  20  13
ATOM     13  C   UNL     1       8.976   5.568   8.329  0.00  0.00    +0.075 C 
ATOM     15  C   UNL     1      10.053   4.525   8.277  0.00  0.00    +0.013 C 
ATOM     16  C   UNL     1       9.470   4.935   9.597  0.00  0.00    +0.013 C 
ENDBRANCH  20  13
ENDBRANCH  12   3
ENDBRANCH   6  12
BRANCH   8  14
ATOM     14  C   UNL     1      11.152   5.235   3.591  0.00  0.00    +0.103 C 
BRANCH  14  24
ATOM      2  O   UNL     1      10.671   3.835   1.678  0.00  0.00    -0.276 OA
ATOM      4  N   UNL     1      12.881   4.241   2.273  0.00  0.00    -0.312 N 
ATOM     24  C   UNL     1      11.505   4.362   2.409  0.00  0.00    +0.214 C 
ATOM     28  H   UNL     1      13.487   4.748   2.911  0.00  0.00    +0.149 HD
BRANCH   4  19
ATOM     19  C   UNL     1      13.504   3.462   1.231  0.00  0.00    +0.073 C 
ATOM     22  C   UNL     1      15.024   3.516   1.321  0.00  0.00    +0.022 C 
ATOM     23  C   UNL     1      13.227   4.039  -0.152  0.00  0.00    +0.022 C 
ATOM     25  C   UNL     1      15.402   4.829   0.640  0.00  0.00    +0.002 C 
ATOM     26  C   UNL     1      14.268   5.142  -0.335  0.00  0.00    +0.002 C 
ENDBRANCH   4  19
ENDBRANCH  14  24
ENDBRANCH   8  14
TORSDOF 7
ENDMDL
MODEL 8
REMARK VINA RESULT:      -5.8      4.972      8.655
REMARK  Name = 38027309
REMARK  10 active torsions:
REMARK  status: ('A' for Active; 'I' for Inactive)
REMARK    1  A    between atoms: N_3  and  C_12
REMARK    2  A    between atoms: N_4  and  C_19
REMARK    3  A    between atoms: C_5  and  C_9
REMARK    4  A    between atoms: C_6  and  C_12
REMARK    5  A    between atoms: C_8  and  C_14
REMARK    6  A    between atoms: C_9  and  C_17
REMARK    7  A    between atoms: C_9  and  C_18
REMARK    8  A    between atoms: C_10  and  C_21
REMARK    9  A    between atoms: C_13  and  C_20
REMARK   10  A    between atoms: C_14  and  C_24
REMARK                            x       y       z     vdW  Elec       q    Type
REMARK                         _______ _______ _______ _____ _____    ______ ____
ROOT
ATOM      5  C   UNL     1      17.307   7.967  21.209  0.00  0.00    +0.000 C 
ATOM      6  C   UNL     1      16.989   6.981  20.058  0.00  0.00    +0.032 C 
ATOM      7  C   UNL     1      18.798   8.338  21.202  0.00  0.00    +0.012 C 
ATOM      8  C   UNL     1      19.705   7.102  21.353  0.00  0.00    +0.023 C 
ATOM     10  C   UNL     1      19.283   5.976  20.431  0.00  0.00    -0.073 C 
ATOM     11  C   UNL     1      18.071   5.946  19.851  0.00  0.00    -0.022 C 
ATOM     21  C   UNL     1      20.305   4.909  20.154  0.00  0.00    +0.039 C 
ENDROOT
BRANCH   5   9
ATOM      9  C   UNL     1      16.456   9.238  21.120  0.00  0.00    -0.013 C 
ATOM     17  C   UNL     1      15.356   9.218  22.176  0.00  0.00    +0.007 C 
ATOM     18  C   UNL     1      17.334  10.476  21.276  0.00  0.00    +0.007 C 
ENDBRANCH   5   9
BRANCH   6  12
ATOM     12  C   UNL     1      15.647   6.277  20.288  0.00  0.00    +0.112 C 
BRANCH  12   3
ATOM      1  O   UNL     1      12.889   6.793  21.050  0.00  0.00    -0.276 OA
ATOM      3  N   UNL     1      14.620   6.869  19.491  0.00  0.00    -0.315 N 
ATOM     20  C   UNL     1      13.320   7.078  19.940  0.00  0.00    +0.216 C 
ATOM     27  H   UNL     1      14.862   7.194  18.560  0.00  0.00    +0.149 HD
BRANCH  20  13
ATOM     13  C   UNL     1      12.412   7.713  18.938  0.00  0.00    +0.075 C 
ATOM     15  C   UNL     1      11.298   8.595  19.418  0.00  0.00    +0.013 C 
ATOM     16  C   UNL     1      12.484   9.196  18.723  0.00  0.00    +0.013 C 
ENDBRANCH  20  13
ENDBRANCH  12   3
ENDBRANCH   6  12
BRANCH   8  14
ATOM     14  C   UNL     1      19.756   6.628  22.811  0.00  0.00    +0.103 C 
BRANCH  14  24
ATOM      2  O   UNL     1      21.703   7.543  23.918  0.00  0.00    -0.276 OA
ATOM      4  N   UNL     1      21.762   5.365  23.109  0.00  0.00    -0.312 N 
ATOM     24  C   UNL     1      21.168   6.595  23.349  0.00  0.00    +0.214 C 
ATOM     28  H   UNL     1      21.220   4.632  22.662  0.00  0.00    +0.149 HD
BRANCH   4  19
ATOM     19  C   UNL     1      23.112   5.050  23.512  0.00  0.00    +0.073 C 
ATOM     22  C   UNL     1      23.757   4.037  22.575  0.00  0.00    +0.022 C 
ATOM     23  C   UNL     1      23.151   4.338  24.859  0.00  0.00    +0.022 C 
ATOM     25  C   UNL     1      23.240   2.685  23.058  0.00  0.00    +0.002 C 
ATOM     26  C   UNL     1      22.891   2.867  24.534  0.00  0.00    +0.002 C 
ENDBRANCH   4  19
ENDBRANCH  14  24
ENDBRANCH   8  14
TORSDOF 7
ENDMDL
MODEL 9
REMARK VINA RESULT:      -5.8     11.569     15.488
REMARK  Name = 38027309
REMARK  10 active torsions:
REMARK  status: ('A' for Active; 'I' for Inactive)
REMARK    1  A    between atoms: N_3  and  C_12
REMARK    2  A    between atoms: N_4  and  C_19
REMARK    3  A    between atoms: C_5  and  C_9
REMARK    4  A    between atoms: C_6  and  C_12
REMARK    5  A    between atoms: C_8  and  C_14
REMARK    6  A    between atoms: C_9  and  C_17
REMARK    7  A    between atoms: C_9  and  C_18
REMARK    8  A    between atoms: C_10  and  C_21
REMARK    9  A    between atoms: C_13  and  C_20
REMARK   10  A    between atoms: C_14  and  C_24
REMARK                            x       y       z     vdW  Elec       q    Type
REMARK                         _______ _______ _______ _____ _____    ______ ____
ROOT
ATOM      5  C   UNL     1      11.046   7.325   5.245  0.00  0.00    +0.000 C 
ATOM      6  C   UNL     1      11.029   5.779   5.329  0.00  0.00    +0.032 C 
ATOM      7  C   UNL     1      11.330   7.935   6.626  0.00  0.00    +0.012 C 
ATOM      8  C   UNL     1      10.283   7.515   7.675  0.00  0.00    +0.023 C 
ATOM     10  C   UNL     1      10.012   6.024   7.635  0.00  0.00    -0.073 C 
ATOM     11  C   UNL     1      10.365   5.262   6.585  0.00  0.00    -0.022 C 
ATOM     21  C   UNL     1       9.368   5.421   8.852  0.00  0.00    +0.039 C 
ENDROOT
BRANCH   5   9
ATOM      9  C   UNL     1      12.081   7.829   4.233  0.00  0.00    -0.013 C 
ATOM     17  C   UNL     1      12.007   9.347   4.108  0.00  0.00    +0.007 C 
ATOM     18  C   UNL     1      13.482   7.386   4.641  0.00  0.00    +0.007 C 
ENDBRANCH   5   9
BRANCH   6  12
ATOM     12  C   UNL     1      10.345   5.166   4.102  0.00  0.00    +0.112 C 
BRANCH  12   3
ATOM      1  O   UNL     1      11.327   5.259   1.366  0.00  0.00    -0.276 OA
ATOM      3  N   UNL     1      11.209   4.229   3.454  0.00  0.00    -0.315 N 
ATOM     20  C   UNL     1      11.630   4.354   2.134  0.00  0.00    +0.216 C 
ATOM     27  H   UNL     1      11.571   3.453   4.000  0.00  0.00    +0.149 HD
BRANCH  20  13
ATOM     13  C   UNL     1      12.531   3.260   1.665  0.00  0.00    +0.075 C 
ATOM     15  C   UNL     1      13.250   3.416   0.358  0.00  0.00    +0.013 C 
ATOM     16  C   UNL     1      14.013   3.492   1.647  0.00  0.00    +0.013 C 
ENDBRANCH  20  13
ENDBRANCH  12   3
ENDBRANCH   6  12
BRANCH   8  14
ATOM     14  C   UNL     1       8.984   8.313   7.509  0.00  0.00    +0.103 C 
BRANCH  14  24
ATOM      2  O   UNL     1       9.147  10.485   6.457  0.00  0.00    -0.276 OA
ATOM      4  N   UNL     1       9.572  10.280   8.733  0.00  0.00    -0.312 N 
ATOM     24  C   UNL     1       9.234   9.803   7.474  0.00  0.00    +0.214 C 
ATOM     28  H   UNL     1       9.581   9.638   9.519  0.00  0.00    +0.149 HD
BRANCH   4  19
ATOM     19  C   UNL     1       9.868  11.668   8.996  0.00  0.00    +0.073 C 
ATOM     22  C   UNL     1      10.814  11.826  10.178  0.00  0.00    +0.022 C 
ATOM     23  C   UNL     1       8.631  12.436   9.447  0.00  0.00    +0.022 C 
ATOM     25  C   UNL     1       9.914  11.729  11.407  0.00  0.00    +0.002 C 
ATOM     26  C   UNL     1       8.522  12.162  10.946  0.00  0.00    +0.002 C 
ENDBRANCH   4  19
ENDBRANCH  14  24
ENDBRANCH   8  14
TORSDOF 7
ENDMDL
MODEL 10
REMARK VINA RESULT:      -5.8     27.183     29.319
REMARK  Name = 38027309
REMARK  10 active torsions:
REMARK  status: ('A' for Active; 'I' for Inactive)
REMARK    1  A    between atoms: N_3  and  C_12
REMARK    2  A    between atoms: N_4  and  C_19
REMARK    3  A    between atoms: C_5  and  C_9
REMARK    4  A    between atoms: C_6  and  C_12
REMARK    5  A    between atoms: C_8  and  C_14
REMARK    6  A    between atoms: C_9  and  C_17
REMARK    7  A    between atoms: C_9  and  C_18
REMARK    8  A    between atoms: C_10  and  C_21
REMARK    9  A    between atoms: C_13  and  C_20
REMARK   10  A    between atoms: C_14  and  C_24
REMARK                            x       y       z     vdW  Elec       q    Type
REMARK                         _______ _______ _______ _____ _____    ______ ____
ROOT
ATOM      5  C   UNL     1      -5.798 -11.471  17.495  0.00  0.00    +0.000 C 
ATOM      6  C   UNL     1      -7.128 -10.740  17.189  0.00  0.00    +0.032 C 
ATOM      7  C   UNL     1      -4.617 -10.728  16.850  0.00  0.00    +0.012 C 
ATOM      8  C   UNL     1      -4.769 -10.608  15.322  0.00  0.00    +0.023 C 
ATOM     10  C   UNL     1      -6.157 -10.145  14.928  0.00  0.00    -0.073 C 
ATOM     11  C   UNL     1      -7.196 -10.198  15.780  0.00  0.00    -0.022 C 
ATOM     21  C   UNL     1      -6.314  -9.574  13.546  0.00  0.00    +0.039 C 
ENDROOT
BRANCH   5   9
ATOM      9  C   UNL     1      -5.560 -11.614  19.001  0.00  0.00    -0.013 C 
ATOM     17  C   UNL     1      -4.106 -11.984  19.278  0.00  0.00    +0.007 C 
ATOM     18  C   UNL     1      -5.937 -10.325  19.724  0.00  0.00    +0.007 C 
ENDBRANCH   5   9
BRANCH   6  12
ATOM     12  C   UNL     1      -8.333 -11.654  17.442  0.00  0.00    +0.112 C 
BRANCH  12   3
ATOM      1  O   UNL     1      -9.213 -11.040  20.144  0.00  0.00    -0.276 OA
ATOM      3  N   UNL     1      -9.476 -10.892  17.833  0.00  0.00    -0.315 N 
ATOM     20  C   UNL     1      -9.823 -10.647  19.158  0.00  0.00    +0.216 C 
ATOM     27  H   UNL     1     -10.043 -10.469  17.105  0.00  0.00    +0.149 HD
BRANCH  20  13
ATOM     13  C   UNL     1     -11.058  -9.825  19.333  0.00  0.00    +0.075 C 
ATOM     15  C   UNL     1     -12.261 -10.124  18.488  0.00  0.00    +0.013 C 
ATOM     16  C   UNL     1     -12.272 -10.454  19.952  0.00  0.00    +0.013 C 
ENDBRANCH  20  13
ENDBRANCH  12   3
ENDBRANCH   6  12
BRANCH   8  14
ATOM     14  C   UNL     1      -4.413 -11.927  14.626  0.00  0.00    +0.103 C 
BRANCH  14  24
ATOM      2  O   UNL     1      -2.125 -11.726  13.866  0.00  0.00    -0.276 OA
ATOM      4  N   UNL     1      -3.859 -11.614  12.322  0.00  0.00    -0.312 N 
ATOM     24  C   UNL     1      -3.322 -11.748  13.595  0.00  0.00    +0.214 C 
ATOM     28  H   UNL     1      -4.864 -11.683  12.200  0.00  0.00    +0.149 HD
BRANCH   4  19
ATOM     19  C   UNL     1      -3.049 -11.427  11.142  0.00  0.00    +0.073 C 
ATOM     22  C   UNL     1      -2.575  -9.986  11.009  0.00  0.00    +0.022 C 
ATOM     23  C   UNL     1      -3.852 -11.638   9.864  0.00  0.00    +0.022 C 
ATOM     25  C   UNL     1      -3.755  -9.249  10.382  0.00  0.00    +0.002 C 
ATOM     26  C   UNL     1      -4.551 -10.303   9.612  0.00  0.00    +0.002 C 
ENDBRANCH   4  19
ENDBRANCH  14  24
ENDBRANCH   8  14
TORSDOF 7
ENDMDL
