MODEL 1
REMARK VINA RESULT:      -7.9      0.000      0.000
REMARK  Name = 71693478
REMARK  10 active torsions:
REMARK  status: ('A' for Active; 'I' for Inactive)
REMARK    1  A    between atoms: S_1  and  N_11
REMARK    2  A    between atoms: S_1  and  C_27
REMARK    3  A    between atoms: O_4  and  C_14
REMARK    4  A    between atoms: N_9  and  C_17
REMARK    5  A    between atoms: N_10  and  C_25
REMARK    6  A    between atoms: N_10  and  C_26
REMARK    7  A    between atoms: N_11  and  C_24
REMARK    8  A    between atoms: C_12  and  C_14
REMARK    9  A    between atoms: C_13  and  C_15
REMARK   10  A    between atoms: C_17  and  C_21
REMARK                            x       y       z     vdW  Elec       q    Type
REMARK                         _______ _______ _______ _____ _____    ______ ____
ROOT
ATOM     15  C   UNL     1      15.962   6.973  19.977  0.00  0.00    -0.017 A 
ATOM     19  C   UNL     1      16.434   6.230  18.894  0.00  0.00    +0.008 A 
ATOM     20  C   UNL     1      16.749   7.118  21.119  0.00  0.00    +0.008 A 
ATOM     22  C   UNL     1      17.692   5.632  18.954  0.00  0.00    +0.025 A 
ATOM     23  C   UNL     1      18.008   6.519  21.179  0.00  0.00    +0.025 A 
ATOM     24  C   UNL     1      18.479   5.777  20.096  0.00  0.00    +0.048 A 
ENDROOT
BRANCH  15  13
ATOM      3  O   UNL     1      13.670   6.611  19.516  0.00  0.00    -0.361 OA
ATOM      5  O   UNL     1      10.579   8.228  20.243  0.00  0.00    -0.273 OA
ATOM      9  N   UNL     1      12.681   8.603  21.177  0.00  0.00    -0.283 N 
ATOM     12  C   UNL     1      14.111   8.214  21.249  0.00  0.00    +0.135 C 
ATOM     13  C   UNL     1      14.596   7.623  19.911  0.00  0.00    +0.171 C 
ATOM     16  C   UNL     1      11.796   8.033  20.260  0.00  0.00    +0.242 C 
ATOM     18  C   UNL     1      12.425   7.176  19.180  0.00  0.00    +0.256 C 
BRANCH  12  14
ATOM     14  C   UNL     1      15.015   9.375  21.687  0.00  0.00    +0.181 C 
BRANCH  14   4
ATOM      4  O   UNL     1      15.116  10.285  20.611  0.00  0.00    -0.393 OA
ATOM     33  H   UNL     1      14.228  10.380  20.229  0.00  0.00    +0.209 HD
ENDBRANCH  14   4
ENDBRANCH  12  14
BRANCH   9  17
ATOM     17  C   UNL     1      12.138   9.426  22.255  0.00  0.00    +0.204 C 
BRANCH  17  21
ATOM      6  O   UNL     1      12.229  11.176  20.619  0.00  0.00    -0.274 OA
ATOM     10  N   UNL     1      11.219  11.688  22.644  0.00  0.00    -0.306 N 
ATOM     21  C   UNL     1      11.874  10.833  21.750  0.00  0.00    +0.232 C 
ATOM     25  C   UNL     1      10.896  13.073  22.307  0.00  0.00    +0.131 C 
ATOM     26  C   UNL     1      10.809  11.260  23.975  0.00  0.00    +0.131 C 
ENDBRANCH  17  21
ENDBRANCH   9  17
ENDBRANCH  15  13
BRANCH  24  11
ATOM     11  N   UNL     1      19.768   5.166  20.157  0.00  0.00    -0.216 N 
ATOM     34  H   UNL     1      20.106   4.777  19.265  0.00  0.00    +0.174 HD
BRANCH  11   1
ATOM      1  S   UNL     1      20.970   5.863  21.175  0.00  0.00    +0.072 S 
ATOM      7  O   UNL     1      20.546   5.741  22.557  0.00  0.00    -0.150 OA
ATOM      8  O   UNL     1      21.373   7.156  20.656  0.00  0.00    -0.150 OA
BRANCH   1  27
ATOM      2  F   UNL     1      25.487   2.140  20.438  0.00  0.00    -0.205 F 
ATOM     27  C   UNL     1      22.326   4.746  20.954  0.00  0.00    +0.109 A 
ATOM     28  C   UNL     1      23.564   5.227  20.525  0.00  0.00    +0.031 A 
ATOM     29  C   UNL     1      22.157   3.385  21.209  0.00  0.00    +0.031 A 
ATOM     30  C   UNL     1      24.631   4.347  20.352  0.00  0.00    +0.040 A 
ATOM     31  C   UNL     1      23.224   2.505  21.035  0.00  0.00    +0.040 A 
ATOM     32  C   UNL     1      24.462   2.986  20.606  0.00  0.00    +0.124 A 
ENDBRANCH   1  27
ENDBRANCH  11   1
ENDBRANCH  24  11
TORSDOF 8
ENDMDL
MODEL 2
REMARK VINA RESULT:      -7.7      4.458      9.631
REMARK  Name = 71693478
REMARK  10 active torsions:
REMARK  status: ('A' for Active; 'I' for Inactive)
REMARK    1  A    between atoms: S_1  and  N_11
REMARK    2  A    between atoms: S_1  and  C_27
REMARK    3  A    between atoms: O_4  and  C_14
REMARK    4  A    between atoms: N_9  and  C_17
REMARK    5  A    between atoms: N_10  and  C_25
REMARK    6  A    between atoms: N_10  and  C_26
REMARK    7  A    between atoms: N_11  and  C_24
REMARK    8  A    between atoms: C_12  and  C_14
REMARK    9  A    between atoms: C_13  and  C_15
REMARK   10  A    between atoms: C_17  and  C_21
REMARK                            x       y       z     vdW  Elec       q    Type
REMARK                         _______ _______ _______ _____ _____    ______ ____
ROOT
ATOM     15  C   UNL     1      17.802   6.534  20.745  0.00  0.00    -0.017 A 
ATOM     19  C   UNL     1      16.761   6.861  21.616  0.00  0.00    +0.008 A 
ATOM     20  C   UNL     1      17.520   6.173  19.427  0.00  0.00    +0.008 A 
ATOM     22  C   UNL     1      15.440   6.826  21.169  0.00  0.00    +0.025 A 
ATOM     23  C   UNL     1      16.199   6.138  18.981  0.00  0.00    +0.025 A 
ATOM     24  C   UNL     1      15.160   6.465  19.852  0.00  0.00    +0.048 A 
ENDROOT
BRANCH  15  13
ATOM      3  O   UNL     1      19.947   5.565  20.513  0.00  0.00    -0.361 OA
ATOM      5  O   UNL     1      23.310   6.467  21.274  0.00  0.00    -0.273 OA
ATOM      9  N   UNL     1      21.404   7.808  21.254  0.00  0.00    -0.283 N 
ATOM     12  C   UNL     1      19.948   7.918  20.991  0.00  0.00    +0.135 C 
ATOM     13  C   UNL     1      19.235   6.573  21.230  0.00  0.00    +0.171 C 
ATOM     16  C   UNL     1      22.086   6.592  21.189  0.00  0.00    +0.242 C 
ATOM     18  C   UNL     1      21.219   5.353  21.076  0.00  0.00    +0.256 C 
BRANCH  12  14
ATOM     14  C   UNL     1      19.286   9.035  21.812  0.00  0.00    +0.181 C 
BRANCH  14   4
ATOM      4  O   UNL     1      19.265   8.634  23.166  0.00  0.00    -0.393 OA
ATOM     33  H   UNL     1      20.050   9.015  23.592  0.00  0.00    +0.209 HD
ENDBRANCH  14   4
ENDBRANCH  12  14
BRANCH   9  17
ATOM     17  C   UNL     1      22.181   9.042  21.345  0.00  0.00    +0.204 C 
BRANCH  17  21
ATOM      6  O   UNL     1      22.785   8.970  19.026  0.00  0.00    -0.274 OA
ATOM     10  N   UNL     1      22.005  10.997  19.842  0.00  0.00    -0.306 N 
ATOM     21  C   UNL     1      22.356   9.647  19.963  0.00  0.00    +0.232 C 
ATOM     25  C   UNL     1      22.118  11.723  18.579  0.00  0.00    +0.131 C 
ATOM     26  C   UNL     1      21.500  11.777  20.965  0.00  0.00    +0.131 C 
ENDBRANCH  17  21
ENDBRANCH   9  17
ENDBRANCH  15  13
BRANCH  24  11
ATOM     11  N   UNL     1      13.808   6.430  19.394  0.00  0.00    -0.216 N 
ATOM     34  H   UNL     1      13.159   5.907  19.998  0.00  0.00    +0.174 HD
BRANCH  11   1
ATOM      1  S   UNL     1      13.156   7.828  18.625  0.00  0.00    +0.072 S 
ATOM      7  O   UNL     1      12.134   7.414  17.682  0.00  0.00    -0.150 OA
ATOM      8  O   UNL     1      14.228   8.701  18.188  0.00  0.00    -0.150 OA
BRANCH   1  27
ATOM      2  F   UNL     1      10.380  10.486  23.100  0.00  0.00    -0.205 F 
ATOM     27  C   UNL     1      12.323   8.625  19.968  0.00  0.00    +0.109 A 
ATOM     28  C   UNL     1      11.423   7.906  20.756  0.00  0.00    +0.031 A 
ATOM     29  C   UNL     1      12.566   9.972  20.239  0.00  0.00    +0.031 A 
ATOM     30  C   UNL     1      10.767   8.535  21.814  0.00  0.00    +0.040 A 
ATOM     31  C   UNL     1      11.910  10.600  21.296  0.00  0.00    +0.040 A 
ATOM     32  C   UNL     1      11.010   9.882  22.084  0.00  0.00    +0.124 A 
ENDBRANCH   1  27
ENDBRANCH  11   1
ENDBRANCH  24  11
TORSDOF 8
ENDMDL
MODEL 3
REMARK VINA RESULT:      -7.6      4.097     10.326
REMARK  Name = 71693478
REMARK  10 active torsions:
REMARK  status: ('A' for Active; 'I' for Inactive)
REMARK    1  A    between atoms: S_1  and  N_11
REMARK    2  A    between atoms: S_1  and  C_27
REMARK    3  A    between atoms: O_4  and  C_14
REMARK    4  A    between atoms: N_9  and  C_17
REMARK    5  A    between atoms: N_10  and  C_25
REMARK    6  A    between atoms: N_10  and  C_26
REMARK    7  A    between atoms: N_11  and  C_24
REMARK    8  A    between atoms: C_12  and  C_14
REMARK    9  A    between atoms: C_13  and  C_15
REMARK   10  A    between atoms: C_17  and  C_21
REMARK                            x       y       z     vdW  Elec       q    Type
REMARK                         _______ _______ _______ _____ _____    ______ ____
ROOT
ATOM     15  C   UNL     1      18.379   6.903  20.621  0.00  0.00    -0.017 A 
ATOM     19  C   UNL     1      17.488   7.436  21.553  0.00  0.00    +0.008 A 
ATOM     20  C   UNL     1      17.896   6.194  19.521  0.00  0.00    +0.008 A 
ATOM     22  C   UNL     1      16.114   7.259  21.386  0.00  0.00    +0.025 A 
ATOM     23  C   UNL     1      16.523   6.017  19.354  0.00  0.00    +0.025 A 
ATOM     24  C   UNL     1      15.632   6.550  20.286  0.00  0.00    +0.048 A 
ENDROOT
BRANCH  15  13
ATOM      3  O   UNL     1      20.046   8.282  21.579  0.00  0.00    -0.361 OA
ATOM      5  O   UNL     1      23.483   7.976  22.471  0.00  0.00    -0.273 OA
ATOM      9  N   UNL     1      21.965   6.302  21.900  0.00  0.00    -0.283 N 
ATOM     12  C   UNL     1      20.574   5.939  21.536  0.00  0.00    +0.135 C 
ATOM     13  C   UNL     1      19.870   7.097  20.802  0.00  0.00    +0.171 C 
ATOM     16  C   UNL     1      22.378   7.627  22.049  0.00  0.00    +0.242 C 
ATOM     18  C   UNL     1      21.395   8.682  21.580  0.00  0.00    +0.256 C 
BRANCH  12  14
ATOM     14  C   UNL     1      20.501   4.649  20.706  0.00  0.00    +0.181 C 
BRANCH  14   4
ATOM      4  O   UNL     1      21.291   4.824  19.548  0.00  0.00    -0.393 OA
ATOM     33  H   UNL     1      20.827   5.457  18.976  0.00  0.00    +0.209 HD
ENDBRANCH  14   4
ENDBRANCH  12  14
BRANCH   9  17
ATOM     17  C   UNL     1      22.858   5.237  22.349  0.00  0.00    +0.204 C 
BRANCH  17  21
ATOM      6  O   UNL     1      21.923   5.630  24.521  0.00  0.00    -0.274 OA
ATOM     10  N   UNL     1      22.950   3.577  24.180  0.00  0.00    -0.306 N 
ATOM     21  C   UNL     1      22.526   4.851  23.780  0.00  0.00    +0.232 C 
ATOM     25  C   UNL     1      22.708   3.061  25.525  0.00  0.00    +0.131 C 
ATOM     26  C   UNL     1      23.661   2.674  23.285  0.00  0.00    +0.131 C 
ENDBRANCH  17  21
ENDBRANCH   9  17
ENDBRANCH  15  13
BRANCH  24  11
ATOM     11  N   UNL     1      14.226   6.369  20.115  0.00  0.00    -0.216 N 
ATOM     34  H   UNL     1      13.741   5.954  20.922  0.00  0.00    +0.174 HD
BRANCH  11   1
ATOM      1  S   UNL     1      13.339   7.555  19.233  0.00  0.00    +0.072 S 
ATOM      7  O   UNL     1      12.320   6.891  18.443  0.00  0.00    -0.150 OA
ATOM      8  O   UNL     1      14.250   8.487  18.598  0.00  0.00    -0.150 OA
BRANCH   1  27
ATOM      2  F   UNL     1      10.543  10.434  23.557  0.00  0.00    -0.205 F 
ATOM     27  C   UNL     1      12.500   8.419  20.531  0.00  0.00    +0.109 A 
ATOM     28  C   UNL     1      12.774   9.768  20.761  0.00  0.00    +0.031 A 
ATOM     29  C   UNL     1      11.564   7.752  21.321  0.00  0.00    +0.031 A 
ATOM     30  C   UNL     1      12.112  10.448  21.783  0.00  0.00    +0.040 A 
ATOM     31  C   UNL     1      10.903   8.433  22.343  0.00  0.00    +0.040 A 
ATOM     32  C   UNL     1      11.177   9.781  22.575  0.00  0.00    +0.124 A 
ENDBRANCH   1  27
ENDBRANCH  11   1
ENDBRANCH  24  11
TORSDOF 8
ENDMDL
MODEL 4
REMARK VINA RESULT:      -7.3     29.797     33.270
REMARK  Name = 71693478
REMARK  10 active torsions:
REMARK  status: ('A' for Active; 'I' for Inactive)
REMARK    1  A    between atoms: S_1  and  N_11
REMARK    2  A    between atoms: S_1  and  C_27
REMARK    3  A    between atoms: O_4  and  C_14
REMARK    4  A    between atoms: N_9  and  C_17
REMARK    5  A    between atoms: N_10  and  C_25
REMARK    6  A    between atoms: N_10  and  C_26
REMARK    7  A    between atoms: N_11  and  C_24
REMARK    8  A    between atoms: C_12  and  C_14
REMARK    9  A    between atoms: C_13  and  C_15
REMARK   10  A    between atoms: C_17  and  C_21
REMARK                            x       y       z     vdW  Elec       q    Type
REMARK                         _______ _______ _______ _____ _____    ______ ____
ROOT
ATOM     15  C   UNL     1     -16.467   4.219  24.575  0.00  0.00    -0.017 A 
ATOM     19  C   UNL     1     -15.146   3.948  24.218  0.00  0.00    +0.008 A 
ATOM     20  C   UNL     1     -17.076   5.400  24.150  0.00  0.00    +0.008 A 
ATOM     22  C   UNL     1     -14.434   4.858  23.437  0.00  0.00    +0.025 A 
ATOM     23  C   UNL     1     -16.364   6.310  23.369  0.00  0.00    +0.025 A 
ATOM     24  C   UNL     1     -15.043   6.039  23.012  0.00  0.00    +0.048 A 
ENDROOT
BRANCH  15  13
ATOM      3  O   UNL     1     -17.163   1.966  24.765  0.00  0.00    -0.361 OA
ATOM      5  O   UNL     1     -18.332  -0.191  27.349  0.00  0.00    -0.273 OA
ATOM      9  N   UNL     1     -17.330   1.905  27.535  0.00  0.00    -0.283 N 
ATOM     12  C   UNL     1     -16.692   3.057  26.852  0.00  0.00    +0.135 C 
ATOM     13  C   UNL     1     -17.241   3.230  25.423  0.00  0.00    +0.171 C 
ATOM     16  C   UNL     1     -17.905   0.844  26.833  0.00  0.00    +0.242 C 
ATOM     18  C   UNL     1     -18.061   1.047  25.339  0.00  0.00    +0.256 C 
BRANCH  12  14
ATOM     14  C   UNL     1     -16.833   4.363  27.648  0.00  0.00    +0.181 C 
BRANCH  14   4
ATOM      4  O   UNL     1     -18.181   4.777  27.580  0.00  0.00    -0.393 OA
ATOM     33  H   UNL     1     -18.618   4.229  26.907  0.00  0.00    +0.209 HD
ENDBRANCH  14   4
ENDBRANCH  12  14
BRANCH   9  17
ATOM     17  C   UNL     1     -17.133   1.765  28.976  0.00  0.00    +0.204 C 
BRANCH  17  21
ATOM      6  O   UNL     1     -15.335   0.202  28.717  0.00  0.00    -0.274 OA
ATOM     10  N   UNL     1     -14.976   1.980  30.164  0.00  0.00    -0.306 N 
ATOM     21  C   UNL     1     -15.741   1.232  29.260  0.00  0.00    +0.232 C 
ATOM     25  C   UNL     1     -13.617   1.597  30.542  0.00  0.00    +0.131 C 
ATOM     26  C   UNL     1     -15.477   3.195  30.793  0.00  0.00    +0.131 C 
ENDBRANCH  17  21
ENDBRANCH   9  17
ENDBRANCH  15  13
BRANCH  24  11
ATOM     11  N   UNL     1     -14.314   6.970  22.212  0.00  0.00    -0.216 N 
ATOM     34  H   UNL     1     -13.291   6.865  22.249  0.00  0.00    +0.174 HD
BRANCH  11   1
ATOM      1  S   UNL     1     -14.967   7.443  20.689  0.00  0.00    +0.072 S 
ATOM      7  O   UNL     1     -15.604   8.738  20.830  0.00  0.00    -0.150 OA
ATOM      8  O   UNL     1     -15.699   6.340  20.096  0.00  0.00    -0.150 OA
BRANCH   1  27
ATOM      2  F   UNL     1     -10.081   8.283  17.491  0.00  0.00    -0.205 F 
ATOM     27  C   UNL     1     -13.500   7.695  19.729  0.00  0.00    +0.109 A 
ATOM     28  C   UNL     1     -12.245   7.497  20.307  0.00  0.00    +0.031 A 
ATOM     29  C   UNL     1     -13.599   8.091  18.395  0.00  0.00    +0.031 A 
ATOM     30  C   UNL     1     -11.091   7.695  19.550  0.00  0.00    +0.040 A 
ATOM     31  C   UNL     1     -12.444   8.290  17.639  0.00  0.00    +0.040 A 
ATOM     32  C   UNL     1     -11.189   8.092  18.217  0.00  0.00    +0.124 A 
ENDBRANCH   1  27
ENDBRANCH  11   1
ENDBRANCH  24  11
TORSDOF 8
ENDMDL
MODEL 5
REMARK VINA RESULT:      -7.2     28.730     32.065
REMARK  Name = 71693478
REMARK  10 active torsions:
REMARK  status: ('A' for Active; 'I' for Inactive)
REMARK    1  A    between atoms: S_1  and  N_11
REMARK    2  A    between atoms: S_1  and  C_27
REMARK    3  A    between atoms: O_4  and  C_14
REMARK    4  A    between atoms: N_9  and  C_17
REMARK    5  A    between atoms: N_10  and  C_25
REMARK    6  A    between atoms: N_10  and  C_26
REMARK    7  A    between atoms: N_11  and  C_24
REMARK    8  A    between atoms: C_12  and  C_14
REMARK    9  A    between atoms: C_13  and  C_15
REMARK   10  A    between atoms: C_17  and  C_21
REMARK                            x       y       z     vdW  Elec       q    Type
REMARK                         _______ _______ _______ _____ _____    ______ ____
ROOT
ATOM     15  C   UNL     1     -13.180   7.233  21.226  0.00  0.00    -0.017 A 
ATOM     19  C   UNL     1     -14.223   7.701  22.027  0.00  0.00    +0.008 A 
ATOM     20  C   UNL     1     -12.686   5.941  21.410  0.00  0.00    +0.008 A 
ATOM     22  C   UNL     1     -14.771   6.878  23.011  0.00  0.00    +0.025 A 
ATOM     23  C   UNL     1     -13.234   5.118  22.394  0.00  0.00    +0.025 A 
ATOM     24  C   UNL     1     -14.276   5.587  23.194  0.00  0.00    +0.048 A 
ENDROOT
BRANCH  15  13
ATOM      3  O   UNL     1     -11.170   7.958  20.213  0.00  0.00    -0.361 OA
ATOM      5  O   UNL     1     -10.206   9.502  17.149  0.00  0.00    -0.273 OA
ATOM      9  N   UNL     1     -12.245   8.528  17.719  0.00  0.00    -0.283 N 
ATOM     12  C   UNL     1     -13.048   7.793  18.726  0.00  0.00    +0.135 C 
ATOM     13  C   UNL     1     -12.586   8.126  20.158  0.00  0.00    +0.171 C 
ATOM     16  C   UNL     1     -10.959   9.000  17.987  0.00  0.00    +0.242 C 
ATOM     18  C   UNL     1     -10.520   8.936  19.436  0.00  0.00    +0.256 C 
BRANCH  12  14
ATOM     14  C   UNL     1     -14.555   8.042  18.572  0.00  0.00    +0.181 C 
BRANCH  14   4
ATOM      4  O   UNL     1     -14.823   9.375  18.956  0.00  0.00    -0.393 OA
ATOM     33  H   UNL     1     -15.601   9.356  19.539  0.00  0.00    +0.209 HD
ENDBRANCH  14   4
ENDBRANCH  12  14
BRANCH   9  17
ATOM     17  C   UNL     1     -12.723   8.545  16.338  0.00  0.00    +0.204 C 
BRANCH  17  21
ATOM      6  O   UNL     1     -13.660  10.734  16.615  0.00  0.00    -0.274 OA
ATOM     10  N   UNL     1     -12.465  10.347  14.664  0.00  0.00    -0.306 N 
ATOM     21  C   UNL     1     -13.000   9.973  15.903  0.00  0.00    +0.232 C 
ATOM     25  C   UNL     1     -12.646  11.685  14.106  0.00  0.00    +0.131 C 
ATOM     26  C   UNL     1     -11.688   9.429  13.840  0.00  0.00    +0.131 C 
ENDBRANCH  17  21
ENDBRANCH   9  17
ENDBRANCH  15  13
BRANCH  24  11
ATOM     11  N   UNL     1     -14.838   4.744  24.201  0.00  0.00    -0.216 N 
ATOM     34  H   UNL     1     -14.750   5.100  25.162  0.00  0.00    +0.174 HD
BRANCH  11   1
ATOM      1  S   UNL     1     -16.289   3.884  23.848  0.00  0.00    +0.072 S 
ATOM      7  O   UNL     1     -16.036   2.956  22.761  0.00  0.00    -0.150 OA
ATOM      8  O   UNL     1     -17.406   4.805  23.763  0.00  0.00    -0.150 OA
BRANCH   1  27
ATOM      2  F   UNL     1     -16.990   0.646  28.729  0.00  0.00    -0.205 F 
ATOM     27  C   UNL     1     -16.500   2.912  25.313  0.00  0.00    +0.109 A 
ATOM     28  C   UNL     1     -17.032   1.625  25.225  0.00  0.00    +0.031 A 
ATOM     29  C   UNL     1     -16.132   3.432  26.554  0.00  0.00    +0.031 A 
ATOM     30  C   UNL     1     -17.197   0.860  26.380  0.00  0.00    +0.040 A 
ATOM     31  C   UNL     1     -16.298   2.667  27.707  0.00  0.00    +0.040 A 
ATOM     32  C   UNL     1     -16.831   1.380  27.621  0.00  0.00    +0.124 A 
ENDBRANCH   1  27
ENDBRANCH  11   1
ENDBRANCH  24  11
TORSDOF 8
ENDMDL
MODEL 6
REMARK VINA RESULT:      -7.2     28.175     30.413
REMARK  Name = 71693478
REMARK  10 active torsions:
REMARK  status: ('A' for Active; 'I' for Inactive)
REMARK    1  A    between atoms: S_1  and  N_11
REMARK    2  A    between atoms: S_1  and  C_27
REMARK    3  A    between atoms: O_4  and  C_14
REMARK    4  A    between atoms: N_9  and  C_17
REMARK    5  A    between atoms: N_10  and  C_25
REMARK    6  A    between atoms: N_10  and  C_26
REMARK    7  A    between atoms: N_11  and  C_24
REMARK    8  A    between atoms: C_12  and  C_14
REMARK    9  A    between atoms: C_13  and  C_15
REMARK   10  A    between atoms: C_17  and  C_21
REMARK                            x       y       z     vdW  Elec       q    Type
REMARK                         _______ _______ _______ _____ _____    ______ ____
ROOT
ATOM     15  C   UNL     1      -5.923 -10.681  16.706  0.00  0.00    -0.017 A 
ATOM     19  C   UNL     1      -6.042 -11.985  16.225  0.00  0.00    +0.008 A 
ATOM     20  C   UNL     1      -4.691 -10.029  16.656  0.00  0.00    +0.008 A 
ATOM     22  C   UNL     1      -4.929 -12.637  15.694  0.00  0.00    +0.025 A 
ATOM     23  C   UNL     1      -3.578 -10.681  16.125  0.00  0.00    +0.025 A 
ATOM     24  C   UNL     1      -3.697 -11.985  15.643  0.00  0.00    +0.048 A 
ENDROOT
BRANCH  15  13
ATOM      3  O   UNL     1      -7.963  -9.604  16.182  0.00  0.00    -0.361 OA
ATOM      5  O   UNL     1     -10.969  -8.744  17.891  0.00  0.00    -0.273 OA
ATOM      9  N   UNL     1      -9.260 -10.177  18.568  0.00  0.00    -0.283 N 
ATOM     12  C   UNL     1      -7.972 -10.836  18.244  0.00  0.00    +0.135 C 
ATOM     13  C   UNL     1      -7.131  -9.973  17.282  0.00  0.00    +0.171 C 
ATOM     16  C   UNL     1      -9.845  -9.225  17.731  0.00  0.00    +0.242 C 
ATOM     18  C   UNL     1      -8.976  -8.720  16.596  0.00  0.00    +0.256 C 
BRANCH  12  14
ATOM     14  C   UNL     1      -7.162 -11.192  19.499  0.00  0.00    +0.181 C 
BRANCH  14   4
ATOM      4  O   UNL     1      -6.657  -9.994  20.052  0.00  0.00    -0.393 OA
ATOM     33  H   UNL     1      -5.754  -9.877  19.712  0.00  0.00    +0.209 HD
ENDBRANCH  14   4
ENDBRANCH  12  14
BRANCH   9  17
ATOM     17  C   UNL     1     -10.051 -10.719  19.670  0.00  0.00    +0.204 C 
BRANCH  17  21
ATOM      6  O   UNL     1     -10.694 -12.655  18.413  0.00  0.00    -0.274 OA
ATOM     10  N   UNL     1     -12.383 -11.528  19.534  0.00  0.00    -0.306 N 
ATOM     21  C   UNL     1     -11.054 -11.728  19.142  0.00  0.00    +0.232 C 
ATOM     25  C   UNL     1     -13.466 -12.413  19.108  0.00  0.00    +0.131 C 
ATOM     26  C   UNL     1     -12.785 -10.425  20.398  0.00  0.00    +0.131 C 
ENDBRANCH  17  21
ENDBRANCH   9  17
ENDBRANCH  15  13
BRANCH  24  11
ATOM     11  N   UNL     1      -2.558 -12.652  15.099  0.00  0.00    -0.216 N 
ATOM     34  H   UNL     1      -1.955 -13.115  15.792  0.00  0.00    +0.174 HD
BRANCH  11   1
ATOM      1  S   UNL     1      -2.714 -13.454  13.582  0.00  0.00    +0.072 S 
ATOM      7  O   UNL     1      -4.003 -14.118  13.529  0.00  0.00    -0.150 OA
ATOM      8  O   UNL     1      -1.506 -14.202  13.288  0.00  0.00    -0.150 OA
BRANCH   1  27
ATOM      2  F   UNL     1      -2.974  -8.909   9.830  0.00  0.00    -0.205 F 
ATOM     27  C   UNL     1      -2.792 -12.090  12.456  0.00  0.00    +0.109 A 
ATOM     28  C   UNL     1      -1.828 -11.082  12.513  0.00  0.00    +0.031 A 
ATOM     29  C   UNL     1      -3.816 -12.024  11.511  0.00  0.00    +0.031 A 
ATOM     30  C   UNL     1      -1.890 -10.008  11.626  0.00  0.00    +0.040 A 
ATOM     31  C   UNL     1      -3.877 -10.949  10.624  0.00  0.00    +0.040 A 
ATOM     32  C   UNL     1      -2.914  -9.941  10.682  0.00  0.00    +0.124 A 
ENDBRANCH   1  27
ENDBRANCH  11   1
ENDBRANCH  24  11
TORSDOF 8
ENDMDL
MODEL 7
REMARK VINA RESULT:      -7.2     28.485     31.574
REMARK  Name = 71693478
REMARK  10 active torsions:
REMARK  status: ('A' for Active; 'I' for Inactive)
REMARK    1  A    between atoms: S_1  and  N_11
REMARK    2  A    between atoms: S_1  and  C_27
REMARK    3  A    between atoms: O_4  and  C_14
REMARK    4  A    between atoms: N_9  and  C_17
REMARK    5  A    between atoms: N_10  and  C_25
REMARK    6  A    between atoms: N_10  and  C_26
REMARK    7  A    between atoms: N_11  and  C_24
REMARK    8  A    between atoms: C_12  and  C_14
REMARK    9  A    between atoms: C_13  and  C_15
REMARK   10  A    between atoms: C_17  and  C_21
REMARK                            x       y       z     vdW  Elec       q    Type
REMARK                         _______ _______ _______ _____ _____    ______ ____
ROOT
ATOM     15  C   UNL     1      -7.591 -10.858  18.506  0.00  0.00    -0.017 A 
ATOM     19  C   UNL     1      -6.332 -10.952  19.102  0.00  0.00    +0.008 A 
ATOM     20  C   UNL     1      -7.705 -10.426  17.184  0.00  0.00    +0.008 A 
ATOM     22  C   UNL     1      -5.190 -10.615  18.376  0.00  0.00    +0.025 A 
ATOM     23  C   UNL     1      -6.563 -10.089  16.459  0.00  0.00    +0.025 A 
ATOM     24  C   UNL     1      -5.305 -10.184  17.055  0.00  0.00    +0.048 A 
ENDROOT
BRANCH  15  13
ATOM      3  O   UNL     1      -9.739 -10.130  19.177  0.00  0.00    -0.361 OA
ATOM      5  O   UNL     1     -12.732 -11.626  20.402  0.00  0.00    -0.273 OA
ATOM      9  N   UNL     1     -10.875 -12.649  19.435  0.00  0.00    -0.283 N 
ATOM     12  C   UNL     1      -9.548 -12.492  18.790  0.00  0.00    +0.135 C 
ATOM     13  C   UNL     1      -8.831 -11.225  19.294  0.00  0.00    +0.171 C 
ATOM     16  C   UNL     1     -11.578 -11.569  19.972  0.00  0.00    +0.242 C 
ATOM     18  C   UNL     1     -10.808 -10.268  20.082  0.00  0.00    +0.256 C 
BRANCH  12  14
ATOM     14  C   UNL     1      -8.655 -13.728  18.975  0.00  0.00    +0.181 C 
BRANCH  14   4
ATOM      4  O   UNL     1      -8.281 -13.802  20.335  0.00  0.00    -0.393 OA
ATOM     33  H   UNL     1      -7.700 -13.044  20.516  0.00  0.00    +0.209 HD
ENDBRANCH  14   4
ENDBRANCH  12  14
BRANCH   9  17
ATOM     17  C   UNL     1     -11.565 -13.928  19.284  0.00  0.00    +0.204 C 
BRANCH  17  21
ATOM      6  O   UNL     1     -10.839 -14.669  21.445  0.00  0.00    -0.274 OA
ATOM     10  N   UNL     1     -13.068 -15.026  20.912  0.00  0.00    -0.306 N 
ATOM     21  C   UNL     1     -11.772 -14.568  20.645  0.00  0.00    +0.232 C 
ATOM     25  C   UNL     1     -13.427 -15.666  22.175  0.00  0.00    +0.131 C 
ATOM     26  C   UNL     1     -14.156 -14.896  19.950  0.00  0.00    +0.131 C 
ENDBRANCH  17  21
ENDBRANCH   9  17
ENDBRANCH  15  13
BRANCH  24  11
ATOM     11  N   UNL     1      -4.135  -9.840  16.312  0.00  0.00    -0.216 N 
ATOM     34  H   UNL     1      -3.620  -9.023  16.669  0.00  0.00    +0.174 HD
BRANCH  11   1
ATOM      1  S   UNL     1      -3.172 -11.105  15.649  0.00  0.00    +0.072 S 
ATOM      7  O   UNL     1      -3.887 -12.360  15.778  0.00  0.00    -0.150 OA
ATOM      8  O   UNL     1      -1.809 -10.999  16.134  0.00  0.00    -0.150 OA
BRANCH   1  27
ATOM      2  F   UNL     1      -3.153  -9.728   9.912  0.00  0.00    -0.205 F 
ATOM     27  C   UNL     1      -3.166 -10.692  13.927  0.00  0.00    +0.109 A 
ATOM     28  C   UNL     1      -4.373 -10.504  13.251  0.00  0.00    +0.031 A 
ATOM     29  C   UNL     1      -1.956 -10.552  13.247  0.00  0.00    +0.031 A 
ATOM     30  C   UNL     1      -4.368 -10.178  11.895  0.00  0.00    +0.040 A 
ATOM     31  C   UNL     1      -1.952 -10.227  11.891  0.00  0.00    +0.040 A 
ATOM     32  C   UNL     1      -3.158 -10.040  11.215  0.00  0.00    +0.124 A 
ENDBRANCH   1  27
ENDBRANCH  11   1
ENDBRANCH  24  11
TORSDOF 8
ENDMDL
MODEL 8
REMARK VINA RESULT:      -7.1     27.657     31.314
REMARK  Name = 71693478
REMARK  10 active torsions:
REMARK  status: ('A' for Active; 'I' for Inactive)
REMARK    1  A    between atoms: S_1  and  N_11
REMARK    2  A    between atoms: S_1  and  C_27
REMARK    3  A    between atoms: O_4  and  C_14
REMARK    4  A    between atoms: N_9  and  C_17
REMARK    5  A    between atoms: N_10  and  C_25
REMARK    6  A    between atoms: N_10  and  C_26
REMARK    7  A    between atoms: N_11  and  C_24
REMARK    8  A    between atoms: C_12  and  C_14
REMARK    9  A    between atoms: C_13  and  C_15
REMARK   10  A    between atoms: C_17  and  C_21
REMARK                            x       y       z     vdW  Elec       q    Type
REMARK                         _______ _______ _______ _____ _____    ______ ____
ROOT
ATOM     15  C   UNL     1      -5.048 -12.071  16.662  0.00  0.00    -0.017 A 
ATOM     19  C   UNL     1      -4.868 -11.961  18.041  0.00  0.00    +0.008 A 
ATOM     20  C   UNL     1      -6.171 -11.503  16.059  0.00  0.00    +0.008 A 
ATOM     22  C   UNL     1      -5.809 -11.285  18.817  0.00  0.00    +0.025 A 
ATOM     23  C   UNL     1      -7.112 -10.827  16.834  0.00  0.00    +0.025 A 
ATOM     24  C   UNL     1      -6.931 -10.718  18.213  0.00  0.00    +0.048 A 
ENDROOT
BRANCH  15  13
ATOM      3  O   UNL     1      -4.669 -13.968  15.300  0.00  0.00    -0.361 OA
ATOM      5  O   UNL     1      -2.321 -14.960  12.810  0.00  0.00    -0.273 OA
ATOM      9  N   UNL     1      -2.690 -12.843  13.713  0.00  0.00    -0.283 N 
ATOM     12  C   UNL     1      -3.484 -11.990  14.630  0.00  0.00    +0.135 C 
ATOM     13  C   UNL     1      -4.026 -12.805  15.820  0.00  0.00    +0.171 C 
ATOM     16  C   UNL     1      -2.862 -14.227  13.640  0.00  0.00    +0.242 C 
ATOM     18  C   UNL     1      -3.731 -14.842  14.720  0.00  0.00    +0.256 C 
BRANCH  12  14
ATOM     14  C   UNL     1      -2.697 -10.767  15.124  0.00  0.00    +0.181 C 
BRANCH  14   4
ATOM      4  O   UNL     1      -1.740 -11.210  16.064  0.00  0.00    -0.393 OA
ATOM     33  H   UNL     1      -1.077 -11.729  15.578  0.00  0.00    +0.209 HD
ENDBRANCH  14   4
ENDBRANCH  12  14
BRANCH   9  17
ATOM     17  C   UNL     1      -1.879 -12.186  12.691  0.00  0.00    +0.204 C 
BRANCH  17  21
ATOM      6  O   UNL     1      -3.736 -12.189  11.175  0.00  0.00    -0.274 OA
ATOM     10  N   UNL     1      -2.441 -10.265  11.238  0.00  0.00    -0.306 N 
ATOM     21  C   UNL     1      -2.778 -11.565  11.636  0.00  0.00    +0.232 C 
ATOM     25  C   UNL     1      -3.206  -9.533  10.232  0.00  0.00    +0.131 C 
ATOM     26  C   UNL     1      -1.303  -9.547  11.799  0.00  0.00    +0.131 C 
ENDBRANCH  17  21
ENDBRANCH   9  17
ENDBRANCH  15  13
BRANCH  24  11
ATOM     11  N   UNL     1      -7.894 -10.024  19.007  0.00  0.00    -0.216 N 
ATOM     34  H   UNL     1      -7.806  -8.999  18.997  0.00  0.00    +0.174 HD
BRANCH  11   1
ATOM      1  S   UNL     1      -9.502 -10.639  19.086  0.00  0.00    +0.072 S 
ATOM      7  O   UNL     1      -9.997 -10.493  20.442  0.00  0.00    -0.150 OA
ATOM      8  O   UNL     1      -9.574 -11.929  18.427  0.00  0.00    -0.150 OA
BRANCH   1  27
ATOM      2  F   UNL     1     -12.446  -6.753  15.764  0.00  0.00    -0.205 F 
ATOM     27  C   UNL     1     -10.386  -9.473  18.089  0.00  0.00    +0.109 A 
ATOM     28  C   UNL     1     -11.747  -9.657  17.841  0.00  0.00    +0.031 A 
ATOM     29  C   UNL     1      -9.722  -8.369  17.553  0.00  0.00    +0.031 A 
ATOM     30  C   UNL     1     -12.442  -8.738  17.056  0.00  0.00    +0.040 A 
ATOM     31  C   UNL     1     -10.418  -7.451  16.767  0.00  0.00    +0.040 A 
ATOM     32  C   UNL     1     -11.779  -7.636  16.518  0.00  0.00    +0.124 A 
ENDBRANCH   1  27
ENDBRANCH  11   1
ENDBRANCH  24  11
TORSDOF 8
ENDMDL
MODEL 9
REMARK VINA RESULT:      -7.0     17.334     20.303
REMARK  Name = 71693478
REMARK  10 active torsions:
REMARK  status: ('A' for Active; 'I' for Inactive)
REMARK    1  A    between atoms: S_1  and  N_11
REMARK    2  A    between atoms: S_1  and  C_27
REMARK    3  A    between atoms: O_4  and  C_14
REMARK    4  A    between atoms: N_9  and  C_17
REMARK    5  A    between atoms: N_10  and  C_25
REMARK    6  A    between atoms: N_10  and  C_26
REMARK    7  A    between atoms: N_11  and  C_24
REMARK    8  A    between atoms: C_12  and  C_14
REMARK    9  A    between atoms: C_13  and  C_15
REMARK   10  A    between atoms: C_17  and  C_21
REMARK                            x       y       z     vdW  Elec       q    Type
REMARK                         _______ _______ _______ _____ _____    ______ ____
ROOT
ATOM     15  C   UNL     1      11.167   5.170   2.581  0.00  0.00    -0.017 A 
ATOM     19  C   UNL     1      10.659   6.469   2.557  0.00  0.00    +0.008 A 
ATOM     20  C   UNL     1      10.860   4.320   3.644  0.00  0.00    +0.008 A 
ATOM     22  C   UNL     1       9.845   6.919   3.597  0.00  0.00    +0.025 A 
ATOM     23  C   UNL     1      10.046   4.770   4.683  0.00  0.00    +0.025 A 
ATOM     24  C   UNL     1       9.538   6.069   4.659  0.00  0.00    +0.048 A 
ENDROOT
BRANCH  15  13
ATOM      3  O   UNL     1      11.196   4.407   0.342  0.00  0.00    -0.361 OA
ATOM      5  O   UNL     1      13.597   4.091  -2.273  0.00  0.00    -0.273 OA
ATOM      9  N   UNL     1      13.765   5.264  -0.265  0.00  0.00    -0.283 N 
ATOM     12  C   UNL     1      13.112   5.700   0.993  0.00  0.00    +0.135 C 
ATOM     13  C   UNL     1      12.051   4.682   1.452  0.00  0.00    +0.171 C 
ATOM     16  C   UNL     1      13.153   4.384  -1.160  0.00  0.00    +0.242 C 
ATOM     18  C   UNL     1      11.891   3.708  -0.663  0.00  0.00    +0.256 C 
BRANCH  12  14
ATOM     14  C   UNL     1      14.123   5.972   2.116  0.00  0.00    +0.181 C 
BRANCH  14   4
ATOM      4  O   UNL     1      14.740   4.748   2.459  0.00  0.00    -0.393 OA
ATOM     33  H   UNL     1      14.477   4.537   3.370  0.00  0.00    +0.209 HD
ENDBRANCH  14   4
ENDBRANCH  12  14
BRANCH   9  17
ATOM     17  C   UNL     1      14.976   5.963  -0.690  0.00  0.00    +0.204 C 
BRANCH  17  21
ATOM      6  O   UNL     1      16.277   4.096   0.064  0.00  0.00    -0.274 OA
ATOM     10  N   UNL     1      17.005   5.170  -1.860  0.00  0.00    -0.306 N 
ATOM     21  C   UNL     1      16.134   4.985  -0.778  0.00  0.00    +0.232 C 
ATOM     25  C   UNL     1      18.168   4.314  -2.082  0.00  0.00    +0.131 C 
ATOM     26  C   UNL     1      16.815   6.229  -2.843  0.00  0.00    +0.131 C 
ENDBRANCH  17  21
ENDBRANCH   9  17
ENDBRANCH  15  13
BRANCH  24  11
ATOM     11  N   UNL     1       8.703   6.529   5.722  0.00  0.00    -0.216 N 
ATOM     34  H   UNL     1       7.707   6.292   5.624  0.00  0.00    +0.174 HD
BRANCH  11   1
ATOM      1  S   UNL     1       9.324   6.515   7.330  0.00  0.00    +0.072 S 
ATOM      7  O   UNL     1       9.541   5.141   7.740  0.00  0.00    -0.150 OA
ATOM      8  O   UNL     1       8.546   7.404   8.171  0.00  0.00    -0.150 OA
BRANCH   1  27
ATOM      2  F   UNL     1      14.650   8.942   6.591  0.00  0.00    -0.205 F 
ATOM     27  C   UNL     1      10.922   7.243   7.108  0.00  0.00    +0.109 A 
ATOM     28  C   UNL     1      11.036   8.608   6.837  0.00  0.00    +0.031 A 
ATOM     29  C   UNL     1      12.068   6.454   7.205  0.00  0.00    +0.031 A 
ATOM     30  C   UNL     1      12.295   9.181   6.663  0.00  0.00    +0.040 A 
ATOM     31  C   UNL     1      13.327   7.027   7.030  0.00  0.00    +0.040 A 
ATOM     32  C   UNL     1      13.441   8.392   6.759  0.00  0.00    +0.124 A 
ENDBRANCH   1  27
ENDBRANCH  11   1
ENDBRANCH  24  11
TORSDOF 8
ENDMDL
MODEL 10
REMARK VINA RESULT:      -7.0     27.928     31.090
REMARK  Name = 71693478
REMARK  10 active torsions:
REMARK  status: ('A' for Active; 'I' for Inactive)
REMARK    1  A    between atoms: S_1  and  N_11
REMARK    2  A    between atoms: S_1  and  C_27
REMARK    3  A    between atoms: O_4  and  C_14
REMARK    4  A    between atoms: N_9  and  C_17
REMARK    5  A    between atoms: N_10  and  C_25
REMARK    6  A    between atoms: N_10  and  C_26
REMARK    7  A    between atoms: N_11  and  C_24
REMARK    8  A    between atoms: C_12  and  C_14
REMARK    9  A    between atoms: C_13  and  C_15
REMARK   10  A    between atoms: C_17  and  C_21
REMARK                            x       y       z     vdW  Elec       q    Type
REMARK                         _______ _______ _______ _____ _____    ______ ____
ROOT
ATOM     15  C   UNL     1      -7.015 -10.421  17.753  0.00  0.00    -0.017 A 
ATOM     19  C   UNL     1      -5.849 -10.801  18.419  0.00  0.00    +0.008 A 
ATOM     20  C   UNL     1      -6.945  -9.934  16.448  0.00  0.00    +0.008 A 
ATOM     22  C   UNL     1      -4.614 -10.693  17.780  0.00  0.00    +0.025 A 
ATOM     23  C   UNL     1      -5.710  -9.826  15.809  0.00  0.00    +0.025 A 
ATOM     24  C   UNL     1      -4.545 -10.206  16.475  0.00  0.00    +0.048 A 
ENDROOT
BRANCH  15  13
ATOM      3  O   UNL     1      -9.268  -9.698  17.740  0.00  0.00    -0.361 OA
ATOM      5  O   UNL     1     -12.373 -10.820  19.081  0.00  0.00    -0.273 OA
ATOM      9  N   UNL     1     -10.348 -11.965  18.921  0.00  0.00    -0.283 N 
ATOM     12  C   UNL     1      -8.939 -11.965  18.459  0.00  0.00    +0.135 C 
ATOM     13  C   UNL     1      -8.356 -10.539  18.447  0.00  0.00    +0.171 C 
ATOM     16  C   UNL     1     -11.165 -10.836  18.830  0.00  0.00    +0.242 C 
ATOM     18  C   UNL     1     -10.466  -9.543  18.460  0.00  0.00    +0.256 C 
BRANCH  12  14
ATOM     14  C   UNL     1      -8.050 -12.906  19.285  0.00  0.00    +0.181 C 
BRANCH  14   4
ATOM      4  O   UNL     1      -7.525 -13.891  18.419  0.00  0.00    -0.393 OA
ATOM     33  H   UNL     1      -6.560 -13.776  18.403  0.00  0.00    +0.209 HD
ENDBRANCH  14   4
ENDBRANCH  12  14
BRANCH   9  17
ATOM     17  C   UNL     1     -10.963 -13.248  19.256  0.00  0.00    +0.204 C 
BRANCH  17  21
ATOM      6  O   UNL     1     -11.680 -13.546  16.988  0.00  0.00    -0.274 OA
ATOM     10  N   UNL     1     -10.796 -15.405  18.059  0.00  0.00    -0.306 N 
ATOM     21  C   UNL     1     -11.185 -14.061  17.993  0.00  0.00    +0.232 C 
ATOM     25  C   UNL     1     -10.947 -16.318  16.929  0.00  0.00    +0.131 C 
ATOM     26  C   UNL     1     -10.213 -15.991  19.259  0.00  0.00    +0.131 C 
ENDBRANCH  17  21
ENDBRANCH   9  17
ENDBRANCH  15  13
BRANCH  24  11
ATOM     11  N   UNL     1      -3.280 -10.097  15.821  0.00  0.00    -0.216 N 
ATOM     34  H   UNL     1      -2.546  -9.633  16.373  0.00  0.00    +0.174 HD
BRANCH  11   1
ATOM      1  S   UNL     1      -2.756 -11.389  14.808  0.00  0.00    +0.072 S 
ATOM      7  O   UNL     1      -3.722 -12.469  14.881  0.00  0.00    -0.150 OA
ATOM      8  O   UNL     1      -1.350 -11.662  15.038  0.00  0.00    -0.150 OA
BRANCH   1  27
ATOM      2  F   UNL     1      -3.270  -8.998   9.439  0.00  0.00    -0.205 F 
ATOM     27  C   UNL     1      -2.910 -10.671  13.197  0.00  0.00    +0.109 A 
ATOM     28  C   UNL     1      -4.174 -10.487  12.633  0.00  0.00    +0.031 A 
ATOM     29  C   UNL     1      -1.769 -10.289  12.491  0.00  0.00    +0.031 A 
ATOM     30  C   UNL     1      -4.295  -9.921  11.364  0.00  0.00    +0.040 A 
ATOM     31  C   UNL     1      -1.891  -9.724  11.222  0.00  0.00    +0.040 A 
ATOM     32  C   UNL     1      -3.154  -9.540  10.658  0.00  0.00    +0.124 A 
ENDBRANCH   1  27
ENDBRANCH  11   1
ENDBRANCH  24  11
TORSDOF 8
ENDMDL
