MODEL 1
REMARK VINA RESULT:      -7.0      0.000      0.000
REMARK  Name = 11885228
REMARK  6 active torsions:
REMARK  status: ('A' for Active; 'I' for Inactive)
REMARK    1  A    between atoms: N_6  and  C_24
REMARK    2  A    between atoms: N_6  and  C_30
REMARK    3  A    between atoms: N_6  and  C_31
REMARK    4  A    between atoms: C_16  and  C_20
REMARK    5  A    between atoms: C_17  and  C_19
REMARK    6  A    between atoms: C_21  and  C_24
REMARK                            x       y       z     vdW  Elec       q    Type
REMARK                         _______ _______ _______ _____ _____    ______ ____
ROOT
ATOM      2  O   UNL     1      12.385   7.510   3.242  0.00  0.00    -0.267 OA
ATOM      3  O   UNL     1      13.308   7.003  -1.753  0.00  0.00    -0.269 OA
ATOM      4  N   UNL     1      12.895   5.479   2.216  0.00  0.00    -0.311 N 
ATOM      5  N   UNL     1      13.710   4.913  -0.783  0.00  0.00    -0.296 N 
ATOM      7  C   UNL     1      15.199   4.984   1.208  0.00  0.00    +0.027 C 
ATOM      8  C   UNL     1      13.413   3.295   1.076  0.00  0.00    +0.054 C 
ATOM      9  C   UNL     1      14.861   3.528   1.506  0.00  0.00    +0.018 C 
ATOM     10  C   UNL     1      14.300   5.885   2.066  0.00  0.00    +0.130 C 
ATOM     11  C   UNL     1      15.042   5.274  -0.296  0.00  0.00    +0.113 C 
ATOM     12  C   UNL     1      13.276   3.548  -0.440  0.00  0.00    +0.117 C 
ATOM     13  C   UNL     1      12.465   4.207   1.830  0.00  0.00    +0.027 A 
ATOM     14  C   UNL     1      11.208   3.813   2.087  0.00  0.00    +0.022 A 
ATOM     15  C   UNL     1      12.036   6.393   2.857  0.00  0.00    +0.259 A 
ATOM     16  C   UNL     1      12.947   5.863  -1.465  0.00  0.00    +0.253 C 
ATOM     17  C   UNL     1      10.621   5.939   3.089  0.00  0.00    +0.047 A 
ATOM     18  C   UNL     1      10.273   4.698   2.722  0.00  0.00    +0.015 A 
ENDROOT
BRANCH  17  19
ATOM     19  C   UNL     1       9.622   6.839   3.690  0.00  0.00    -0.008 A 
ATOM     21  C   UNL     1       9.331   6.795   5.056  0.00  0.00    -0.026 A 
ATOM     22  C   UNL     1       8.955   7.751   2.869  0.00  0.00    +0.009 A 
ATOM     25  C   UNL     1       8.379   7.660   5.596  0.00  0.00    +0.005 A 
ATOM     27  C   UNL     1       8.003   8.615   3.410  0.00  0.00    +0.001 A 
ATOM     29  C   UNL     1       7.715   8.570   4.774  0.00  0.00    +0.000 A 
BRANCH  21  24
ATOM     24  C   UNL     1      10.021   5.833   5.968  0.00  0.00    +0.119 C 
BRANCH  24   6
ATOM      6  N   UNL     1      10.638   6.501   7.114  0.00  0.00    -0.304 NA
ATOM     30  C   UNL     1      12.058   6.742   6.861  0.00  0.00    +0.104 C 
ATOM     31  C   UNL     1      10.462   5.702   8.326  0.00  0.00    +0.104 C 
ENDBRANCH  24   6
ENDBRANCH  21  24
ENDBRANCH  17  19
BRANCH  16  20
ATOM      1  S   UNL     1      11.326   4.816  -3.408  0.00  0.00    -0.092 S 
ATOM     20  C   UNL     1      11.583   5.496  -1.861  0.00  0.00    +0.074 A 
ATOM     23  C   UNL     1      10.419   5.621  -1.143  0.00  0.00    +0.021 A 
ATOM     26  C   UNL     1       9.291   5.150  -1.876  0.00  0.00    +0.008 A 
ATOM     28  C   UNL     1       9.643   4.683  -3.123  0.00  0.00    +0.046 A 
ENDBRANCH  16  20
TORSDOF 4
ENDMDL
MODEL 2
REMARK VINA RESULT:      -6.5     26.787     31.330
REMARK  Name = 11885228
REMARK  6 active torsions:
REMARK  status: ('A' for Active; 'I' for Inactive)
REMARK    1  A    between atoms: N_6  and  C_24
REMARK    2  A    between atoms: N_6  and  C_30
REMARK    3  A    between atoms: N_6  and  C_31
REMARK    4  A    between atoms: C_16  and  C_20
REMARK    5  A    between atoms: C_17  and  C_19
REMARK    6  A    between atoms: C_21  and  C_24
REMARK                            x       y       z     vdW  Elec       q    Type
REMARK                         _______ _______ _______ _____ _____    ______ ____
ROOT
ATOM      2  O   UNL     1     -13.903   9.493  17.824  0.00  0.00    -0.267 OA
ATOM      3  O   UNL     1     -16.349  10.379  22.216  0.00  0.00    -0.269 OA
ATOM      4  N   UNL     1     -13.976   7.980  19.598  0.00  0.00    -0.311 N 
ATOM      5  N   UNL     1     -15.572   8.175  22.316  0.00  0.00    -0.296 N 
ATOM      7  C   UNL     1     -16.136   6.805  20.319  0.00  0.00    +0.027 C 
ATOM      8  C   UNL     1     -14.041   6.381  21.541  0.00  0.00    +0.054 C 
ATOM      9  C   UNL     1     -15.205   5.705  20.818  0.00  0.00    +0.018 C 
ATOM     10  C   UNL     1     -15.380   7.665  19.297  0.00  0.00    +0.130 C 
ATOM     11  C   UNL     1     -16.662   7.638  21.502  0.00  0.00    +0.113 C 
ATOM     12  C   UNL     1     -14.576   7.180  22.748  0.00  0.00    +0.117 C 
ATOM     13  C   UNL     1     -13.286   7.312  20.612  0.00  0.00    +0.027 A 
ATOM     14  C   UNL     1     -11.972   7.526  20.788  0.00  0.00    +0.022 A 
ATOM     15  C   UNL     1     -13.339   8.907  18.750  0.00  0.00    +0.259 A 
ATOM     16  C   UNL     1     -15.518   9.546  22.575  0.00  0.00    +0.253 C 
ATOM     17  C   UNL     1     -11.878   9.161  19.003  0.00  0.00    +0.047 A 
ATOM     18  C   UNL     1     -11.263   8.469  19.973  0.00  0.00    +0.015 A 
ENDROOT
BRANCH  17  19
ATOM     19  C   UNL     1     -11.131  10.159  18.220  0.00  0.00    -0.008 A 
ATOM     21  C   UNL     1     -10.528   9.829  17.004  0.00  0.00    -0.026 A 
ATOM     22  C   UNL     1     -11.028  11.462  18.713  0.00  0.00    +0.009 A 
ATOM     25  C   UNL     1      -9.827  10.797  16.286  0.00  0.00    +0.005 A 
ATOM     27  C   UNL     1     -10.326  12.429  17.994  0.00  0.00    +0.001 A 
ATOM     29  C   UNL     1      -9.725  12.097  16.780  0.00  0.00    +0.000 A 
BRANCH  21  24
ATOM     24  C   UNL     1     -10.614   8.446  16.444  0.00  0.00    +0.119 C 
BRANCH  24   6
ATOM      6  N   UNL     1     -10.938   8.446  15.017  0.00  0.00    -0.304 NA
ATOM     30  C   UNL     1     -12.386   8.394  14.822  0.00  0.00    +0.104 C 
ATOM     31  C   UNL     1     -10.290   7.318  14.347  0.00  0.00    +0.104 C 
ENDBRANCH  24   6
ENDBRANCH  21  24
ENDBRANCH  17  19
BRANCH  16  20
ATOM      1  S   UNL     1     -14.513  10.314  25.004  0.00  0.00    -0.092 S 
ATOM     20  C   UNL     1     -14.364  10.063  23.319  0.00  0.00    +0.074 A 
ATOM     23  C   UNL     1     -13.117  10.392  22.848  0.00  0.00    +0.021 A 
ATOM     26  C   UNL     1     -12.264  10.862  23.888  0.00  0.00    +0.008 A 
ATOM     28  C   UNL     1     -12.896  10.869  25.111  0.00  0.00    +0.046 A 
ENDBRANCH  16  20
TORSDOF 4
ENDMDL
MODEL 3
REMARK VINA RESULT:      -6.2     27.430     29.937
REMARK  Name = 11885228
REMARK  6 active torsions:
REMARK  status: ('A' for Active; 'I' for Inactive)
REMARK    1  A    between atoms: N_6  and  C_24
REMARK    2  A    between atoms: N_6  and  C_30
REMARK    3  A    between atoms: N_6  and  C_31
REMARK    4  A    between atoms: C_16  and  C_20
REMARK    5  A    between atoms: C_17  and  C_19
REMARK    6  A    between atoms: C_21  and  C_24
REMARK                            x       y       z     vdW  Elec       q    Type
REMARK                         _______ _______ _______ _____ _____    ______ ____
ROOT
ATOM      2  O   UNL     1     -12.881   9.791  20.798  0.00  0.00    -0.267 OA
ATOM      3  O   UNL     1     -14.597  11.933  16.494  0.00  0.00    -0.269 OA
ATOM      4  N   UNL     1     -11.569  10.117  18.898  0.00  0.00    -0.311 N 
ATOM      5  N   UNL     1     -12.302  11.592  16.202  0.00  0.00    -0.296 N 
ATOM      7  C   UNL     1     -10.900  12.448  18.069  0.00  0.00    +0.027 C 
ATOM      8  C   UNL     1     -10.186  10.450  16.820  0.00  0.00    +0.054 C 
ATOM      9  C   UNL     1      -9.688  11.736  17.478  0.00  0.00    +0.018 C 
ATOM     10  C   UNL     1     -11.507  11.562  19.165  0.00  0.00    +0.130 C 
ATOM     11  C   UNL     1     -11.917  12.781  16.963  0.00  0.00    +0.113 C 
ATOM     12  C   UNL     1     -11.174  10.798  15.687  0.00  0.00    +0.117 C 
ATOM     13  C   UNL     1     -10.870   9.549  17.830  0.00  0.00    +0.027 A 
ATOM     14  C   UNL     1     -10.840   8.216  17.677  0.00  0.00    +0.022 A 
ATOM     15  C   UNL     1     -12.279   9.331  19.826  0.00  0.00    +0.259 A 
ATOM     16  C   UNL     1     -13.654  11.271  16.065  0.00  0.00    +0.253 C 
ATOM     17  C   UNL     1     -12.266   7.844  19.599  0.00  0.00    +0.047 A 
ATOM     18  C   UNL     1     -11.555   7.354  18.574  0.00  0.00    +0.015 A 
ENDROOT
BRANCH  17  19
ATOM     19  C   UNL     1     -13.031   6.935  20.470  0.00  0.00    -0.008 A 
ATOM     21  C   UNL     1     -14.414   6.788  20.334  0.00  0.00    -0.026 A 
ATOM     22  C   UNL     1     -12.350   6.209  21.449  0.00  0.00    +0.009 A 
ATOM     25  C   UNL     1     -15.110   5.919  21.174  0.00  0.00    +0.005 A 
ATOM     27  C   UNL     1     -13.047   5.340  22.289  0.00  0.00    +0.001 A 
ATOM     29  C   UNL     1     -14.427   5.195  22.151  0.00  0.00    +0.000 A 
BRANCH  21  24
ATOM     24  C   UNL     1     -15.179   7.548  19.299  0.00  0.00    +0.119 C 
BRANCH  24   6
ATOM      6  N   UNL     1     -16.039   8.574  19.889  0.00  0.00    -0.304 NA
ATOM     30  C   UNL     1     -17.436   8.140  19.873  0.00  0.00    +0.104 C 
ATOM     31  C   UNL     1     -15.888   9.840  19.172  0.00  0.00    +0.104 C 
ENDBRANCH  24   6
ENDBRANCH  21  24
ENDBRANCH  17  19
BRANCH  16  20
ATOM      1  S   UNL     1     -14.348  10.078  13.700  0.00  0.00    -0.092 S 
ATOM     20  C   UNL     1     -14.000  10.024  15.373  0.00  0.00    +0.074 A 
ATOM     23  C   UNL     1     -14.092   8.754  15.888  0.00  0.00    +0.021 A 
ATOM     26  C   UNL     1     -14.456   7.804  14.891  0.00  0.00    +0.008 A 
ATOM     28  C   UNL     1     -14.625   8.389  13.656  0.00  0.00    +0.046 A 
ENDBRANCH  16  20
TORSDOF 4
ENDMDL
MODEL 4
REMARK VINA RESULT:      -6.2     33.657     36.033
REMARK  Name = 11885228
REMARK  6 active torsions:
REMARK  status: ('A' for Active; 'I' for Inactive)
REMARK    1  A    between atoms: N_6  and  C_24
REMARK    2  A    between atoms: N_6  and  C_30
REMARK    3  A    between atoms: N_6  and  C_31
REMARK    4  A    between atoms: C_16  and  C_20
REMARK    5  A    between atoms: C_17  and  C_19
REMARK    6  A    between atoms: C_21  and  C_24
REMARK                            x       y       z     vdW  Elec       q    Type
REMARK                         _______ _______ _______ _____ _____    ______ ____
ROOT
ATOM      2  O   UNL     1       9.449  -9.411  32.552  0.00  0.00    -0.267 OA
ATOM      3  O   UNL     1       9.081  -7.937  37.426  0.00  0.00    -0.269 OA
ATOM      4  N   UNL     1       8.697  -7.307  33.219  0.00  0.00    -0.311 N 
ATOM      5  N   UNL     1       8.570  -6.065  36.120  0.00  0.00    -0.296 N 
ATOM      7  C   UNL     1      10.233  -5.585  34.334  0.00  0.00    +0.027 C 
ATOM      8  C   UNL     1       7.856  -5.055  33.968  0.00  0.00    +0.054 C 
ATOM      9  C   UNL     1       9.282  -4.555  33.733  0.00  0.00    +0.018 C 
ATOM     10  C   UNL     1      10.066  -6.910  33.579  0.00  0.00    +0.130 C 
ATOM     11  C   UNL     1       9.970  -5.740  35.844  0.00  0.00    +0.113 C 
ATOM     12  C   UNL     1       7.591  -5.169  35.483  0.00  0.00    +0.117 C 
ATOM     13  C   UNL     1       7.635  -6.404  33.312  0.00  0.00    +0.027 A 
ATOM     14  C   UNL     1       6.418  -6.747  32.862  0.00  0.00    +0.022 A 
ATOM     15  C   UNL     1       8.533  -8.598  32.682  0.00  0.00    +0.259 A 
ATOM     16  C   UNL     1       8.264  -7.187  36.892  0.00  0.00    +0.253 C 
ATOM     17  C   UNL     1       7.146  -8.969  32.231  0.00  0.00    +0.047 A 
ATOM     18  C   UNL     1       6.173  -8.052  32.319  0.00  0.00    +0.015 A 
ENDROOT
BRANCH  17  19
ATOM     19  C   UNL     1       6.847 -10.317  31.717  0.00  0.00    -0.008 A 
ATOM     21  C   UNL     1       6.419 -11.341  32.564  0.00  0.00    -0.026 A 
ATOM     22  C   UNL     1       7.000 -10.566  30.351  0.00  0.00    +0.009 A 
ATOM     25  C   UNL     1       6.144 -12.607  32.048  0.00  0.00    +0.005 A 
ATOM     27  C   UNL     1       6.725 -11.832  29.835  0.00  0.00    +0.001 A 
ATOM     29  C   UNL     1       6.297 -12.853  30.683  0.00  0.00    +0.000 A 
BRANCH  21  24
ATOM     24  C   UNL     1       6.244 -11.115  34.031  0.00  0.00    +0.119 C 
BRANCH  24   6
ATOM      6  N   UNL     1       5.279 -12.041  34.624  0.00  0.00    -0.304 NA
ATOM     30  C   UNL     1       3.960 -11.416  34.714  0.00  0.00    +0.104 C 
ATOM     31  C   UNL     1       5.732 -12.473  35.946  0.00  0.00    +0.104 C 
ENDBRANCH  24   6
ENDBRANCH  21  24
ENDBRANCH  17  19
BRANCH  16  20
ATOM      1  S   UNL     1       5.997  -6.852  38.390  0.00  0.00    -0.092 S 
ATOM     20  C   UNL     1       6.851  -7.534  37.076  0.00  0.00    +0.074 A 
ATOM     23  C   UNL     1       6.066  -8.365  36.315  0.00  0.00    +0.021 A 
ATOM     26  C   UNL     1       4.736  -8.446  36.819  0.00  0.00    +0.008 A 
ATOM     28  C   UNL     1       4.561  -7.672  37.944  0.00  0.00    +0.046 A 
ENDBRANCH  16  20
TORSDOF 4
ENDMDL
MODEL 5
REMARK VINA RESULT:      -6.1     26.216     29.329
REMARK  Name = 11885228
REMARK  6 active torsions:
REMARK  status: ('A' for Active; 'I' for Inactive)
REMARK    1  A    between atoms: N_6  and  C_24
REMARK    2  A    between atoms: N_6  and  C_30
REMARK    3  A    between atoms: N_6  and  C_31
REMARK    4  A    between atoms: C_16  and  C_20
REMARK    5  A    between atoms: C_17  and  C_19
REMARK    6  A    between atoms: C_21  and  C_24
REMARK                            x       y       z     vdW  Elec       q    Type
REMARK                         _______ _______ _______ _____ _____    ______ ____
ROOT
ATOM      2  O   UNL     1      -6.738 -12.748  14.871  0.00  0.00    -0.267 OA
ATOM      3  O   UNL     1     -11.517 -11.622  16.271  0.00  0.00    -0.269 OA
ATOM      4  N   UNL     1      -7.319 -11.955  16.986  0.00  0.00    -0.311 N 
ATOM      5  N   UNL     1     -10.187 -11.386  18.181  0.00  0.00    -0.296 N 
ATOM      7  C   UNL     1      -8.710 -13.333  18.640  0.00  0.00    +0.027 C 
ATOM      8  C   UNL     1      -7.970 -11.065  19.250  0.00  0.00    +0.054 C 
ATOM      9  C   UNL     1      -7.985 -12.522  19.709  0.00  0.00    +0.018 C 
ATOM     10  C   UNL     1      -7.909 -13.256  17.334  0.00  0.00    +0.130 C 
ATOM     11  C   UNL     1     -10.152 -12.820  18.466  0.00  0.00    +0.113 C 
ATOM     12  C   UNL     1      -9.419 -10.550  19.117  0.00  0.00    +0.117 C 
ATOM     13  C   UNL     1      -7.257 -10.918  17.919  0.00  0.00    +0.027 A 
ATOM     14  C   UNL     1      -6.606  -9.782  17.622  0.00  0.00    +0.022 A 
ATOM     15  C   UNL     1      -6.734 -11.846  15.710  0.00  0.00    +0.259 A 
ATOM     16  C   UNL     1     -10.873 -10.926  17.054  0.00  0.00    +0.253 C 
ATOM     17  C   UNL     1      -6.053 -10.543  15.390  0.00  0.00    +0.047 A 
ATOM     18  C   UNL     1      -6.001  -9.594  16.335  0.00  0.00    +0.015 A 
ENDROOT
BRANCH  17  19
ATOM     19  C   UNL     1      -5.467 -10.296  14.062  0.00  0.00    -0.008 A 
ATOM     21  C   UNL     1      -4.155 -10.672  13.764  0.00  0.00    -0.026 A 
ATOM     22  C   UNL     1      -6.247  -9.671  13.087  0.00  0.00    +0.009 A 
ATOM     25  C   UNL     1      -3.627 -10.424  12.497  0.00  0.00    +0.005 A 
ATOM     27  C   UNL     1      -5.719  -9.423  11.820  0.00  0.00    +0.001 A 
ATOM     29  C   UNL     1      -4.409  -9.800  11.524  0.00  0.00    +0.000 A 
BRANCH  21  24
ATOM     24  C   UNL     1      -3.287 -11.341  14.780  0.00  0.00    +0.119 C 
BRANCH  24   6
ATOM      6  N   UNL     1      -1.871 -11.297  14.415  0.00  0.00    -0.304 NA
ATOM     30  C   UNL     1      -1.385 -12.637  14.089  0.00  0.00    +0.104 C 
ATOM     31  C   UNL     1      -1.082 -10.717  15.503  0.00  0.00    +0.104 C 
ENDBRANCH  24   6
ENDBRANCH  21  24
ENDBRANCH  17  19
BRANCH  16  20
ATOM      1  S   UNL     1      -9.675  -8.939  15.601  0.00  0.00    -0.092 S 
ATOM     20  C   UNL     1     -10.815  -9.492  16.748  0.00  0.00    +0.074 A 
ATOM     23  C   UNL     1     -11.575  -8.473  17.267  0.00  0.00    +0.021 A 
ATOM     26  C   UNL     1     -11.216  -7.210  16.713  0.00  0.00    +0.008 A 
ATOM     28  C   UNL     1     -10.197  -7.319  15.794  0.00  0.00    +0.046 A 
ENDBRANCH  16  20
TORSDOF 4
ENDMDL
MODEL 6
REMARK VINA RESULT:      -6.1     24.833     27.208
REMARK  Name = 11885228
REMARK  6 active torsions:
REMARK  status: ('A' for Active; 'I' for Inactive)
REMARK    1  A    between atoms: N_6  and  C_24
REMARK    2  A    between atoms: N_6  and  C_30
REMARK    3  A    between atoms: N_6  and  C_31
REMARK    4  A    between atoms: C_16  and  C_20
REMARK    5  A    between atoms: C_17  and  C_19
REMARK    6  A    between atoms: C_21  and  C_24
REMARK                            x       y       z     vdW  Elec       q    Type
REMARK                         _______ _______ _______ _____ _____    ______ ____
ROOT
ATOM      2  O   UNL     1      -3.416 -10.453  15.480  0.00  0.00    -0.267 OA
ATOM      3  O   UNL     1      -5.521  -8.238  11.390  0.00  0.00    -0.269 OA
ATOM      4  N   UNL     1      -4.086 -11.617  13.573  0.00  0.00    -0.311 N 
ATOM      5  N   UNL     1      -5.208 -10.491  10.844  0.00  0.00    -0.296 N 
ATOM      7  C   UNL     1      -2.918 -11.342  11.309  0.00  0.00    +0.027 C 
ATOM      8  C   UNL     1      -4.851 -12.853  11.517  0.00  0.00    +0.054 C 
ATOM      9  C   UNL     1      -3.400 -12.765  11.046  0.00  0.00    +0.018 C 
ATOM     10  C   UNL     1      -2.940 -11.086  12.822  0.00  0.00    +0.130 C 
ATOM     11  C   UNL     1      -3.786 -10.331  10.537  0.00  0.00    +0.113 C 
ATOM     12  C   UNL     1      -5.718 -11.865  10.710  0.00  0.00    +0.117 C 
ATOM     13  C   UNL     1      -4.966 -12.536  12.996  0.00  0.00    +0.027 A 
ATOM     14  C   UNL     1      -5.932 -13.102  13.736  0.00  0.00    +0.022 A 
ATOM     15  C   UNL     1      -4.191 -11.234  14.925  0.00  0.00    +0.259 A 
ATOM     16  C   UNL     1      -5.945  -9.387  11.278  0.00  0.00    +0.253 C 
ATOM     17  C   UNL     1      -5.313 -11.850  15.715  0.00  0.00    +0.047 A 
ATOM     18  C   UNL     1      -6.108 -12.747  15.115  0.00  0.00    +0.015 A 
ENDROOT
BRANCH  17  19
ATOM     19  C   UNL     1      -5.555 -11.470  17.117  0.00  0.00    -0.008 A 
ATOM     21  C   UNL     1      -6.505 -10.503  17.456  0.00  0.00    -0.026 A 
ATOM     22  C   UNL     1      -4.813 -12.094  18.122  0.00  0.00    +0.009 A 
ATOM     25  C   UNL     1      -6.711 -10.164  18.793  0.00  0.00    +0.005 A 
ATOM     27  C   UNL     1      -5.019 -11.754  19.459  0.00  0.00    +0.001 A 
ATOM     29  C   UNL     1      -5.969 -10.789  19.795  0.00  0.00    +0.000 A 
BRANCH  21  24
ATOM     24  C   UNL     1      -7.318  -9.811  16.410  0.00  0.00    +0.119 C 
BRANCH  24   6
ATOM      6  N   UNL     1      -8.716  -9.650  16.812  0.00  0.00    -0.304 NA
ATOM     30  C   UNL     1      -9.495 -10.828  16.433  0.00  0.00    +0.104 C 
ATOM     31  C   UNL     1      -9.284  -8.445  16.208  0.00  0.00    +0.104 C 
ENDBRANCH  24   6
ENDBRANCH  21  24
ENDBRANCH  17  19
BRANCH  16  20
ATOM      1  S   UNL     1      -8.565  -9.403  10.481  0.00  0.00    -0.092 S 
ATOM     20  C   UNL     1      -7.345  -9.600  11.662  0.00  0.00    +0.074 A 
ATOM     23  C   UNL     1      -7.854  -9.954  12.887  0.00  0.00    +0.021 A 
ATOM     26  C   UNL     1      -9.274 -10.065  12.859  0.00  0.00    +0.008 A 
ATOM     28  C   UNL     1      -9.790  -9.792  11.612  0.00  0.00    +0.046 A 
ENDBRANCH  16  20
TORSDOF 4
ENDMDL
MODEL 7
REMARK VINA RESULT:      -6.0     24.489     26.726
REMARK  Name = 11885228
REMARK  6 active torsions:
REMARK  status: ('A' for Active; 'I' for Inactive)
REMARK    1  A    between atoms: N_6  and  C_24
REMARK    2  A    between atoms: N_6  and  C_30
REMARK    3  A    between atoms: N_6  and  C_31
REMARK    4  A    between atoms: C_16  and  C_20
REMARK    5  A    between atoms: C_17  and  C_19
REMARK    6  A    between atoms: C_21  and  C_24
REMARK                            x       y       z     vdW  Elec       q    Type
REMARK                         _______ _______ _______ _____ _____    ______ ____
ROOT
ATOM      2  O   UNL     1      -6.501 -10.084  14.325  0.00  0.00    -0.267 OA
ATOM      3  O   UNL     1      -7.244 -12.657   9.979  0.00  0.00    -0.269 OA
ATOM      4  N   UNL     1      -5.161  -9.847  12.430  0.00  0.00    -0.311 N 
ATOM      5  N   UNL     1      -5.513 -11.138   9.569  0.00  0.00    -0.296 N 
ATOM      7  C   UNL     1      -6.024  -8.803  10.255  0.00  0.00    +0.027 C 
ATOM      8  C   UNL     1      -3.711  -9.637  10.383  0.00  0.00    +0.054 C 
ATOM      9  C   UNL     1      -4.566  -8.422  10.024  0.00  0.00    +0.018 C 
ATOM     10  C   UNL     1      -6.227  -9.099  11.747  0.00  0.00    +0.130 C 
ATOM     11  C   UNL     1      -6.412 -10.001   9.368  0.00  0.00    +0.113 C 
ATOM     12  C   UNL     1      -4.080 -10.819   9.462  0.00  0.00    +0.117 C 
ATOM     13  C   UNL     1      -3.915 -10.040  11.831  0.00  0.00    +0.027 A 
ATOM     14  C   UNL     1      -2.917 -10.617  12.519  0.00  0.00    +0.022 A 
ATOM     15  C   UNL     1      -5.426 -10.264  13.749  0.00  0.00    +0.259 A 
ATOM     16  C   UNL     1      -6.047 -12.388   9.890  0.00  0.00    +0.253 C 
ATOM     17  C   UNL     1      -4.303 -10.951  14.477  0.00  0.00    +0.047 A 
ATOM     18  C   UNL     1      -3.120 -11.083  13.861  0.00  0.00    +0.015 A 
ENDROOT
BRANCH  17  19
ATOM     19  C   UNL     1      -4.492 -11.488  15.836  0.00  0.00    -0.008 A 
ATOM     21  C   UNL     1      -4.896 -12.808  16.048  0.00  0.00    -0.026 A 
ATOM     22  C   UNL     1      -4.260 -10.650  16.929  0.00  0.00    +0.009 A 
ATOM     25  C   UNL     1      -5.067 -13.287  17.346  0.00  0.00    +0.005 A 
ATOM     27  C   UNL     1      -4.432 -11.130  18.228  0.00  0.00    +0.001 A 
ATOM     29  C   UNL     1      -4.835 -12.449  18.437  0.00  0.00    +0.000 A 
BRANCH  21  24
ATOM     24  C   UNL     1      -5.156 -13.735  14.904  0.00  0.00    +0.119 C 
BRANCH  24   6
ATOM      6  N   UNL     1      -4.568 -15.057  15.119  0.00  0.00    -0.304 NA
ATOM     30  C   UNL     1      -3.152 -15.053  14.751  0.00  0.00    +0.104 C 
ATOM     31  C   UNL     1      -5.294 -16.069  14.351  0.00  0.00    +0.104 C 
ENDBRANCH  24   6
ENDBRANCH  21  24
ENDBRANCH  17  19
BRANCH  16  20
ATOM      1  S   UNL     1      -4.770 -14.614   8.936  0.00  0.00    -0.092 S 
ATOM     20  C   UNL     1      -5.115 -13.485  10.171  0.00  0.00    +0.074 A 
ATOM     23  C   UNL     1      -4.439 -13.758  11.335  0.00  0.00    +0.021 A 
ATOM     26  C   UNL     1      -3.622 -14.919  11.213  0.00  0.00    +0.008 A 
ATOM     28  C   UNL     1      -3.707 -15.482   9.960  0.00  0.00    +0.046 A 
ENDBRANCH  16  20
TORSDOF 4
ENDMDL
MODEL 8
REMARK VINA RESULT:      -6.0     24.142     28.987
REMARK  Name = 11885228
REMARK  6 active torsions:
REMARK  status: ('A' for Active; 'I' for Inactive)
REMARK    1  A    between atoms: N_6  and  C_24
REMARK    2  A    between atoms: N_6  and  C_30
REMARK    3  A    between atoms: N_6  and  C_31
REMARK    4  A    between atoms: C_16  and  C_20
REMARK    5  A    between atoms: C_17  and  C_19
REMARK    6  A    between atoms: C_21  and  C_24
REMARK                            x       y       z     vdW  Elec       q    Type
REMARK                         _______ _______ _______ _____ _____    ______ ____
ROOT
ATOM      2  O   UNL     1      16.568  -5.577  25.708  0.00  0.00    -0.267 OA
ATOM      3  O   UNL     1      14.500  -5.212  30.361  0.00  0.00    -0.269 OA
ATOM      4  N   UNL     1      17.741  -5.969  27.685  0.00  0.00    -0.311 N 
ATOM      5  N   UNL     1      16.673  -6.024  30.657  0.00  0.00    -0.296 N 
ATOM      7  C   UNL     1      17.240  -7.966  29.211  0.00  0.00    +0.027 C 
ATOM      8  C   UNL     1      18.992  -6.353  29.836  0.00  0.00    +0.054 C 
ATOM      9  C   UNL     1      18.703  -7.838  29.623  0.00  0.00    +0.018 C 
ATOM     10  C   UNL     1      17.042  -7.249  27.869  0.00  0.00    +0.130 C 
ATOM     11  C   UNL     1      16.323  -7.401  30.311  0.00  0.00    +0.113 C 
ATOM     12  C   UNL     1      18.096  -5.808  30.967  0.00  0.00    +0.117 C 
ATOM     13  C   UNL     1      18.745  -5.561  28.566  0.00  0.00    +0.027 A 
ATOM     14  C   UNL     1      19.455  -4.450  28.312  0.00  0.00    +0.022 A 
ATOM     15  C   UNL     1      17.422  -5.234  26.527  0.00  0.00    +0.259 A 
ATOM     16  C   UNL     1      15.689  -5.034  30.619  0.00  0.00    +0.253 C 
ATOM     17  C   UNL     1      18.203  -3.969  26.295  0.00  0.00    +0.047 A 
ATOM     18  C   UNL     1      19.173  -3.642  27.160  0.00  0.00    +0.015 A 
ENDROOT
BRANCH  17  19
ATOM     19  C   UNL     1      17.906  -3.089  25.152  0.00  0.00    -0.008 A 
ATOM     21  C   UNL     1      18.395  -3.366  23.873  0.00  0.00    -0.026 A 
ATOM     22  C   UNL     1      17.118  -1.955  25.362  0.00  0.00    +0.009 A 
ATOM     25  C   UNL     1      18.097  -2.514  22.810  0.00  0.00    +0.005 A 
ATOM     27  C   UNL     1      16.821  -1.103  24.298  0.00  0.00    +0.001 A 
ATOM     29  C   UNL     1      17.310  -1.382  23.022  0.00  0.00    +0.000 A 
BRANCH  21  24
ATOM     24  C   UNL     1      19.242  -4.569  23.608  0.00  0.00    +0.119 C 
BRANCH  24   6
ATOM      6  N   UNL     1      18.774  -5.332  22.451  0.00  0.00    -0.304 NA
ATOM     30  C   UNL     1      18.111  -6.561  22.884  0.00  0.00    +0.104 C 
ATOM     31  C   UNL     1      19.891  -5.641  21.557  0.00  0.00    +0.104 C 
ENDBRANCH  24   6
ENDBRANCH  21  24
ENDBRANCH  17  19
BRANCH  16  20
ATOM      1  S   UNL     1      15.964  -3.041  32.477  0.00  0.00    -0.092 S 
ATOM     20  C   UNL     1      16.093  -3.649  30.884  0.00  0.00    +0.074 A 
ATOM     23  C   UNL     1      16.585  -2.715  30.005  0.00  0.00    +0.021 A 
ATOM     26  C   UNL     1      16.863  -1.475  30.649  0.00  0.00    +0.008 A 
ATOM     28  C   UNL     1      16.572  -1.515  31.995  0.00  0.00    +0.046 A 
ENDBRANCH  16  20
TORSDOF 4
ENDMDL
MODEL 9
REMARK VINA RESULT:      -5.9     28.323     31.276
REMARK  Name = 11885228
REMARK  6 active torsions:
REMARK  status: ('A' for Active; 'I' for Inactive)
REMARK    1  A    between atoms: N_6  and  C_24
REMARK    2  A    between atoms: N_6  and  C_30
REMARK    3  A    between atoms: N_6  and  C_31
REMARK    4  A    between atoms: C_16  and  C_20
REMARK    5  A    between atoms: C_17  and  C_19
REMARK    6  A    between atoms: C_21  and  C_24
REMARK                            x       y       z     vdW  Elec       q    Type
REMARK                         _______ _______ _______ _____ _____    ______ ____
ROOT
ATOM      2  O   UNL     1     -11.302  -9.462  18.948  0.00  0.00    -0.267 OA
ATOM      3  O   UNL     1      -6.476 -10.548  20.212  0.00  0.00    -0.269 OA
ATOM      4  N   UNL     1     -10.214 -11.436  18.346  0.00  0.00    -0.311 N 
ATOM      5  N   UNL     1      -7.337 -12.452  19.162  0.00  0.00    -0.296 N 
ATOM      7  C   UNL     1      -9.528 -13.210  20.063  0.00  0.00    +0.027 C 
ATOM      8  C   UNL     1      -9.005 -13.541  17.680  0.00  0.00    +0.054 C 
ATOM      9  C   UNL     1      -9.662 -14.186  18.900  0.00  0.00    +0.018 C 
ATOM     10  C   UNL     1     -10.307 -11.931  19.727  0.00  0.00    +0.130 C 
ATOM     11  C   UNL     1      -8.043 -12.924  20.354  0.00  0.00    +0.113 C 
ATOM     12  C   UNL     1      -7.509 -13.296  17.968  0.00  0.00    +0.117 C 
ATOM     13  C   UNL     1      -9.675 -12.227  17.329  0.00  0.00    +0.027 A 
ATOM     14  C   UNL     1      -9.712 -11.805  16.055  0.00  0.00    +0.022 A 
ATOM     15  C   UNL     1     -10.786 -10.175  18.085  0.00  0.00    +0.259 A 
ATOM     16  C   UNL     1      -6.622 -11.254  19.216  0.00  0.00    +0.253 C 
ATOM     17  C   UNL     1     -10.770  -9.710  16.654  0.00  0.00    +0.047 A 
ATOM     18  C   UNL     1     -10.264 -10.525  15.718  0.00  0.00    +0.015 A 
ENDROOT
BRANCH  17  19
ATOM     19  C   UNL     1     -11.281  -8.381  16.280  0.00  0.00    -0.008 A 
ATOM     21  C   UNL     1     -12.635  -8.170  16.010  0.00  0.00    -0.026 A 
ATOM     22  C   UNL     1     -10.383  -7.314  16.195  0.00  0.00    +0.009 A 
ATOM     25  C   UNL     1     -13.089  -6.900  15.658  0.00  0.00    +0.005 A 
ATOM     27  C   UNL     1     -10.838  -6.043  15.841  0.00  0.00    +0.001 A 
ATOM     29  C   UNL     1     -12.191  -5.836  15.573  0.00  0.00    +0.000 A 
BRANCH  21  24
ATOM     24  C   UNL     1     -13.627  -9.286  16.089  0.00  0.00    +0.119 C 
BRANCH  24   6
ATOM      6  N   UNL     1     -14.845  -8.895  16.799  0.00  0.00    -0.304 NA
ATOM     30  C   UNL     1     -14.747  -9.251  18.215  0.00  0.00    +0.104 C 
ATOM     31  C   UNL     1     -16.015  -9.529  16.192  0.00  0.00    +0.104 C 
ENDBRANCH  24   6
ENDBRANCH  21  24
ENDBRANCH  17  19
BRANCH  16  20
ATOM      1  S   UNL     1      -4.403 -11.249  17.611  0.00  0.00    -0.092 S 
ATOM     20  C   UNL     1      -6.000 -10.765  17.980  0.00  0.00    +0.074 A 
ATOM     23  C   UNL     1      -6.532  -9.936  17.023  0.00  0.00    +0.021 A 
ATOM     26  C   UNL     1      -5.610  -9.691  15.964  0.00  0.00    +0.008 A 
ATOM     28  C   UNL     1      -4.414 -10.345  16.157  0.00  0.00    +0.046 A 
ENDBRANCH  16  20
TORSDOF 4
ENDMDL
MODEL 10
REMARK VINA RESULT:      -5.8      4.817      8.201
REMARK  Name = 11885228
REMARK  6 active torsions:
REMARK  status: ('A' for Active; 'I' for Inactive)
REMARK    1  A    between atoms: N_6  and  C_24
REMARK    2  A    between atoms: N_6  and  C_30
REMARK    3  A    between atoms: N_6  and  C_31
REMARK    4  A    between atoms: C_16  and  C_20
REMARK    5  A    between atoms: C_17  and  C_19
REMARK    6  A    between atoms: C_21  and  C_24
REMARK                            x       y       z     vdW  Elec       q    Type
REMARK                         _______ _______ _______ _____ _____    ______ ____
ROOT
ATOM      2  O   UNL     1      12.545   7.417   3.373  0.00  0.00    -0.267 OA
ATOM      3  O   UNL     1       8.760   9.780   5.854  0.00  0.00    -0.269 OA
ATOM      4  N   UNL     1      11.639   6.659   5.384  0.00  0.00    -0.311 N 
ATOM      5  N   UNL     1       9.178   7.790   7.010  0.00  0.00    -0.296 N 
ATOM      7  C   UNL     1       9.243   5.767   5.565  0.00  0.00    +0.027 C 
ATOM      8  C   UNL     1      10.665   5.883   7.572  0.00  0.00    +0.054 C 
ATOM      9  C   UNL     1       9.784   4.955   6.737  0.00  0.00    +0.018 C 
ATOM     10  C   UNL     1      10.421   6.215   4.690  0.00  0.00    +0.130 C 
ATOM     11  C   UNL     1       8.415   6.960   6.078  0.00  0.00    +0.113 C 
ATOM     12  C   UNL     1       9.817   7.053   8.113  0.00  0.00    +0.117 C 
ATOM     13  C   UNL     1      11.816   6.430   6.750  0.00  0.00    +0.027 A 
ATOM     14  C   UNL     1      12.984   6.732   7.339  0.00  0.00    +0.022 A 
ATOM     15  C   UNL     1      12.650   7.229   4.586  0.00  0.00    +0.259 A 
ATOM     16  C   UNL     1       9.293   9.162   6.774  0.00  0.00    +0.253 C 
ATOM     17  C   UNL     1      13.930   7.601   5.284  0.00  0.00    +0.047 A 
ATOM     18  C   UNL     1      14.053   7.331   6.592  0.00  0.00    +0.015 A 
ENDROOT
BRANCH  17  19
ATOM     19  C   UNL     1      15.027   8.264   4.560  0.00  0.00    -0.008 A 
ATOM     21  C   UNL     1      15.076   9.654   4.427  0.00  0.00    -0.026 A 
ATOM     22  C   UNL     1      16.036   7.478   3.998  0.00  0.00    +0.009 A 
ATOM     25  C   UNL     1      16.129  10.253   3.735  0.00  0.00    +0.005 A 
ATOM     27  C   UNL     1      17.087   8.078   3.306  0.00  0.00    +0.001 A 
ATOM     29  C   UNL     1      17.134   9.466   3.174  0.00  0.00    +0.000 A 
BRANCH  21  24
ATOM     24  C   UNL     1      14.016  10.530   5.013  0.00  0.00    +0.119 C 
BRANCH  24   6
ATOM      6  N   UNL     1      13.262  11.249   3.986  0.00  0.00    -0.304 NA
ATOM     30  C   UNL     1      13.353  12.692   4.202  0.00  0.00    +0.104 C 
ATOM     31  C   UNL     1      11.863  10.819   3.987  0.00  0.00    +0.104 C 
ENDBRANCH  24   6
ENDBRANCH  21  24
ENDBRANCH  17  19
BRANCH  16  20
ATOM      1  S   UNL     1       9.418  10.713   9.027  0.00  0.00    -0.092 S 
ATOM     20  C   UNL     1      10.138   9.949   7.679  0.00  0.00    +0.074 A 
ATOM     23  C   UNL     1      11.491  10.179   7.606  0.00  0.00    +0.021 A 
ATOM     26  C   UNL     1      11.947  10.999   8.678  0.00  0.00    +0.008 A 
ATOM     28  C   UNL     1      10.923  11.360   9.525  0.00  0.00    +0.046 A 
ENDBRANCH  16  20
TORSDOF 4
ENDMDL
