MODEL 1
REMARK VINA RESULT:      -7.4      0.000      0.000
REMARK  Name = 51137611
REMARK  8 active torsions:
REMARK  status: ('A' for Active; 'I' for Inactive)
REMARK    1  A    between atoms: S_1  and  C_22
REMARK    2  A    between atoms: S_1  and  C_24
REMARK    3  A    between atoms: O_4  and  C_23
REMARK    4  A    between atoms: O_4  and  C_25
REMARK    5  A    between atoms: N_7  and  C_14
REMARK    6  A    between atoms: C_10  and  C_15
REMARK    7  A    between atoms: C_14  and  C_16
REMARK    8  A    between atoms: C_19  and  C_23
REMARK                            x       y       z     vdW  Elec       q    Type
REMARK                         _______ _______ _______ _____ _____    ______ ____
ROOT
ATOM      7  N   UNL     1     -13.731   6.472  21.521  0.00  0.00    -0.297 NA
ATOM     10  C   UNL     1     -15.475   5.097  22.277  0.00  0.00    +0.092 C 
ATOM     11  C   UNL     1     -15.786   6.563  22.627  0.00  0.00    +0.029 C 
ATOM     12  C   UNL     1     -13.978   5.089  21.935  0.00  0.00    +0.097 C 
ATOM     13  C   UNL     1     -14.455   7.291  22.493  0.00  0.00    +0.085 C 
ENDROOT
BRANCH  10  15
ATOM      3  O   UNL     1     -15.856   4.549  24.633  0.00  0.00    -0.421 OA
ATOM      8  N   UNL     1     -16.152   2.827  23.237  0.00  0.00    -0.112 NA
ATOM      9  N   UNL     1     -16.397   2.382  24.523  0.00  0.00    -0.109 NA
ATOM     15  C   UNL     1     -15.839   4.097  23.349  0.00  0.00    +0.222 A 
ATOM     19  C   UNL     1     -16.212   3.422  25.304  0.00  0.00    +0.254 A 
BRANCH  19  23
ATOM     23  C   UNL     1     -16.338   3.529  26.763  0.00  0.00    +0.326 C 
BRANCH  23   4
ATOM      4  O   UNL     1     -16.402   2.227  27.352  0.00  0.00    -0.483 OA
BRANCH   4  25
ATOM      2  F   UNL     1     -13.968   1.628  32.243  0.00  0.00    -0.205 F 
ATOM     25  C   UNL     1     -15.797   2.078  28.568  0.00  0.00    +0.121 A 
ATOM     26  C   UNL     1     -15.137   3.158  29.156  0.00  0.00    +0.048 A 
ATOM     27  C   UNL     1     -15.840   0.847  29.222  0.00  0.00    +0.048 A 
ATOM     28  C   UNL     1     -14.519   3.006  30.397  0.00  0.00    +0.042 A 
ATOM     29  C   UNL     1     -15.222   0.695  30.463  0.00  0.00    +0.042 A 
ATOM     30  C   UNL     1     -14.563   1.774  31.050  0.00  0.00    +0.124 A 
ENDBRANCH   4  25
ENDBRANCH  23   4
ENDBRANCH  19  23
ENDBRANCH  10  15
BRANCH   7  14
ATOM     14  C   UNL     1     -12.313   6.792  21.474  0.00  0.00    +0.119 C 
BRANCH  14  16
ATOM     16  C   UNL     1     -11.968   7.636  20.276  0.00  0.00    -0.033 A 
ATOM     17  C   UNL     1     -11.549   7.028  19.092  0.00  0.00    +0.007 A 
ATOM     18  C   UNL     1     -12.065   9.025  20.348  0.00  0.00    +0.007 A 
ATOM     20  C   UNL     1     -11.230   7.809  17.981  0.00  0.00    +0.027 A 
ATOM     21  C   UNL     1     -11.746   9.806  19.238  0.00  0.00    +0.027 A 
ATOM     22  C   UNL     1     -11.329   9.198  18.055  0.00  0.00    +0.088 A 
BRANCH  22   1
ATOM      1  S   UNL     1     -10.932  10.176  16.663  0.00  0.00    -0.006 S 
ATOM      5  O   UNL     1     -12.088  10.989  16.312  0.00  0.00    -0.170 OA
ATOM      6  O   UNL     1      -9.649  10.814  16.915  0.00  0.00    -0.170 OA
ATOM     24  C   UNL     1     -10.709   8.999  15.347  0.00  0.00    +0.200 C 
ENDBRANCH  22   1
ENDBRANCH  14  16
ENDBRANCH   7  14
TORSDOF 7
ENDMDL
MODEL 2
REMARK VINA RESULT:      -7.0     31.517     34.366
REMARK  Name = 51137611
REMARK  8 active torsions:
REMARK  status: ('A' for Active; 'I' for Inactive)
REMARK    1  A    between atoms: S_1  and  C_22
REMARK    2  A    between atoms: S_1  and  C_24
REMARK    3  A    between atoms: O_4  and  C_23
REMARK    4  A    between atoms: O_4  and  C_25
REMARK    5  A    between atoms: N_7  and  C_14
REMARK    6  A    between atoms: C_10  and  C_15
REMARK    7  A    between atoms: C_14  and  C_16
REMARK    8  A    between atoms: C_19  and  C_23
REMARK                            x       y       z     vdW  Elec       q    Type
REMARK                         _______ _______ _______ _____ _____    ______ ____
ROOT
ATOM      7  N   UNL     1      18.027   7.555  21.502  0.00  0.00    -0.297 NA
ATOM     10  C   UNL     1      19.851   6.921  22.833  0.00  0.00    +0.092 C 
ATOM     11  C   UNL     1      19.749   8.456  22.796  0.00  0.00    +0.029 C 
ATOM     12  C   UNL     1      18.967   6.446  21.672  0.00  0.00    +0.097 C 
ATOM     13  C   UNL     1      18.846   8.762  21.609  0.00  0.00    +0.085 C 
ENDROOT
BRANCH  10  15
ATOM      3  O   UNL     1      21.841   6.332  21.535  0.00  0.00    -0.421 OA
ATOM      8  N   UNL     1      22.030   5.927  23.726  0.00  0.00    -0.112 NA
ATOM      9  N   UNL     1      23.213   5.551  23.119  0.00  0.00    -0.109 NA
ATOM     15  C   UNL     1      21.258   6.376  22.764  0.00  0.00    +0.222 A 
ATOM     19  C   UNL     1      23.058   5.806  21.840  0.00  0.00    +0.254 A 
BRANCH  19  23
ATOM     23  C   UNL     1      23.994   5.608  20.726  0.00  0.00    +0.326 C 
BRANCH  23   4
ATOM      4  O   UNL     1      23.766   4.340  20.106  0.00  0.00    -0.483 OA
BRANCH   4  25
ATOM      2  F   UNL     1      26.293   0.018  22.373  0.00  0.00    -0.205 F 
ATOM     25  C   UNL     1      24.394   3.265  20.670  0.00  0.00    +0.121 A 
ATOM     26  C   UNL     1      23.696   2.073  20.869  0.00  0.00    +0.048 A 
ATOM     27  C   UNL     1      25.734   3.359  21.046  0.00  0.00    +0.048 A 
ATOM     28  C   UNL     1      24.337   0.977  21.444  0.00  0.00    +0.042 A 
ATOM     29  C   UNL     1      26.376   2.263  21.622  0.00  0.00    +0.042 A 
ATOM     30  C   UNL     1      25.677   1.072  21.820  0.00  0.00    +0.124 A 
ENDBRANCH   4  25
ENDBRANCH  23   4
ENDBRANCH  19  23
ENDBRANCH  10  15
BRANCH   7  14
ATOM     14  C   UNL     1      17.306   7.485  20.240  0.00  0.00    +0.119 C 
BRANCH  14  16
ATOM     16  C   UNL     1      15.815   7.470  20.445  0.00  0.00    -0.033 A 
ATOM     17  C   UNL     1      14.979   6.974  19.444  0.00  0.00    +0.007 A 
ATOM     18  C   UNL     1      15.269   7.950  21.634  0.00  0.00    +0.007 A 
ATOM     20  C   UNL     1      13.597   6.959  19.633  0.00  0.00    +0.027 A 
ATOM     21  C   UNL     1      13.888   7.936  21.824  0.00  0.00    +0.027 A 
ATOM     22  C   UNL     1      13.052   7.440  20.824  0.00  0.00    +0.088 A 
BRANCH  22   1
ATOM      1  S   UNL     1      11.321   7.418  21.062  0.00  0.00    -0.006 S 
ATOM      5  O   UNL     1      10.687   8.156  19.978  0.00  0.00    -0.170 OA
ATOM      6  O   UNL     1      10.924   6.044  21.331  0.00  0.00    -0.170 OA
ATOM     24  C   UNL     1      11.069   8.362  22.548  0.00  0.00    +0.200 C 
ENDBRANCH  22   1
ENDBRANCH  14  16
ENDBRANCH   7  14
TORSDOF 7
ENDMDL
MODEL 3
REMARK VINA RESULT:      -7.0      1.561      2.233
REMARK  Name = 51137611
REMARK  8 active torsions:
REMARK  status: ('A' for Active; 'I' for Inactive)
REMARK    1  A    between atoms: S_1  and  C_22
REMARK    2  A    between atoms: S_1  and  C_24
REMARK    3  A    between atoms: O_4  and  C_23
REMARK    4  A    between atoms: O_4  and  C_25
REMARK    5  A    between atoms: N_7  and  C_14
REMARK    6  A    between atoms: C_10  and  C_15
REMARK    7  A    between atoms: C_14  and  C_16
REMARK    8  A    between atoms: C_19  and  C_23
REMARK                            x       y       z     vdW  Elec       q    Type
REMARK                         _______ _______ _______ _____ _____    ______ ____
ROOT
ATOM      7  N   UNL     1     -15.034   5.817  22.267  0.00  0.00    -0.297 NA
ATOM     10  C   UNL     1     -15.841   3.827  23.210  0.00  0.00    +0.092 C 
ATOM     11  C   UNL     1     -17.020   4.658  22.675  0.00  0.00    +0.029 C 
ATOM     12  C   UNL     1     -14.665   4.812  23.266  0.00  0.00    +0.097 C 
ATOM     13  C   UNL     1     -16.459   6.062  22.487  0.00  0.00    +0.085 C 
ENDROOT
BRANCH  10  15
ATOM      3  O   UNL     1     -16.010   3.908  25.651  0.00  0.00    -0.421 OA
ATOM      8  N   UNL     1     -16.396   1.885  24.777  0.00  0.00    -0.112 NA
ATOM      9  N   UNL     1     -16.523   1.789  26.150  0.00  0.00    -0.109 NA
ATOM     15  C   UNL     1     -16.096   3.139  24.531  0.00  0.00    +0.222 A 
ATOM     19  C   UNL     1     -16.290   2.993  26.619  0.00  0.00    +0.254 A 
BRANCH  19  23
ATOM     23  C   UNL     1     -16.292   3.474  28.006  0.00  0.00    +0.326 C 
BRANCH  23   4
ATOM      4  O   UNL     1     -15.007   3.274  28.601  0.00  0.00    -0.483 OA
BRANCH   4  25
ATOM      2  F   UNL     1     -14.963   1.864  33.913  0.00  0.00    -0.205 F 
ATOM     25  C   UNL     1     -14.996   2.923  29.922  0.00  0.00    +0.121 A 
ATOM     26  C   UNL     1     -14.150   1.907  30.367  0.00  0.00    +0.048 A 
ATOM     27  C   UNL     1     -15.830   3.583  30.825  0.00  0.00    +0.048 A 
ATOM     28  C   UNL     1     -14.139   1.549  31.715  0.00  0.00    +0.042 A 
ATOM     29  C   UNL     1     -15.819   3.225  32.174  0.00  0.00    +0.042 A 
ATOM     30  C   UNL     1     -14.973   2.209  32.618  0.00  0.00    +0.124 A 
ENDBRANCH   4  25
ENDBRANCH  23   4
ENDBRANCH  19  23
ENDBRANCH  10  15
BRANCH   7  14
ATOM     14  C   UNL     1     -14.240   7.031  22.379  0.00  0.00    +0.119 C 
BRANCH  14  16
ATOM     16  C   UNL     1     -13.583   7.395  21.075  0.00  0.00    -0.033 A 
ATOM     17  C   UNL     1     -14.327   8.011  20.068  0.00  0.00    +0.007 A 
ATOM     18  C   UNL     1     -12.231   7.118  20.873  0.00  0.00    +0.007 A 
ATOM     20  C   UNL     1     -13.718   8.349  18.859  0.00  0.00    +0.027 A 
ATOM     21  C   UNL     1     -11.623   7.456  19.664  0.00  0.00    +0.027 A 
ATOM     22  C   UNL     1     -12.366   8.071  18.658  0.00  0.00    +0.088 A 
BRANCH  22   1
ATOM      1  S   UNL     1     -11.604   8.498  17.145  0.00  0.00    -0.006 S 
ATOM      5  O   UNL     1     -10.345   7.775  17.031  0.00  0.00    -0.170 OA
ATOM      6  O   UNL     1     -12.602   8.381  16.092  0.00  0.00    -0.170 OA
ATOM     24  C   UNL     1     -11.198  10.220  17.326  0.00  0.00    +0.200 C 
ENDBRANCH  22   1
ENDBRANCH  14  16
ENDBRANCH   7  14
TORSDOF 7
ENDMDL
MODEL 4
REMARK VINA RESULT:      -6.9     30.077     33.023
REMARK  Name = 51137611
REMARK  8 active torsions:
REMARK  status: ('A' for Active; 'I' for Inactive)
REMARK    1  A    between atoms: S_1  and  C_22
REMARK    2  A    between atoms: S_1  and  C_24
REMARK    3  A    between atoms: O_4  and  C_23
REMARK    4  A    between atoms: O_4  and  C_25
REMARK    5  A    between atoms: N_7  and  C_14
REMARK    6  A    between atoms: C_10  and  C_15
REMARK    7  A    between atoms: C_14  and  C_16
REMARK    8  A    between atoms: C_19  and  C_23
REMARK                            x       y       z     vdW  Elec       q    Type
REMARK                         _______ _______ _______ _____ _____    ______ ____
ROOT
ATOM      7  N   UNL     1      19.650   6.447  21.528  0.00  0.00    -0.297 NA
ATOM     10  C   UNL     1      17.407   6.844  20.969  0.00  0.00    +0.092 C 
ATOM     11  C   UNL     1      18.024   5.863  19.957  0.00  0.00    +0.029 C 
ATOM     12  C   UNL     1      18.611   7.466  21.689  0.00  0.00    +0.097 C 
ATOM     13  C   UNL     1      19.529   6.004  20.139  0.00  0.00    +0.085 C 
ENDROOT
BRANCH  10  15
ATOM      3  O   UNL     1      15.730   7.485  19.304  0.00  0.00    -0.421 OA
ATOM      8  N   UNL     1      16.281   9.126  20.720  0.00  0.00    -0.112 NA
ATOM      9  N   UNL     1      15.334   9.619  19.842  0.00  0.00    -0.109 NA
ATOM     15  C   UNL     1      16.481   7.877  20.368  0.00  0.00    +0.222 A 
ATOM     19  C   UNL     1      15.041   8.626  19.034  0.00  0.00    +0.254 A 
BRANCH  19  23
ATOM     23  C   UNL     1      14.096   8.582  17.910  0.00  0.00    +0.326 C 
BRANCH  23   4
ATOM      4  O   UNL     1      13.184   7.493  18.073  0.00  0.00    -0.483 OA
BRANCH   4  25
ATOM      2  F   UNL     1      10.045   7.580  22.583  0.00  0.00    -0.205 F 
ATOM     25  C   UNL     1      12.404   7.515  19.194  0.00  0.00    +0.121 A 
ATOM     26  C   UNL     1      11.552   8.595  19.431  0.00  0.00    +0.048 A 
ATOM     27  C   UNL     1      12.457   6.457  20.102  0.00  0.00    +0.048 A 
ATOM     28  C   UNL     1      10.756   8.616  20.576  0.00  0.00    +0.042 A 
ATOM     29  C   UNL     1      11.661   6.478  21.246  0.00  0.00    +0.042 A 
ATOM     30  C   UNL     1      10.810   7.558  21.483  0.00  0.00    +0.124 A 
ENDBRANCH   4  25
ENDBRANCH  23   4
ENDBRANCH  19  23
ENDBRANCH  10  15
BRANCH   7  14
ATOM     14  C   UNL     1      20.979   6.955  21.833  0.00  0.00    +0.119 C 
BRANCH  14  16
ATOM     16  C   UNL     1      22.026   5.879  21.739  0.00  0.00    -0.033 A 
ATOM     17  C   UNL     1      21.970   4.775  22.591  0.00  0.00    +0.007 A 
ATOM     18  C   UNL     1      23.053   5.984  20.801  0.00  0.00    +0.007 A 
ATOM     20  C   UNL     1      22.940   3.776  22.503  0.00  0.00    +0.027 A 
ATOM     21  C   UNL     1      24.023   4.986  20.714  0.00  0.00    +0.027 A 
ATOM     22  C   UNL     1      23.967   3.882  21.564  0.00  0.00    +0.088 A 
BRANCH  22   1
ATOM      1  S   UNL     1      25.180   2.630  21.453  0.00  0.00    -0.006 S 
ATOM      5  O   UNL     1      25.921   2.801  20.212  0.00  0.00    -0.170 OA
ATOM      6  O   UNL     1      25.893   2.584  22.721  0.00  0.00    -0.170 OA
ATOM     24  C   UNL     1      24.246   1.124  21.295  0.00  0.00    +0.200 C 
ENDBRANCH  22   1
ENDBRANCH  14  16
ENDBRANCH   7  14
TORSDOF 7
ENDMDL
MODEL 5
REMARK VINA RESULT:      -6.8     29.507     32.362
REMARK  Name = 51137611
REMARK  8 active torsions:
REMARK  status: ('A' for Active; 'I' for Inactive)
REMARK    1  A    between atoms: S_1  and  C_22
REMARK    2  A    between atoms: S_1  and  C_24
REMARK    3  A    between atoms: O_4  and  C_23
REMARK    4  A    between atoms: O_4  and  C_25
REMARK    5  A    between atoms: N_7  and  C_14
REMARK    6  A    between atoms: C_10  and  C_15
REMARK    7  A    between atoms: C_14  and  C_16
REMARK    8  A    between atoms: C_19  and  C_23
REMARK                            x       y       z     vdW  Elec       q    Type
REMARK                         _______ _______ _______ _____ _____    ______ ____
ROOT
ATOM      7  N   UNL     1      19.316   7.259  21.642  0.00  0.00    -0.297 NA
ATOM     10  C   UNL     1      17.454   7.547  20.246  0.00  0.00    +0.092 C 
ATOM     11  C   UNL     1      17.791   8.880  20.936  0.00  0.00    +0.029 C 
ATOM     12  C   UNL     1      18.221   6.489  21.051  0.00  0.00    +0.097 C 
ATOM     13  C   UNL     1      18.697   8.503  22.100  0.00  0.00    +0.085 C 
ENDROOT
BRANCH  10  15
ATOM      3  O   UNL     1      15.265   7.988  19.242  0.00  0.00    -0.421 OA
ATOM      8  N   UNL     1      15.254   6.356  20.772  0.00  0.00    -0.112 NA
ATOM      9  N   UNL     1      13.966   6.500  20.291  0.00  0.00    -0.109 NA
ATOM     15  C   UNL     1      15.978   7.245  20.132  0.00  0.00    +0.222 A 
ATOM     19  C   UNL     1      14.020   7.463  19.400  0.00  0.00    +0.254 A 
BRANCH  19  23
ATOM     23  C   UNL     1      12.949   8.033  18.572  0.00  0.00    +0.326 C 
BRANCH  23   4
ATOM      4  O   UNL     1      11.676   7.806  19.184  0.00  0.00    -0.483 OA
BRANCH   4  25
ATOM      2  F   UNL     1      10.630  10.642  23.774  0.00  0.00    -0.205 F 
ATOM     25  C   UNL     1      11.416   8.511  20.325  0.00  0.00    +0.121 A 
ATOM     26  C   UNL     1      10.778   7.890  21.399  0.00  0.00    +0.048 A 
ATOM     27  C   UNL     1      11.790   9.852  20.417  0.00  0.00    +0.048 A 
ATOM     28  C   UNL     1      10.512   8.610  22.564  0.00  0.00    +0.042 A 
ATOM     29  C   UNL     1      11.524  10.572  21.582  0.00  0.00    +0.042 A 
ATOM     30  C   UNL     1      10.886   9.951  22.655  0.00  0.00    +0.124 A 
ENDBRANCH   4  25
ENDBRANCH  23   4
ENDBRANCH  19  23
ENDBRANCH  10  15
BRANCH   7  14
ATOM     14  C   UNL     1      19.982   6.543  22.719  0.00  0.00    +0.119 C 
BRANCH  14  16
ATOM     16  C   UNL     1      21.164   5.754  22.223  0.00  0.00    -0.033 A 
ATOM     17  C   UNL     1      21.418   5.666  20.853  0.00  0.00    +0.007 A 
ATOM     18  C   UNL     1      22.005   5.111  23.130  0.00  0.00    +0.007 A 
ATOM     20  C   UNL     1      22.514   4.936  20.392  0.00  0.00    +0.027 A 
ATOM     21  C   UNL     1      23.100   4.381  22.669  0.00  0.00    +0.027 A 
ATOM     22  C   UNL     1      23.355   4.294  21.301  0.00  0.00    +0.088 A 
BRANCH  22   1
ATOM      1  S   UNL     1      24.728   3.382  20.723  0.00  0.00    -0.006 S 
ATOM      5  O   UNL     1      24.875   3.608  19.292  0.00  0.00    -0.170 OA
ATOM      6  O   UNL     1      25.847   3.644  21.615  0.00  0.00    -0.170 OA
ATOM     24  C   UNL     1      24.248   1.682  20.932  0.00  0.00    +0.200 C 
ENDBRANCH  22   1
ENDBRANCH  14  16
ENDBRANCH   7  14
TORSDOF 7
ENDMDL
MODEL 6
REMARK VINA RESULT:      -6.8     19.837     22.658
REMARK  Name = 51137611
REMARK  8 active torsions:
REMARK  status: ('A' for Active; 'I' for Inactive)
REMARK    1  A    between atoms: S_1  and  C_22
REMARK    2  A    between atoms: S_1  and  C_24
REMARK    3  A    between atoms: O_4  and  C_23
REMARK    4  A    between atoms: O_4  and  C_25
REMARK    5  A    between atoms: N_7  and  C_14
REMARK    6  A    between atoms: C_10  and  C_15
REMARK    7  A    between atoms: C_14  and  C_16
REMARK    8  A    between atoms: C_19  and  C_23
REMARK                            x       y       z     vdW  Elec       q    Type
REMARK                         _______ _______ _______ _____ _____    ______ ____
ROOT
ATOM      7  N   UNL     1      -6.308 -10.795  17.654  0.00  0.00    -0.297 NA
ATOM     10  C   UNL     1      -4.365 -11.480  16.534  0.00  0.00    +0.092 C 
ATOM     11  C   UNL     1      -4.139 -11.563  18.053  0.00  0.00    +0.029 C 
ATOM     12  C   UNL     1      -5.620 -10.611  16.374  0.00  0.00    +0.097 C 
ATOM     13  C   UNL     1      -5.252 -10.721  18.663  0.00  0.00    +0.085 C 
ENDROOT
BRANCH  10  15
ATOM      3  O   UNL     1      -3.296 -10.984  14.387  0.00  0.00    -0.421 OA
ATOM      8  N   UNL     1      -2.041 -10.477  16.169  0.00  0.00    -0.112 NA
ATOM      9  N   UNL     1      -1.324 -10.150  15.033  0.00  0.00    -0.109 NA
ATOM     15  C   UNL     1      -3.185 -10.961  15.744  0.00  0.00    +0.222 A 
ATOM     19  C   UNL     1      -2.095 -10.463  14.017  0.00  0.00    +0.254 A 
BRANCH  19  23
ATOM     23  C   UNL     1      -1.845 -10.327  12.577  0.00  0.00    +0.326 C 
BRANCH  23   4
ATOM      4  O   UNL     1      -2.600 -11.299  11.849  0.00  0.00    -0.483 OA
BRANCH   4  25
ATOM      2  F   UNL     1      -5.261  -9.494   7.392  0.00  0.00    -0.205 F 
ATOM     25  C   UNL     1      -3.261 -10.851  10.741  0.00  0.00    +0.121 A 
ATOM     26  C   UNL     1      -3.912 -11.756   9.902  0.00  0.00    +0.048 A 
ATOM     27  C   UNL     1      -3.288  -9.486  10.449  0.00  0.00    +0.048 A 
ATOM     28  C   UNL     1      -4.587 -11.297   8.770  0.00  0.00    +0.042 A 
ATOM     29  C   UNL     1      -3.963  -9.028   9.318  0.00  0.00    +0.042 A 
ATOM     30  C   UNL     1      -4.612  -9.933   8.479  0.00  0.00    +0.124 A 
ENDBRANCH   4  25
ENDBRANCH  23   4
ENDBRANCH  19  23
ENDBRANCH  10  15
BRANCH   7  14
ATOM     14  C   UNL     1      -7.352  -9.805  17.871  0.00  0.00    +0.119 C 
BRANCH  14  16
ATOM     16  C   UNL     1      -8.584 -10.414  18.483  0.00  0.00    -0.033 A 
ATOM     17  C   UNL     1      -8.469 -11.513  19.336  0.00  0.00    +0.007 A 
ATOM     18  C   UNL     1      -9.841  -9.881  18.200  0.00  0.00    +0.007 A 
ATOM     20  C   UNL     1      -9.611 -12.077  19.905  0.00  0.00    +0.027 A 
ATOM     21  C   UNL     1     -10.983 -10.446  18.768  0.00  0.00    +0.027 A 
ATOM     22  C   UNL     1     -10.868 -11.543  19.620  0.00  0.00    +0.088 A 
BRANCH  22   1
ATOM      1  S   UNL     1     -12.297 -12.249  20.335  0.00  0.00    -0.006 S 
ATOM      5  O   UNL     1     -12.987 -11.230  21.114  0.00  0.00    -0.170 OA
ATOM      6  O   UNL     1     -13.012 -12.967  19.291  0.00  0.00    -0.170 OA
ATOM     24  C   UNL     1     -11.667 -13.446  21.491  0.00  0.00    +0.200 C 
ENDBRANCH  22   1
ENDBRANCH  14  16
ENDBRANCH   7  14
TORSDOF 7
ENDMDL
MODEL 7
REMARK VINA RESULT:      -6.7     19.695     20.587
REMARK  Name = 51137611
REMARK  8 active torsions:
REMARK  status: ('A' for Active; 'I' for Inactive)
REMARK    1  A    between atoms: S_1  and  C_22
REMARK    2  A    between atoms: S_1  and  C_24
REMARK    3  A    between atoms: O_4  and  C_23
REMARK    4  A    between atoms: O_4  and  C_25
REMARK    5  A    between atoms: N_7  and  C_14
REMARK    6  A    between atoms: C_10  and  C_15
REMARK    7  A    between atoms: C_14  and  C_16
REMARK    8  A    between atoms: C_19  and  C_23
REMARK                            x       y       z     vdW  Elec       q    Type
REMARK                         _______ _______ _______ _____ _____    ______ ____
ROOT
ATOM      7  N   UNL     1      -2.064 -10.866  13.995  0.00  0.00    -0.297 NA
ATOM     10  C   UNL     1      -3.252 -10.458  15.976  0.00  0.00    +0.092 C 
ATOM     11  C   UNL     1      -1.760 -10.646  16.300  0.00  0.00    +0.029 C 
ATOM     12  C   UNL     1      -3.412 -11.006  14.551  0.00  0.00    +0.097 C 
ATOM     13  C   UNL     1      -1.169 -11.309  15.063  0.00  0.00    +0.085 C 
ENDROOT
BRANCH  10  15
ATOM      3  O   UNL     1      -4.884 -10.261  17.791  0.00  0.00    -0.421 OA
ATOM      8  N   UNL     1      -4.481 -12.366  17.153  0.00  0.00    -0.112 NA
ATOM      9  N   UNL     1      -5.411 -12.400  18.175  0.00  0.00    -0.109 NA
ATOM     15  C   UNL     1      -4.201 -11.098  16.963  0.00  0.00    +0.222 A 
ATOM     19  C   UNL     1      -5.617 -11.148  18.516  0.00  0.00    +0.254 A 
BRANCH  19  23
ATOM     23  C   UNL     1      -6.507 -10.593  19.543  0.00  0.00    +0.326 C 
BRANCH  23   4
ATOM      4  O   UNL     1      -7.686 -11.394  19.663  0.00  0.00    -0.483 OA
BRANCH   4  25
ATOM      2  F   UNL     1     -12.412  -9.030  18.153  0.00  0.00    -0.205 F 
ATOM     25  C   UNL     1      -8.861 -10.806  19.287  0.00  0.00    +0.121 A 
ATOM     26  C   UNL     1      -9.984 -10.905  20.109  0.00  0.00    +0.048 A 
ATOM     27  C   UNL     1      -8.937 -10.106  18.083  0.00  0.00    +0.048 A 
ATOM     28  C   UNL     1     -11.184 -10.305  19.725  0.00  0.00    +0.042 A 
ATOM     29  C   UNL     1     -10.137  -9.506  17.699  0.00  0.00    +0.042 A 
ATOM     30  C   UNL     1     -11.259  -9.606  18.521  0.00  0.00    +0.124 A 
ENDBRANCH   4  25
ENDBRANCH  23   4
ENDBRANCH  19  23
ENDBRANCH  10  15
BRANCH   7  14
ATOM     14  C   UNL     1      -1.886 -11.631  12.770  0.00  0.00    +0.119 C 
BRANCH  14  16
ATOM     16  C   UNL     1      -2.872 -11.226  11.708  0.00  0.00    -0.033 A 
ATOM     17  C   UNL     1      -3.913 -12.086  11.357  0.00  0.00    +0.007 A 
ATOM     18  C   UNL     1      -2.746  -9.990  11.073  0.00  0.00    +0.007 A 
ATOM     20  C   UNL     1      -4.827 -11.711  10.373  0.00  0.00    +0.027 A 
ATOM     21  C   UNL     1      -3.660  -9.615  10.088  0.00  0.00    +0.027 A 
ATOM     22  C   UNL     1      -4.700 -10.475   9.739  0.00  0.00    +0.088 A 
BRANCH  22   1
ATOM      1  S   UNL     1      -5.847 -10.005   8.508  0.00  0.00    -0.006 S 
ATOM      5  O   UNL     1      -5.129  -9.752   7.266  0.00  0.00    -0.170 OA
ATOM      6  O   UNL     1      -6.943 -10.962   8.527  0.00  0.00    -0.170 OA
ATOM     24  C   UNL     1      -6.478  -8.438   9.068  0.00  0.00    +0.200 C 
ENDBRANCH  22   1
ENDBRANCH  14  16
ENDBRANCH   7  14
TORSDOF 7
ENDMDL
MODEL 8
REMARK VINA RESULT:      -6.7     32.261     34.221
REMARK  Name = 51137611
REMARK  8 active torsions:
REMARK  status: ('A' for Active; 'I' for Inactive)
REMARK    1  A    between atoms: S_1  and  C_22
REMARK    2  A    between atoms: S_1  and  C_24
REMARK    3  A    between atoms: O_4  and  C_23
REMARK    4  A    between atoms: O_4  and  C_25
REMARK    5  A    between atoms: N_7  and  C_14
REMARK    6  A    between atoms: C_10  and  C_15
REMARK    7  A    between atoms: C_14  and  C_16
REMARK    8  A    between atoms: C_19  and  C_23
REMARK                            x       y       z     vdW  Elec       q    Type
REMARK                         _______ _______ _______ _____ _____    ______ ____
ROOT
ATOM      7  N   UNL     1       4.189   7.014  -4.112  0.00  0.00    -0.297 NA
ATOM     10  C   UNL     1       6.145   6.983  -2.819  0.00  0.00    +0.092 C 
ATOM     11  C   UNL     1       5.606   8.421  -2.902  0.00  0.00    +0.029 C 
ATOM     12  C   UNL     1       5.412   6.228  -3.937  0.00  0.00    +0.097 C 
ATOM     13  C   UNL     1       4.628   8.408  -4.070  0.00  0.00    +0.085 C 
ENDROOT
BRANCH  10  15
ATOM      3  O   UNL     1       8.206   5.719  -2.430  0.00  0.00    -0.421 OA
ATOM      8  N   UNL     1       8.527   7.705  -3.407  0.00  0.00    -0.112 NA
ATOM      9  N   UNL     1       9.761   7.103  -3.247  0.00  0.00    -0.109 NA
ATOM     15  C   UNL     1       7.649   6.862  -2.915  0.00  0.00    +0.222 A 
ATOM     19  C   UNL     1       9.525   5.945  -2.673  0.00  0.00    +0.254 A 
BRANCH  19  23
ATOM     23  C   UNL     1      10.465   4.891  -2.272  0.00  0.00    +0.326 C 
BRANCH  23   4
ATOM      4  O   UNL     1      10.215   4.492  -0.922  0.00  0.00    -0.483 OA
BRANCH   4  25
ATOM      2  F   UNL     1      14.609   3.088   2.066  0.00  0.00    -0.205 F 
ATOM     25  C   UNL     1      11.307   4.143  -0.179  0.00  0.00    +0.121 A 
ATOM     26  C   UNL     1      11.206   4.047   1.210  0.00  0.00    +0.048 A 
ATOM     27  C   UNL     1      12.524   3.881  -0.809  0.00  0.00    +0.048 A 
ATOM     28  C   UNL     1      12.321   3.691   1.968  0.00  0.00    +0.042 A 
ATOM     29  C   UNL     1      13.640   3.525  -0.050  0.00  0.00    +0.042 A 
ATOM     30  C   UNL     1      13.538   3.429   1.337  0.00  0.00    +0.124 A 
ENDBRANCH   4  25
ENDBRANCH  23   4
ENDBRANCH  19  23
ENDBRANCH  10  15
BRANCH   7  14
ATOM     14  C   UNL     1       3.492   6.690  -5.348  0.00  0.00    +0.119 C 
BRANCH  14  16
ATOM     16  C   UNL     1       2.744   5.388  -5.246  0.00  0.00    -0.033 A 
ATOM     17  C   UNL     1       1.492   5.350  -4.632  0.00  0.00    +0.007 A 
ATOM     18  C   UNL     1       3.302   4.220  -5.765  0.00  0.00    +0.007 A 
ATOM     20  C   UNL     1       0.798   4.143  -4.538  0.00  0.00    +0.027 A 
ATOM     21  C   UNL     1       2.609   3.014  -5.670  0.00  0.00    +0.027 A 
ATOM     22  C   UNL     1       1.357   2.976  -5.057  0.00  0.00    +0.088 A 
BRANCH  22   1
ATOM      1  S   UNL     1       0.486   1.466  -4.941  0.00  0.00    -0.006 S 
ATOM      5  O   UNL     1      -0.177   1.402  -3.646  0.00  0.00    -0.170 OA
ATOM      6  O   UNL     1      -0.292   1.303  -6.160  0.00  0.00    -0.170 OA
ATOM     24  C   UNL     1       1.758   0.222  -4.932  0.00  0.00    +0.200 C 
ENDBRANCH  22   1
ENDBRANCH  14  16
ENDBRANCH   7  14
TORSDOF 7
ENDMDL
MODEL 9
REMARK VINA RESULT:      -6.6     21.141     24.041
REMARK  Name = 51137611
REMARK  8 active torsions:
REMARK  status: ('A' for Active; 'I' for Inactive)
REMARK    1  A    between atoms: S_1  and  C_22
REMARK    2  A    between atoms: S_1  and  C_24
REMARK    3  A    between atoms: O_4  and  C_23
REMARK    4  A    between atoms: O_4  and  C_25
REMARK    5  A    between atoms: N_7  and  C_14
REMARK    6  A    between atoms: C_10  and  C_15
REMARK    7  A    between atoms: C_14  and  C_16
REMARK    8  A    between atoms: C_19  and  C_23
REMARK                            x       y       z     vdW  Elec       q    Type
REMARK                         _______ _______ _______ _____ _____    ______ ____
ROOT
ATOM      7  N   UNL     1      -3.390 -11.441  15.440  0.00  0.00    -0.297 NA
ATOM     10  C   UNL     1      -3.282 -11.386  13.098  0.00  0.00    +0.092 C 
ATOM     11  C   UNL     1      -2.032 -12.090  13.655  0.00  0.00    +0.029 C 
ATOM     12  C   UNL     1      -3.890 -10.661  14.307  0.00  0.00    +0.097 C 
ATOM     13  C   UNL     1      -1.986 -11.703  15.127  0.00  0.00    +0.085 C 
ENDROOT
BRANCH  10  15
ATOM      3  O   UNL     1      -4.097 -10.136  11.157  0.00  0.00    -0.421 OA
ATOM      8  N   UNL     1      -1.901  -9.919  11.524  0.00  0.00    -0.112 NA
ATOM      9  N   UNL     1      -2.225  -9.169  10.409  0.00  0.00    -0.109 NA
ATOM     15  C   UNL     1      -3.025 -10.466  11.927  0.00  0.00    +0.222 A 
ATOM     19  C   UNL     1      -3.517  -9.325  10.232  0.00  0.00    +0.254 A 
BRANCH  19  23
ATOM     23  C   UNL     1      -4.395  -8.757   9.202  0.00  0.00    +0.326 C 
BRANCH  23   4
ATOM      4  O   UNL     1      -5.463  -9.662   8.907  0.00  0.00    -0.483 OA
BRANCH   4  25
ATOM      2  F   UNL     1      -5.613 -11.690   3.801  0.00  0.00    -0.205 F 
ATOM     25  C   UNL     1      -5.499 -10.166   7.638  0.00  0.00    +0.121 A 
ATOM     26  C   UNL     1      -4.659 -11.221   7.280  0.00  0.00    +0.048 A 
ATOM     27  C   UNL     1      -6.379  -9.627   6.699  0.00  0.00    +0.048 A 
ATOM     28  C   UNL     1      -4.697 -11.735   5.984  0.00  0.00    +0.042 A 
ATOM     29  C   UNL     1      -6.418 -10.141   5.402  0.00  0.00    +0.042 A 
ATOM     30  C   UNL     1      -5.577 -11.195   5.046  0.00  0.00    +0.124 A 
ENDBRANCH   4  25
ENDBRANCH  23   4
ENDBRANCH  19  23
ENDBRANCH  10  15
BRANCH   7  14
ATOM     14  C   UNL     1      -3.555 -10.747  16.709  0.00  0.00    +0.119 C 
BRANCH  14  16
ATOM     16  C   UNL     1      -4.891 -11.037  17.338  0.00  0.00    -0.033 A 
ATOM     17  C   UNL     1      -5.888 -10.061  17.339  0.00  0.00    +0.007 A 
ATOM     18  C   UNL     1      -5.133 -12.281  17.920  0.00  0.00    +0.007 A 
ATOM     20  C   UNL     1      -7.127 -10.330  17.921  0.00  0.00    +0.027 A 
ATOM     21  C   UNL     1      -6.371 -12.550  18.503  0.00  0.00    +0.027 A 
ATOM     22  C   UNL     1      -7.367 -11.575  18.503  0.00  0.00    +0.088 A 
BRANCH  22   1
ATOM      1  S   UNL     1      -8.920 -11.911  19.230  0.00  0.00    -0.006 S 
ATOM      5  O   UNL     1      -9.233 -10.854  20.182  0.00  0.00    -0.170 OA
ATOM      6  O   UNL     1      -9.857 -12.223  18.162  0.00  0.00    -0.170 OA
ATOM     24  C   UNL     1      -8.652 -13.395  20.175  0.00  0.00    +0.200 C 
ENDBRANCH  22   1
ENDBRANCH  14  16
ENDBRANCH   7  14
TORSDOF 7
ENDMDL
MODEL 10
REMARK VINA RESULT:      -6.6     17.356     18.820
REMARK  Name = 51137611
REMARK  8 active torsions:
REMARK  status: ('A' for Active; 'I' for Inactive)
REMARK    1  A    between atoms: S_1  and  C_22
REMARK    2  A    between atoms: S_1  and  C_24
REMARK    3  A    between atoms: O_4  and  C_23
REMARK    4  A    between atoms: O_4  and  C_25
REMARK    5  A    between atoms: N_7  and  C_14
REMARK    6  A    between atoms: C_10  and  C_15
REMARK    7  A    between atoms: C_14  and  C_16
REMARK    8  A    between atoms: C_19  and  C_23
REMARK                            x       y       z     vdW  Elec       q    Type
REMARK                         _______ _______ _______ _____ _____    ______ ____
ROOT
ATOM      7  N   UNL     1     -10.413  -5.609   8.498  0.00  0.00    -0.297 NA
ATOM     10  C   UNL     1     -12.014  -4.554   9.848  0.00  0.00    +0.092 C 
ATOM     11  C   UNL     1     -11.042  -3.502   9.285  0.00  0.00    +0.029 C 
ATOM     12  C   UNL     1     -11.307  -5.897   9.621  0.00  0.00    +0.097 C 
ATOM     13  C   UNL     1      -9.838  -4.299   8.801  0.00  0.00    +0.085 C 
ENDROOT
BRANCH  10  15
ATOM      3  O   UNL     1     -12.025  -5.281  12.186  0.00  0.00    -0.421 OA
ATOM      8  N   UNL     1     -13.108  -3.357  11.825  0.00  0.00    -0.112 NA
ATOM      9  N   UNL     1     -13.192  -3.648  13.174  0.00  0.00    -0.109 NA
ATOM     15  C   UNL     1     -12.419  -4.337  11.288  0.00  0.00    +0.222 A 
ATOM     19  C   UNL     1     -12.546  -4.779  13.339  0.00  0.00    +0.254 A 
BRANCH  19  23
ATOM     23  C   UNL     1     -12.313  -5.553  14.565  0.00  0.00    +0.326 C 
BRANCH  23   4
ATOM      4  O   UNL     1     -11.935  -6.894  14.240  0.00  0.00    -0.483 OA
BRANCH   4  25
ATOM      2  F   UNL     1      -8.385  -9.331  17.656  0.00  0.00    -0.205 F 
ATOM     25  C   UNL     1     -11.052  -7.499  15.090  0.00  0.00    +0.121 A 
ATOM     26  C   UNL     1     -10.928  -7.050  16.405  0.00  0.00    +0.048 A 
ATOM     27  C   UNL     1     -10.276  -8.569  14.642  0.00  0.00    +0.048 A 
ATOM     28  C   UNL     1     -10.027  -7.668  17.271  0.00  0.00    +0.042 A 
ATOM     29  C   UNL     1      -9.375  -9.188  15.509  0.00  0.00    +0.042 A 
ATOM     30  C   UNL     1      -9.251  -8.737  16.823  0.00  0.00    +0.124 A 
ENDBRANCH   4  25
ENDBRANCH  23   4
ENDBRANCH  19  23
ENDBRANCH  10  15
BRANCH   7  14
ATOM     14  C   UNL     1      -9.395  -6.634   8.321  0.00  0.00    +0.119 C 
BRANCH  14  16
ATOM     16  C   UNL     1      -9.262  -7.050   6.881  0.00  0.00    -0.033 A 
ATOM     17  C   UNL     1      -8.072  -7.621   6.428  0.00  0.00    +0.007 A 
ATOM     18  C   UNL     1     -10.326  -6.864   5.999  0.00  0.00    +0.007 A 
ATOM     20  C   UNL     1      -7.948  -8.008   5.093  0.00  0.00    +0.027 A 
ATOM     21  C   UNL     1     -10.202  -7.250   4.665  0.00  0.00    +0.027 A 
ATOM     22  C   UNL     1      -9.014  -7.822   4.212  0.00  0.00    +0.088 A 
BRANCH  22   1
ATOM      1  S   UNL     1      -8.859  -8.308   2.542  0.00  0.00    -0.006 S 
ATOM      5  O   UNL     1      -7.540  -7.923   2.059  0.00  0.00    -0.170 OA
ATOM      6  O   UNL     1      -9.291  -9.694   2.437  0.00  0.00    -0.170 OA
ATOM     24  C   UNL     1     -10.042  -7.299   1.677  0.00  0.00    +0.200 C 
ENDBRANCH  22   1
ENDBRANCH  14  16
ENDBRANCH   7  14
TORSDOF 7
ENDMDL
