MODEL 1
REMARK VINA RESULT:      -7.2      0.000      0.000
REMARK  Name = 45361000
REMARK  10 active torsions:
REMARK  status: ('A' for Active; 'I' for Inactive)
REMARK    1  A    between atoms: O_6  and  C_27
REMARK    2  A    between atoms: O_6  and  C_32
REMARK    3  A    between atoms: N_7  and  C_19
REMARK    4  A    between atoms: N_8  and  C_21
REMARK    5  A    between atoms: N_10  and  C_30
REMARK    6  A    between atoms: C_16  and  C_20
REMARK    7  A    between atoms: C_19  and  C_23
REMARK    8  A    between atoms: C_20  and  C_22
REMARK    9  A    between atoms: C_22  and  C_24
REMARK   10  A    between atoms: C_30  and  C_31
REMARK                            x       y       z     vdW  Elec       q    Type
REMARK                         _______ _______ _______ _____ _____    ______ ____
ROOT
ATOM      4  O   UNL     1      -7.728  -9.491  15.719  0.00  0.00    -0.274 OA
ATOM      7  N   UNL     1      -8.602 -10.968  17.806  0.00  0.00    -0.286 NA
ATOM      8  N   UNL     1      -5.476 -12.494  16.670  0.00  0.00    -0.296 NA
ATOM      9  N   UNL     1      -5.515  -9.636  16.284  0.00  0.00    -0.312 N 
ATOM     12  C   UNL     1      -6.513 -12.198  17.684  0.00  0.00    +0.084 C 
ATOM     13  C   UNL     1      -7.143 -10.773  17.704  0.00  0.00    +0.161 C 
ATOM     14  C   UNL     1      -7.758 -13.098  17.585  0.00  0.00    +0.036 C 
ATOM     15  C   UNL     1      -8.820 -12.313  18.325  0.00  0.00    +0.087 C 
ATOM     16  C   UNL     1      -4.232 -11.688  16.809  0.00  0.00    +0.074 C 
ATOM     17  C   UNL     1      -6.854  -9.922  16.471  0.00  0.00    +0.232 C 
ATOM     18  C   UNL     1      -4.456 -10.192  17.103  0.00  0.00    +0.123 C 
ATOM     21  C   UNL     1      -5.154 -13.932  16.656  0.00  0.00    +0.105 C 
ATOM     37  H   UNL     1      -5.256  -9.053  15.494  0.00  0.00    +0.149 HD
ENDROOT
BRANCH   7  19
ATOM     19  C   UNL     1      -9.264  -9.953  18.614  0.00  0.00    +0.120 C 
BRANCH  19  23
ATOM     23  C   UNL     1     -10.572  -9.517  18.008  0.00  0.00    -0.030 A 
ATOM     25  C   UNL     1     -10.578  -8.691  16.885  0.00  0.00    +0.051 A 
ATOM     26  C   UNL     1     -11.776  -9.939  18.571  0.00  0.00    +0.005 A 
ATOM     27  C   UNL     1     -11.789  -8.286  16.322  0.00  0.00    +0.130 A 
ATOM     28  C   UNL     1     -12.987  -9.534  18.010  0.00  0.00    +0.004 A 
ATOM     29  C   UNL     1     -12.994  -8.708  16.885  0.00  0.00    +0.046 A 
BRANCH  27   6
ATOM      6  O   UNL     1     -11.794  -7.479  15.227  0.00  0.00    -0.406 OA
BRANCH   6  32
ATOM      1  F   UNL     1     -11.396  -5.369  14.439  0.00  0.00    -0.133 F 
ATOM      2  F   UNL     1     -11.432  -5.721  16.596  0.00  0.00    -0.133 F 
ATOM      3  F   UNL     1     -13.305  -5.780  15.472  0.00  0.00    -0.133 F 
ATOM     32  C   UNL     1     -11.992  -6.083  15.419  0.00  0.00    +0.575 C 
ENDBRANCH   6  32
ENDBRANCH  27   6
ENDBRANCH  19  23
ENDBRANCH   7  19
BRANCH  16  20
ATOM     20  C   UNL     1      -3.380 -11.785  15.525  0.00  0.00    +0.029 C 
BRANCH  20  22
ATOM     22  C   UNL     1      -2.072 -11.035  15.691  0.00  0.00    +0.097 C 
BRANCH  22  24
ATOM      5  O   UNL     1      -0.985  -9.304  14.393  0.00  0.00    -0.276 OA
ATOM     10  N   UNL     1      -2.169 -10.967  13.289  0.00  0.00    -0.311 N 
ATOM     24  C   UNL     1      -1.669 -10.323  14.411  0.00  0.00    +0.213 C 
ATOM     38  H   UNL     1      -2.743 -11.798  13.401  0.00  0.00    +0.149 HD
BRANCH  10  30
ATOM     30  C   UNL     1      -1.926 -10.484  11.950  0.00  0.00    +0.141 C 
BRANCH  30  31
ATOM     11  N   UNL     1      -5.562  -9.567  11.432  0.00  0.00    -0.263 NA
ATOM     31  C   UNL     1      -3.173  -9.923  11.321  0.00  0.00    -0.012 A 
ATOM     33  C   UNL     1      -3.125  -9.266  10.096  0.00  0.00    +0.008 A 
ATOM     34  C   UNL     1      -4.405 -10.046  11.943  0.00  0.00    +0.115 A 
ATOM     35  C   UNL     1      -4.294  -8.760   9.538  0.00  0.00    +0.020 A 
ATOM     36  C   UNL     1      -5.476  -8.935  10.240  0.00  0.00    +0.111 A 
ENDBRANCH  30  31
ENDBRANCH  10  30
ENDBRANCH  22  24
ENDBRANCH  20  22
ENDBRANCH  16  20
TORSDOF 9
ENDMDL
MODEL 2
REMARK VINA RESULT:      -7.2     18.442     20.978
REMARK  Name = 45361000
REMARK  10 active torsions:
REMARK  status: ('A' for Active; 'I' for Inactive)
REMARK    1  A    between atoms: O_6  and  C_27
REMARK    2  A    between atoms: O_6  and  C_32
REMARK    3  A    between atoms: N_7  and  C_19
REMARK    4  A    between atoms: N_8  and  C_21
REMARK    5  A    between atoms: N_10  and  C_30
REMARK    6  A    between atoms: C_16  and  C_20
REMARK    7  A    between atoms: C_19  and  C_23
REMARK    8  A    between atoms: C_20  and  C_22
REMARK    9  A    between atoms: C_22  and  C_24
REMARK   10  A    between atoms: C_30  and  C_31
REMARK                            x       y       z     vdW  Elec       q    Type
REMARK                         _______ _______ _______ _____ _____    ______ ____
ROOT
ATOM      4  O   UNL     1     -13.361   4.836  23.083  0.00  0.00    -0.274 OA
ATOM      7  N   UNL     1     -14.914   6.540  21.675  0.00  0.00    -0.286 NA
ATOM      8  N   UNL     1     -17.044   3.727  22.647  0.00  0.00    -0.296 NA
ATOM      9  N   UNL     1     -14.988   4.281  24.593  0.00  0.00    -0.312 N 
ATOM     12  C   UNL     1     -16.808   5.133  22.251  0.00  0.00    +0.084 C 
ATOM     13  C   UNL     1     -15.553   5.861  22.819  0.00  0.00    +0.161 C 
ATOM     14  C   UNL     1     -16.636   5.335  20.734  0.00  0.00    +0.036 C 
ATOM     15  C   UNL     1     -15.927   6.669  20.634  0.00  0.00    +0.087 C 
ATOM     16  C   UNL     1     -17.297   3.532  24.102  0.00  0.00    +0.074 C 
ATOM     17  C   UNL     1     -14.521   4.950  23.478  0.00  0.00    +0.232 C 
ATOM     18  C   UNL     1     -16.368   4.330  25.035  0.00  0.00    +0.123 C 
ATOM     21  C   UNL     1     -18.139   3.139  21.856  0.00  0.00    +0.105 C 
ATOM     37  H   UNL     1     -14.344   3.675  25.092  0.00  0.00    +0.149 HD
ENDROOT
BRANCH   7  19
ATOM     19  C   UNL     1     -14.319   7.822  22.024  0.00  0.00    +0.120 C 
BRANCH  19  23
ATOM     23  C   UNL     1     -13.105   8.124  21.185  0.00  0.00    -0.030 A 
ATOM     25  C   UNL     1     -12.716   9.446  20.973  0.00  0.00    +0.051 A 
ATOM     26  C   UNL     1     -12.372   7.081  20.619  0.00  0.00    +0.005 A 
ATOM     27  C   UNL     1     -11.592   9.726  20.195  0.00  0.00    +0.130 A 
ATOM     28  C   UNL     1     -11.249   7.360  19.840  0.00  0.00    +0.004 A 
ATOM     29  C   UNL     1     -10.859   8.683  19.629  0.00  0.00    +0.046 A 
BRANCH  27   6
ATOM      6  O   UNL     1     -11.213  11.017  19.987  0.00  0.00    -0.406 OA
BRANCH   6  32
ATOM      1  F   UNL     1      -9.819  11.174  18.181  0.00  0.00    -0.133 F 
ATOM      2  F   UNL     1     -11.202  12.810  18.617  0.00  0.00    -0.133 F 
ATOM      3  F   UNL     1     -11.988  10.925  17.838  0.00  0.00    -0.133 F 
ATOM     32  C   UNL     1     -11.053  11.466  18.647  0.00  0.00    +0.575 C 
ENDBRANCH   6  32
ENDBRANCH  27   6
ENDBRANCH  19  23
ENDBRANCH   7  19
BRANCH  16  20
ATOM     20  C   UNL     1     -17.161   2.040  24.477  0.00  0.00    +0.029 C 
BRANCH  20  22
ATOM     22  C   UNL     1     -18.330   1.595  25.336  0.00  0.00    +0.097 C 
BRANCH  22  24
ATOM      5  O   UNL     1     -18.400  -0.194  26.966  0.00  0.00    -0.276 OA
ATOM     10  N   UNL     1     -16.771   1.448  27.162  0.00  0.00    -0.311 N 
ATOM     24  C   UNL     1     -17.863   0.835  26.565  0.00  0.00    +0.213 C 
ATOM     38  H   UNL     1     -16.403   2.311  26.768  0.00  0.00    +0.149 HD
BRANCH  10  30
ATOM     30  C   UNL     1     -16.142   0.920  28.348  0.00  0.00    +0.141 C 
BRANCH  30  31
ATOM     11  N   UNL     1     -15.488   4.363  29.778  0.00  0.00    -0.263 NA
ATOM     31  C   UNL     1     -15.789   2.007  29.328  0.00  0.00    -0.012 A 
ATOM     33  C   UNL     1     -15.443   1.704  30.641  0.00  0.00    +0.008 A 
ATOM     34  C   UNL     1     -15.797   3.340  28.950  0.00  0.00    +0.115 A 
ATOM     35  C   UNL     1     -15.119   2.729  31.522  0.00  0.00    +0.020 A 
ATOM     36  C   UNL     1     -15.156   4.030  31.046  0.00  0.00    +0.111 A 
ENDBRANCH  30  31
ENDBRANCH  10  30
ENDBRANCH  22  24
ENDBRANCH  20  22
ENDBRANCH  16  20
TORSDOF 9
ENDMDL
MODEL 3
REMARK VINA RESULT:      -7.1      3.278      5.806
REMARK  Name = 45361000
REMARK  10 active torsions:
REMARK  status: ('A' for Active; 'I' for Inactive)
REMARK    1  A    between atoms: O_6  and  C_27
REMARK    2  A    between atoms: O_6  and  C_32
REMARK    3  A    between atoms: N_7  and  C_19
REMARK    4  A    between atoms: N_8  and  C_21
REMARK    5  A    between atoms: N_10  and  C_30
REMARK    6  A    between atoms: C_16  and  C_20
REMARK    7  A    between atoms: C_19  and  C_23
REMARK    8  A    between atoms: C_20  and  C_22
REMARK    9  A    between atoms: C_22  and  C_24
REMARK   10  A    between atoms: C_30  and  C_31
REMARK                            x       y       z     vdW  Elec       q    Type
REMARK                         _______ _______ _______ _____ _____    ______ ____
ROOT
ATOM      4  O   UNL     1     -10.477  -5.798  15.536  0.00  0.00    -0.274 OA
ATOM      7  N   UNL     1     -11.967  -7.490  14.047  0.00  0.00    -0.286 NA
ATOM      8  N   UNL     1      -9.141  -9.426  15.333  0.00  0.00    -0.296 NA
ATOM      9  N   UNL     1      -9.969  -7.343  17.147  0.00  0.00    -0.312 N 
ATOM     12  C   UNL     1     -10.518  -9.282  14.811  0.00  0.00    +0.084 C 
ATOM     13  C   UNL     1     -11.357  -8.052  15.268  0.00  0.00    +0.161 C 
ATOM     14  C   UNL     1     -10.596  -9.171  13.277  0.00  0.00    +0.036 C 
ATOM     15  C   UNL     1     -11.952  -8.542  13.037  0.00  0.00    +0.087 C 
ATOM     16  C   UNL     1      -9.059  -9.621  16.808  0.00  0.00    +0.074 C 
ATOM     17  C   UNL     1     -10.563  -6.949  15.963  0.00  0.00    +0.232 C 
ATOM     18  C   UNL     1      -9.984  -8.707  17.635  0.00  0.00    +0.123 C 
ATOM     21  C   UNL     1      -8.429 -10.511  14.636  0.00  0.00    +0.105 C 
ATOM     37  H   UNL     1      -9.444  -6.650  17.672  0.00  0.00    +0.149 HD
ENDROOT
BRANCH   7  19
ATOM     19  C   UNL     1     -13.305  -6.956  14.264  0.00  0.00    +0.120 C 
BRANCH  19  23
ATOM     23  C   UNL     1     -13.523  -5.668  13.515  0.00  0.00    -0.030 A 
ATOM     25  C   UNL     1     -12.495  -5.127  12.744  0.00  0.00    +0.051 A 
ATOM     26  C   UNL     1     -14.755  -5.016  13.594  0.00  0.00    +0.005 A 
ATOM     27  C   UNL     1     -12.698  -3.934  12.050  0.00  0.00    +0.130 A 
ATOM     28  C   UNL     1     -14.956  -3.822  12.901  0.00  0.00    +0.004 A 
ATOM     29  C   UNL     1     -13.928  -3.282  12.129  0.00  0.00    +0.046 A 
BRANCH  27   6
ATOM      6  O   UNL     1     -11.693  -3.405  11.299  0.00  0.00    -0.406 OA
BRANCH   6  32
ATOM      1  F   UNL     1     -10.835  -5.025   9.932  0.00  0.00    -0.133 F 
ATOM      2  F   UNL     1     -10.838  -2.944   9.261  0.00  0.00    -0.133 F 
ATOM      3  F   UNL     1     -12.728  -4.038   9.361  0.00  0.00    -0.133 F 
ATOM     32  C   UNL     1     -11.533  -3.869   9.964  0.00  0.00    +0.575 C 
ENDBRANCH   6  32
ENDBRANCH  27   6
ENDBRANCH  19  23
ENDBRANCH   7  19
BRANCH  16  20
ATOM     20  C   UNL     1      -7.615  -9.389  17.303  0.00  0.00    +0.029 C 
BRANCH  20  22
ATOM     22  C   UNL     1      -7.298 -10.300  18.474  0.00  0.00    +0.097 C 
BRANCH  22  24
ATOM      5  O   UNL     1      -5.308 -11.316  19.406  0.00  0.00    -0.276 OA
ATOM     10  N   UNL     1      -5.207 -10.376  17.287  0.00  0.00    -0.311 N 
ATOM     24  C   UNL     1      -5.840 -10.730  18.469  0.00  0.00    +0.213 C 
ATOM     38  H   UNL     1      -5.725  -9.874  16.571  0.00  0.00    +0.149 HD
BRANCH  10  30
ATOM     30  C   UNL     1      -3.816 -10.672  17.039  0.00  0.00    +0.141 C 
BRANCH  30  31
ATOM     11  N   UNL     1      -1.830 -10.668  13.816  0.00  0.00    -0.263 NA
ATOM     31  C   UNL     1      -3.497 -10.673  15.567  0.00  0.00    -0.012 A 
ATOM     33  C   UNL     1      -4.509 -10.675  14.614  0.00  0.00    +0.008 A 
ATOM     34  C   UNL     1      -2.185 -10.670  15.121  0.00  0.00    +0.115 A 
ATOM     35  C   UNL     1      -4.184 -10.673  13.262  0.00  0.00    +0.020 A 
ATOM     36  C   UNL     1      -2.841 -10.669  12.919  0.00  0.00    +0.111 A 
ENDBRANCH  30  31
ENDBRANCH  10  30
ENDBRANCH  22  24
ENDBRANCH  20  22
ENDBRANCH  16  20
TORSDOF 9
ENDMDL
MODEL 4
REMARK VINA RESULT:      -7.1      4.072      8.521
REMARK  Name = 45361000
REMARK  10 active torsions:
REMARK  status: ('A' for Active; 'I' for Inactive)
REMARK    1  A    between atoms: O_6  and  C_27
REMARK    2  A    between atoms: O_6  and  C_32
REMARK    3  A    between atoms: N_7  and  C_19
REMARK    4  A    between atoms: N_8  and  C_21
REMARK    5  A    between atoms: N_10  and  C_30
REMARK    6  A    between atoms: C_16  and  C_20
REMARK    7  A    between atoms: C_19  and  C_23
REMARK    8  A    between atoms: C_20  and  C_22
REMARK    9  A    between atoms: C_22  and  C_24
REMARK   10  A    between atoms: C_30  and  C_31
REMARK                            x       y       z     vdW  Elec       q    Type
REMARK                         _______ _______ _______ _____ _____    ______ ____
ROOT
ATOM      4  O   UNL     1      -5.905  -9.376  15.966  0.00  0.00    -0.274 OA
ATOM      7  N   UNL     1      -6.068 -11.833  17.078  0.00  0.00    -0.286 NA
ATOM      8  N   UNL     1      -9.188 -10.100  17.886  0.00  0.00    -0.296 NA
ATOM      9  N   UNL     1      -8.104  -9.293  15.338  0.00  0.00    -0.312 N 
ATOM     12  C   UNL     1      -8.367 -11.309  17.659  0.00  0.00    +0.084 C 
ATOM     13  C   UNL     1      -7.315 -11.284  16.510  0.00  0.00    +0.161 C 
ATOM     14  C   UNL     1      -7.509 -11.718  18.870  0.00  0.00    +0.036 C 
ATOM     15  C   UNL     1      -6.438 -12.599  18.263  0.00  0.00    +0.087 C 
ATOM     16  C   UNL     1     -10.086  -9.744  16.752  0.00  0.00    +0.074 C 
ATOM     17  C   UNL     1      -7.017  -9.902  15.936  0.00  0.00    +0.232 C 
ATOM     18  C   UNL     1      -9.443  -9.849  15.356  0.00  0.00    +0.123 C 
ATOM     21  C   UNL     1      -9.964 -10.222  19.132  0.00  0.00    +0.105 C 
ATOM     37  H   UNL     1      -7.968  -8.380  14.915  0.00  0.00    +0.149 HD
ENDROOT
BRANCH   7  19
ATOM     19  C   UNL     1      -5.301 -12.626  16.128  0.00  0.00    +0.120 C 
BRANCH  19  23
ATOM     23  C   UNL     1      -4.007 -11.954  15.751  0.00  0.00    -0.030 A 
ATOM     25  C   UNL     1      -3.511 -12.074  14.454  0.00  0.00    +0.051 A 
ATOM     26  C   UNL     1      -3.305 -11.212  16.702  0.00  0.00    +0.005 A 
ATOM     27  C   UNL     1      -2.312 -11.451  14.105  0.00  0.00    +0.130 A 
ATOM     28  C   UNL     1      -2.105 -10.591  16.354  0.00  0.00    +0.004 A 
ATOM     29  C   UNL     1      -1.609 -10.710  15.055  0.00  0.00    +0.046 A 
BRANCH  27   6
ATOM      6  O   UNL     1      -1.827 -11.570  12.839  0.00  0.00    -0.406 OA
BRANCH   6  32
ATOM      1  F   UNL     1      -1.329  -9.782  11.503  0.00  0.00    -0.133 F 
ATOM      2  F   UNL     1      -3.333  -9.958  12.358  0.00  0.00    -0.133 F 
ATOM      3  F   UNL     1      -2.731 -11.316  10.754  0.00  0.00    -0.133 F 
ATOM     32  C   UNL     1      -2.294 -10.661  11.849  0.00  0.00    +0.575 C 
ENDBRANCH   6  32
ENDBRANCH  27   6
ENDBRANCH  19  23
ENDBRANCH   7  19
BRANCH  16  20
ATOM     20  C   UNL     1     -10.612  -8.301  16.913  0.00  0.00    +0.029 C 
BRANCH  20  22
ATOM     22  C   UNL     1     -11.775  -8.046  15.973  0.00  0.00    +0.097 C 
BRANCH  22  24
ATOM      5  O   UNL     1     -11.079  -5.727  15.973  0.00  0.00    -0.276 OA
ATOM     10  N   UNL     1     -12.852  -6.372  14.623  0.00  0.00    -0.311 N 
ATOM     24  C   UNL     1     -11.839  -6.590  15.544  0.00  0.00    +0.213 C 
ATOM     38  H   UNL     1     -13.446  -7.147  14.337  0.00  0.00    +0.149 HD
BRANCH  10  30
ATOM     30  C   UNL     1     -13.119  -5.069  14.063  0.00  0.00    +0.141 C 
BRANCH  30  31
ATOM     11  N   UNL     1     -12.028  -6.047  10.572  0.00  0.00    -0.263 NA
ATOM     31  C   UNL     1     -12.624  -4.955  12.645  0.00  0.00    -0.012 A 
ATOM     33  C   UNL     1     -12.306  -3.718  12.095  0.00  0.00    +0.008 A 
ATOM     34  C   UNL     1     -12.469  -6.079  11.850  0.00  0.00    +0.115 A 
ATOM     35  C   UNL     1     -11.849  -3.644  10.784  0.00  0.00    +0.020 A 
ATOM     36  C   UNL     1     -11.728  -4.827  10.071  0.00  0.00    +0.111 A 
ENDBRANCH  30  31
ENDBRANCH  10  30
ENDBRANCH  22  24
ENDBRANCH  20  22
ENDBRANCH  16  20
TORSDOF 9
ENDMDL
MODEL 5
REMARK VINA RESULT:      -7.0      2.419      4.531
REMARK  Name = 45361000
REMARK  10 active torsions:
REMARK  status: ('A' for Active; 'I' for Inactive)
REMARK    1  A    between atoms: O_6  and  C_27
REMARK    2  A    between atoms: O_6  and  C_32
REMARK    3  A    between atoms: N_7  and  C_19
REMARK    4  A    between atoms: N_8  and  C_21
REMARK    5  A    between atoms: N_10  and  C_30
REMARK    6  A    between atoms: C_16  and  C_20
REMARK    7  A    between atoms: C_19  and  C_23
REMARK    8  A    between atoms: C_20  and  C_22
REMARK    9  A    between atoms: C_22  and  C_24
REMARK   10  A    between atoms: C_30  and  C_31
REMARK                            x       y       z     vdW  Elec       q    Type
REMARK                         _______ _______ _______ _____ _____    ______ ____
ROOT
ATOM      4  O   UNL     1      -9.674  -8.751  14.589  0.00  0.00    -0.274 OA
ATOM      7  N   UNL     1     -11.356  -8.001  16.566  0.00  0.00    -0.286 NA
ATOM      8  N   UNL     1      -9.373 -10.787  17.868  0.00  0.00    -0.296 NA
ATOM      9  N   UNL     1      -7.906  -9.175  15.979  0.00  0.00    -0.312 N 
ATOM     12  C   UNL     1     -10.192  -9.564  18.014  0.00  0.00    +0.084 C 
ATOM     13  C   UNL     1     -10.001  -8.417  16.978  0.00  0.00    +0.161 C 
ATOM     14  C   UNL     1     -11.710  -9.816  17.938  0.00  0.00    +0.036 C 
ATOM     15  C   UNL     1     -12.277  -8.452  17.603  0.00  0.00    +0.087 C 
ATOM     16  C   UNL     1      -7.908 -10.570  18.025  0.00  0.00    +0.074 C 
ATOM     17  C   UNL     1      -9.213  -8.799  15.729  0.00  0.00    +0.232 C 
ATOM     18  C   UNL     1      -7.357  -9.320  17.312  0.00  0.00    +0.123 C 
ATOM     21  C   UNL     1      -9.834 -11.839  18.791  0.00  0.00    +0.105 C 
ATOM     37  H   UNL     1      -7.319  -9.420  15.188  0.00  0.00    +0.149 HD
ENDROOT
BRANCH   7  19
ATOM     19  C   UNL     1     -11.469  -6.571  16.316  0.00  0.00    +0.120 C 
BRANCH  19  23
ATOM     23  C   UNL     1     -12.373  -6.275  15.148  0.00  0.00    -0.030 A 
ATOM     25  C   UNL     1     -11.839  -5.775  13.962  0.00  0.00    +0.051 A 
ATOM     26  C   UNL     1     -13.746  -6.502  15.255  0.00  0.00    +0.005 A 
ATOM     27  C   UNL     1     -12.677  -5.501  12.880  0.00  0.00    +0.130 A 
ATOM     28  C   UNL     1     -14.584  -6.227  14.175  0.00  0.00    +0.004 A 
ATOM     29  C   UNL     1     -14.049  -5.727  12.987  0.00  0.00    +0.046 A 
BRANCH  27   6
ATOM      6  O   UNL     1     -12.155  -5.011  11.723  0.00  0.00    -0.406 OA
BRANCH   6  32
ATOM      1  F   UNL     1     -13.471  -3.244  11.107  0.00  0.00    -0.133 F 
ATOM      2  F   UNL     1     -11.373  -3.288  10.491  0.00  0.00    -0.133 F 
ATOM      3  F   UNL     1     -11.864  -2.914  12.588  0.00  0.00    -0.133 F 
ATOM     32  C   UNL     1     -12.228  -3.609  11.490  0.00  0.00    +0.575 C 
ENDBRANCH   6  32
ENDBRANCH  27   6
ENDBRANCH  19  23
ENDBRANCH   7  19
BRANCH  16  20
ATOM     20  C   UNL     1      -7.121 -11.789  17.497  0.00  0.00    +0.029 C 
BRANCH  20  22
ATOM     22  C   UNL     1      -6.223 -12.357  18.580  0.00  0.00    +0.097 C 
BRANCH  22  24
ATOM      5  O   UNL     1      -3.917 -12.042  19.247  0.00  0.00    -0.276 OA
ATOM     10  N   UNL     1      -4.554 -11.481  17.086  0.00  0.00    -0.311 N 
ATOM     24  C   UNL     1      -4.773 -11.953  18.372  0.00  0.00    +0.213 C 
ATOM     38  H   UNL     1      -5.330 -11.427  16.432  0.00  0.00    +0.149 HD
BRANCH  10  30
ATOM     30  C   UNL     1      -3.256 -11.033  16.641  0.00  0.00    +0.141 C 
BRANCH  30  31
ATOM     11  N   UNL     1      -1.929 -10.319  13.168  0.00  0.00    -0.263 NA
ATOM     31  C   UNL     1      -3.221 -10.807  15.153  0.00  0.00    -0.012 A 
ATOM     33  C   UNL     1      -4.383 -10.864  14.391  0.00  0.00    +0.008 A 
ATOM     34  C   UNL     1      -2.030 -10.533  14.499  0.00  0.00    +0.115 A 
ATOM     35  C   UNL     1      -4.320 -10.648  13.019  0.00  0.00    +0.020 A 
ATOM     36  C   UNL     1      -3.080 -10.382  12.461  0.00  0.00    +0.111 A 
ENDBRANCH  30  31
ENDBRANCH  10  30
ENDBRANCH  22  24
ENDBRANCH  20  22
ENDBRANCH  16  20
TORSDOF 9
ENDMDL
MODEL 6
REMARK VINA RESULT:      -6.9      1.978      2.923
REMARK  Name = 45361000
REMARK  10 active torsions:
REMARK  status: ('A' for Active; 'I' for Inactive)
REMARK    1  A    between atoms: O_6  and  C_27
REMARK    2  A    between atoms: O_6  and  C_32
REMARK    3  A    between atoms: N_7  and  C_19
REMARK    4  A    between atoms: N_8  and  C_21
REMARK    5  A    between atoms: N_10  and  C_30
REMARK    6  A    between atoms: C_16  and  C_20
REMARK    7  A    between atoms: C_19  and  C_23
REMARK    8  A    between atoms: C_20  and  C_22
REMARK    9  A    between atoms: C_22  and  C_24
REMARK   10  A    between atoms: C_30  and  C_31
REMARK                            x       y       z     vdW  Elec       q    Type
REMARK                         _______ _______ _______ _____ _____    ______ ____
ROOT
ATOM      4  O   UNL     1      -9.092  -9.350  14.459  0.00  0.00    -0.274 OA
ATOM      7  N   UNL     1     -10.117  -8.699  16.872  0.00  0.00    -0.286 NA
ATOM      8  N   UNL     1      -7.566 -11.254  17.465  0.00  0.00    -0.296 NA
ATOM      9  N   UNL     1      -6.940  -9.572  15.208  0.00  0.00    -0.312 N 
ATOM     12  C   UNL     1      -8.408 -10.107  17.868  0.00  0.00    +0.084 C 
ATOM     13  C   UNL     1      -8.668  -8.978  16.827  0.00  0.00    +0.161 C 
ATOM     14  C   UNL     1      -9.839 -10.497  18.283  0.00  0.00    +0.036 C 
ATOM     15  C   UNL     1     -10.610  -9.201  18.149  0.00  0.00    +0.087 C 
ATOM     16  C   UNL     1      -6.155 -10.900  17.144  0.00  0.00    +0.074 C 
ATOM     17  C   UNL     1      -8.288  -9.323  15.390  0.00  0.00    +0.232 C 
ATOM     18  C   UNL     1      -5.983  -9.627  16.294  0.00  0.00    +0.123 C 
ATOM     21  C   UNL     1      -7.606 -12.316  18.486  0.00  0.00    +0.105 C 
ATOM     37  H   UNL     1      -6.616  -9.785  14.270  0.00  0.00    +0.149 HD
ENDROOT
BRANCH   7  19
ATOM     19  C   UNL     1     -10.440  -7.292  16.673  0.00  0.00    +0.120 C 
BRANCH  19  23
ATOM     23  C   UNL     1     -11.532  -7.106  15.653  0.00  0.00    -0.030 A 
ATOM     25  C   UNL     1     -11.800  -5.837  15.142  0.00  0.00    +0.051 A 
ATOM     26  C   UNL     1     -12.275  -8.205  15.220  0.00  0.00    +0.005 A 
ATOM     27  C   UNL     1     -12.811  -5.665  14.197  0.00  0.00    +0.130 A 
ATOM     28  C   UNL     1     -13.288  -8.032  14.276  0.00  0.00    +0.004 A 
ATOM     29  C   UNL     1     -13.555  -6.763  13.764  0.00  0.00    +0.046 A 
BRANCH  27   6
ATOM      6  O   UNL     1     -13.073  -4.425  13.700  0.00  0.00    -0.406 OA
BRANCH   6  32
ATOM      1  F   UNL     1     -13.595  -3.949  11.524  0.00  0.00    -0.133 F 
ATOM      2  F   UNL     1     -11.798  -5.113  11.968  0.00  0.00    -0.133 F 
ATOM      3  F   UNL     1     -11.832  -2.978  12.437  0.00  0.00    -0.133 F 
ATOM     32  C   UNL     1     -12.581  -4.100  12.405  0.00  0.00    +0.575 C 
ENDBRANCH   6  32
ENDBRANCH  27   6
ENDBRANCH  19  23
ENDBRANCH   7  19
BRANCH  16  20
ATOM     20  C   UNL     1      -5.466 -12.058  16.390  0.00  0.00    +0.029 C 
BRANCH  20  22
ATOM     22  C   UNL     1      -3.989 -11.769  16.199  0.00  0.00    +0.097 C 
BRANCH  22  24
ATOM      5  O   UNL     1      -2.951 -13.287  14.624  0.00  0.00    -0.276 OA
ATOM     10  N   UNL     1      -3.770 -11.254  13.860  0.00  0.00    -0.311 N 
ATOM     24  C   UNL     1      -3.506 -12.211  14.828  0.00  0.00    +0.213 C 
ATOM     38  H   UNL     1      -4.219 -10.382  14.126  0.00  0.00    +0.149 HD
BRANCH  10  30
ATOM     30  C   UNL     1      -3.406 -11.437  12.475  0.00  0.00    +0.141 C 
BRANCH  30  31
ATOM     11  N   UNL     1      -5.690  -8.712  11.177  0.00  0.00    -0.263 NA
ATOM     31  C   UNL     1      -3.955 -10.342  11.601  0.00  0.00    -0.012 A 
ATOM     33  C   UNL     1      -3.288  -9.943  10.447  0.00  0.00    +0.008 A 
ATOM     34  C   UNL     1      -5.141  -9.700  11.919  0.00  0.00    +0.115 A 
ATOM     35  C   UNL     1      -3.821  -8.930   9.658  0.00  0.00    +0.020 A 
ATOM     36  C   UNL     1      -5.014  -8.352  10.063  0.00  0.00    +0.111 A 
ENDBRANCH  30  31
ENDBRANCH  10  30
ENDBRANCH  22  24
ENDBRANCH  20  22
ENDBRANCH  16  20
TORSDOF 9
ENDMDL
MODEL 7
REMARK VINA RESULT:      -6.9     25.194     29.406
REMARK  Name = 45361000
REMARK  10 active torsions:
REMARK  status: ('A' for Active; 'I' for Inactive)
REMARK    1  A    between atoms: O_6  and  C_27
REMARK    2  A    between atoms: O_6  and  C_32
REMARK    3  A    between atoms: N_7  and  C_19
REMARK    4  A    between atoms: N_8  and  C_21
REMARK    5  A    between atoms: N_10  and  C_30
REMARK    6  A    between atoms: C_16  and  C_20
REMARK    7  A    between atoms: C_19  and  C_23
REMARK    8  A    between atoms: C_20  and  C_22
REMARK    9  A    between atoms: C_22  and  C_24
REMARK   10  A    between atoms: C_30  and  C_31
REMARK                            x       y       z     vdW  Elec       q    Type
REMARK                         _______ _______ _______ _____ _____    ______ ____
ROOT
ATOM      4  O   UNL     1      12.145   7.666   4.535  0.00  0.00    -0.274 OA
ATOM      7  N   UNL     1      10.631   5.982   3.061  0.00  0.00    -0.286 NA
ATOM      8  N   UNL     1      13.301   7.193   0.870  0.00  0.00    -0.296 NA
ATOM      9  N   UNL     1      14.135   6.996   3.624  0.00  0.00    -0.312 N 
ATOM     12  C   UNL     1      12.276   6.211   1.290  0.00  0.00    +0.084 C 
ATOM     13  C   UNL     1      12.086   5.946   2.813  0.00  0.00    +0.161 C 
ATOM     14  C   UNL     1      10.847   6.572   0.846  0.00  0.00    +0.036 C 
ATOM     15  C   UNL     1       9.973   5.761   1.779  0.00  0.00    +0.087 C 
ATOM     16  C   UNL     1      14.698   6.812   1.220  0.00  0.00    +0.074 C 
ATOM     17  C   UNL     1      12.758   6.960   3.735  0.00  0.00    +0.232 C 
ATOM     18  C   UNL     1      14.879   6.238   2.638  0.00  0.00    +0.123 C 
ATOM     21  C   UNL     1      13.195   7.474  -0.572  0.00  0.00    +0.105 C 
ATOM     37  H   UNL     1      14.647   7.634   4.227  0.00  0.00    +0.149 HD
ENDROOT
BRANCH   7  19
ATOM     19  C   UNL     1      10.195   5.032   4.074  0.00  0.00    +0.120 C 
BRANCH  19  23
ATOM     23  C   UNL     1       9.657   5.724   5.299  0.00  0.00    -0.030 A 
ATOM     25  C   UNL     1      10.141   5.384   6.561  0.00  0.00    +0.051 A 
ATOM     26  C   UNL     1       8.673   6.706   5.169  0.00  0.00    +0.005 A 
ATOM     27  C   UNL     1       9.643   6.026   7.696  0.00  0.00    +0.130 A 
ATOM     28  C   UNL     1       8.174   7.346   6.303  0.00  0.00    +0.004 A 
ATOM     29  C   UNL     1       8.659   7.006   7.566  0.00  0.00    +0.046 A 
BRANCH  27   6
ATOM      6  O   UNL     1      10.115   5.693   8.928  0.00  0.00    -0.406 OA
BRANCH   6  32
ATOM      1  F   UNL     1       9.067   3.660   8.881  0.00  0.00    -0.133 F 
ATOM      2  F   UNL     1       8.287   5.242  10.174  0.00  0.00    -0.133 F 
ATOM      3  F   UNL     1      10.164   4.255  10.705  0.00  0.00    -0.133 F 
ATOM     32  C   UNL     1       9.420   4.698   9.671  0.00  0.00    +0.575 C 
ENDBRANCH   6  32
ENDBRANCH  27   6
ENDBRANCH  19  23
ENDBRANCH   7  19
BRANCH  16  20
ATOM     20  C   UNL     1      15.638   8.030   1.089  0.00  0.00    +0.029 C 
BRANCH  20  22
ATOM     22  C   UNL     1      17.089   7.600   1.189  0.00  0.00    +0.097 C 
BRANCH  22  24
ATOM      5  O   UNL     1      18.365   9.554   1.834  0.00  0.00    -0.276 OA
ATOM     10  N   UNL     1      17.939   7.912   3.417  0.00  0.00    -0.311 N 
ATOM     24  C   UNL     1      17.867   8.479   2.153  0.00  0.00    +0.213 C 
ATOM     38  H   UNL     1      17.511   7.006   3.586  0.00  0.00    +0.149 HD
BRANCH  10  30
ATOM     30  C   UNL     1      18.628   8.553   4.512  0.00  0.00    +0.141 C 
BRANCH  30  31
ATOM     11  N   UNL     1      22.389   8.932   4.716  0.00  0.00    -0.263 NA
ATOM     31  C   UNL     1      20.091   8.201   4.537  0.00  0.00    -0.012 A 
ATOM     33  C   UNL     1      20.513   6.881   4.409  0.00  0.00    +0.008 A 
ATOM     34  C   UNL     1      21.060   9.180   4.687  0.00  0.00    +0.115 A 
ATOM     35  C   UNL     1      21.872   6.587   4.434  0.00  0.00    +0.020 A 
ATOM     36  C   UNL     1      22.761   7.639   4.588  0.00  0.00    +0.111 A 
ENDBRANCH  30  31
ENDBRANCH  10  30
ENDBRANCH  22  24
ENDBRANCH  20  22
ENDBRANCH  16  20
TORSDOF 9
ENDMDL
MODEL 8
REMARK VINA RESULT:      -6.8      3.679      8.566
REMARK  Name = 45361000
REMARK  10 active torsions:
REMARK  status: ('A' for Active; 'I' for Inactive)
REMARK    1  A    between atoms: O_6  and  C_27
REMARK    2  A    between atoms: O_6  and  C_32
REMARK    3  A    between atoms: N_7  and  C_19
REMARK    4  A    between atoms: N_8  and  C_21
REMARK    5  A    between atoms: N_10  and  C_30
REMARK    6  A    between atoms: C_16  and  C_20
REMARK    7  A    between atoms: C_19  and  C_23
REMARK    8  A    between atoms: C_20  and  C_22
REMARK    9  A    between atoms: C_22  and  C_24
REMARK   10  A    between atoms: C_30  and  C_31
REMARK                            x       y       z     vdW  Elec       q    Type
REMARK                         _______ _______ _______ _____ _____    ______ ____
ROOT
ATOM      4  O   UNL     1      -6.270  -9.953  15.071  0.00  0.00    -0.274 OA
ATOM      7  N   UNL     1      -5.102 -11.829  16.625  0.00  0.00    -0.286 NA
ATOM      8  N   UNL     1      -8.340 -11.062  18.149  0.00  0.00    -0.296 NA
ATOM      9  N   UNL     1      -8.383 -10.808  15.276  0.00  0.00    -0.312 N 
ATOM     12  C   UNL     1      -7.177 -11.937  17.882  0.00  0.00    +0.084 C 
ATOM     13  C   UNL     1      -6.564 -11.937  16.450  0.00  0.00    +0.161 C 
ATOM     14  C   UNL     1      -5.948 -11.627  18.757  0.00  0.00    +0.036 C 
ATOM     15  C   UNL     1      -4.802 -12.250  17.989  0.00  0.00    +0.087 C 
ATOM     16  C   UNL     1      -9.561 -11.408  17.370  0.00  0.00    +0.074 C 
ATOM     17  C   UNL     1      -7.028 -10.797  15.549  0.00  0.00    +0.232 C 
ATOM     18  C   UNL     1      -9.313 -11.738  15.886  0.00  0.00    +0.123 C 
ATOM     21  C   UNL     1      -8.647 -11.026  19.590  0.00  0.00    +0.105 C 
ATOM     37  H   UNL     1      -8.754 -10.090  14.663  0.00  0.00    +0.149 HD
ENDROOT
BRANCH   7  19
ATOM     19  C   UNL     1      -4.346 -12.586  15.637  0.00  0.00    +0.120 C 
BRANCH  19  23
ATOM     23  C   UNL     1      -3.381 -11.712  14.880  0.00  0.00    -0.030 A 
ATOM     25  C   UNL     1      -3.365 -11.735  13.486  0.00  0.00    +0.051 A 
ATOM     26  C   UNL     1      -2.502 -10.879  15.575  0.00  0.00    +0.005 A 
ATOM     27  C   UNL     1      -2.471 -10.925  12.785  0.00  0.00    +0.130 A 
ATOM     28  C   UNL     1      -1.607 -10.071  14.873  0.00  0.00    +0.004 A 
ATOM     29  C   UNL     1      -1.592 -10.094  13.479  0.00  0.00    +0.046 A 
BRANCH  27   6
ATOM      6  O   UNL     1      -2.455 -10.950  11.424  0.00  0.00    -0.406 OA
BRANCH   6  32
ATOM      1  F   UNL     1      -4.062  -9.322  11.416  0.00  0.00    -0.133 F 
ATOM      2  F   UNL     1      -3.513 -10.300   9.539  0.00  0.00    -0.133 F 
ATOM      3  F   UNL     1      -2.112  -8.903  10.466  0.00  0.00    -0.133 F 
ATOM     32  C   UNL     1      -3.032  -9.855  10.722  0.00  0.00    +0.575 C 
ENDBRANCH   6  32
ENDBRANCH  27   6
ENDBRANCH  19  23
ENDBRANCH   7  19
BRANCH  16  20
ATOM     20  C   UNL     1     -10.581 -10.249  17.424  0.00  0.00    +0.029 C 
BRANCH  20  22
ATOM     22  C   UNL     1      -9.874  -8.923  17.628  0.00  0.00    +0.097 C 
BRANCH  22  24
ATOM      5  O   UNL     1      -9.693  -8.204  15.323  0.00  0.00    -0.276 OA
ATOM     10  N   UNL     1     -10.823  -6.858  16.839  0.00  0.00    -0.311 N 
ATOM     24  C   UNL     1     -10.103  -7.981  16.458  0.00  0.00    +0.213 C 
ATOM     38  H   UNL     1     -11.107  -6.750  17.809  0.00  0.00    +0.149 HD
BRANCH  10  30
ATOM     30  C   UNL     1     -11.169  -5.812  15.907  0.00  0.00    +0.141 C 
BRANCH  30  31
ATOM     11  N   UNL     1     -13.971  -5.786  13.363  0.00  0.00    -0.263 NA
ATOM     31  C   UNL     1     -12.515  -6.045  15.275  0.00  0.00    -0.012 A 
ATOM     33  C   UNL     1     -13.528  -6.702  15.966  0.00  0.00    +0.008 A 
ATOM     34  C   UNL     1     -12.785  -5.611  13.987  0.00  0.00    +0.115 A 
ATOM     35  C   UNL     1     -14.761  -6.901  15.357  0.00  0.00    +0.020 A 
ATOM     36  C   UNL     1     -14.931  -6.428  14.066  0.00  0.00    +0.111 A 
ENDBRANCH  30  31
ENDBRANCH  10  30
ENDBRANCH  22  24
ENDBRANCH  20  22
ENDBRANCH  16  20
TORSDOF 9
ENDMDL
MODEL 9
REMARK VINA RESULT:      -6.5     25.709     29.698
REMARK  Name = 45361000
REMARK  10 active torsions:
REMARK  status: ('A' for Active; 'I' for Inactive)
REMARK    1  A    between atoms: O_6  and  C_27
REMARK    2  A    between atoms: O_6  and  C_32
REMARK    3  A    between atoms: N_7  and  C_19
REMARK    4  A    between atoms: N_8  and  C_21
REMARK    5  A    between atoms: N_10  and  C_30
REMARK    6  A    between atoms: C_16  and  C_20
REMARK    7  A    between atoms: C_19  and  C_23
REMARK    8  A    between atoms: C_20  and  C_22
REMARK    9  A    between atoms: C_22  and  C_24
REMARK   10  A    between atoms: C_30  and  C_31
REMARK                            x       y       z     vdW  Elec       q    Type
REMARK                         _______ _______ _______ _____ _____    ______ ____
ROOT
ATOM      4  O   UNL     1      12.655   5.894   7.946  0.00  0.00    -0.274 OA
ATOM      7  N   UNL     1      10.315   6.961   7.120  0.00  0.00    -0.286 NA
ATOM      8  N   UNL     1      12.824   9.614   6.890  0.00  0.00    -0.296 NA
ATOM      9  N   UNL     1      13.936   6.998   6.404  0.00  0.00    -0.312 N 
ATOM     12  C   UNL     1      11.554   8.957   6.509  0.00  0.00    +0.084 C 
ATOM     13  C   UNL     1      11.528   7.403   6.405  0.00  0.00    +0.161 C 
ATOM     14  C   UNL     1      10.392   9.233   7.481  0.00  0.00    +0.036 C 
ATOM     15  C   UNL     1       9.419   8.109   7.195  0.00  0.00    +0.087 C 
ATOM     16  C   UNL     1      13.932   9.425   5.913  0.00  0.00    +0.074 C 
ATOM     17  C   UNL     1      12.733   6.694   7.015  0.00  0.00    +0.232 C 
ATOM     18  C   UNL     1      14.073   7.994   5.360  0.00  0.00    +0.123 C 
ATOM     21  C   UNL     1      12.612  11.049   7.149  0.00  0.00    +0.105 C 
ATOM     37  H   UNL     1      14.775   6.541   6.746  0.00  0.00    +0.149 HD
ENDROOT
BRANCH   7  19
ATOM     19  C   UNL     1       9.675   5.804   6.509  0.00  0.00    +0.120 C 
BRANCH  19  23
ATOM     23  C   UNL     1       9.845   5.793   5.013  0.00  0.00    -0.030 A 
ATOM     25  C   UNL     1      10.495   4.728   4.392  0.00  0.00    +0.051 A 
ATOM     26  C   UNL     1       9.351   6.851   4.248  0.00  0.00    +0.005 A 
ATOM     27  C   UNL     1      10.653   4.718   3.006  0.00  0.00    +0.130 A 
ATOM     28  C   UNL     1       9.510   6.842   2.863  0.00  0.00    +0.004 A 
ATOM     29  C   UNL     1      10.160   5.775   2.242  0.00  0.00    +0.046 A 
BRANCH  27   6
ATOM      6  O   UNL     1      11.290   3.678   2.401  0.00  0.00    -0.406 OA
BRANCH   6  32
ATOM      1  F   UNL     1      13.166   4.985   2.340  0.00  0.00    -0.133 F 
ATOM      2  F   UNL     1      12.332   4.214   0.472  0.00  0.00    -0.133 F 
ATOM      3  F   UNL     1      13.341   2.839   1.840  0.00  0.00    -0.133 F 
ATOM     32  C   UNL     1      12.544   3.926   1.777  0.00  0.00    +0.575 C 
ENDBRANCH   6  32
ENDBRANCH  27   6
ENDBRANCH  19  23
ENDBRANCH   7  19
BRANCH  16  20
ATOM     20  C   UNL     1      15.285   9.811   6.550  0.00  0.00    +0.029 C 
BRANCH  20  22
ATOM     22  C   UNL     1      16.241  10.340   5.498  0.00  0.00    +0.097 C 
BRANCH  22  24
ATOM      5  O   UNL     1      18.432  11.128   6.165  0.00  0.00    -0.276 OA
ATOM     10  N   UNL     1      18.052   8.843   6.013  0.00  0.00    -0.311 N 
ATOM     24  C   UNL     1      17.690  10.179   5.928  0.00  0.00    +0.213 C 
ATOM     38  H   UNL     1      17.374   8.123   5.780  0.00  0.00    +0.149 HD
BRANCH  10  30
ATOM     30  C   UNL     1      19.379   8.428   6.401  0.00  0.00    +0.141 C 
BRANCH  30  31
ATOM     11  N   UNL     1      20.328   7.531   2.848  0.00  0.00    -0.263 NA
ATOM     31  C   UNL     1      20.163   7.892   5.232  0.00  0.00    -0.012 A 
ATOM     33  C   UNL     1      21.397   7.278   5.418  0.00  0.00    +0.008 A 
ATOM     34  C   UNL     1      19.677   7.992   3.939  0.00  0.00    +0.115 A 
ATOM     35  C   UNL     1      22.097   6.791   4.320  0.00  0.00    +0.020 A 
ATOM     36  C   UNL     1      21.524   6.940   3.068  0.00  0.00    +0.111 A 
ENDBRANCH  30  31
ENDBRANCH  10  30
ENDBRANCH  22  24
ENDBRANCH  20  22
ENDBRANCH  16  20
TORSDOF 9
ENDMDL
MODEL 10
REMARK VINA RESULT:      -6.5     24.985     29.112
REMARK  Name = 45361000
REMARK  10 active torsions:
REMARK  status: ('A' for Active; 'I' for Inactive)
REMARK    1  A    between atoms: O_6  and  C_27
REMARK    2  A    between atoms: O_6  and  C_32
REMARK    3  A    between atoms: N_7  and  C_19
REMARK    4  A    between atoms: N_8  and  C_21
REMARK    5  A    between atoms: N_10  and  C_30
REMARK    6  A    between atoms: C_16  and  C_20
REMARK    7  A    between atoms: C_19  and  C_23
REMARK    8  A    between atoms: C_20  and  C_22
REMARK    9  A    between atoms: C_22  and  C_24
REMARK   10  A    between atoms: C_30  and  C_31
REMARK                            x       y       z     vdW  Elec       q    Type
REMARK                         _______ _______ _______ _____ _____    ______ ____
ROOT
ATOM      4  O   UNL     1      13.244   6.332   2.827  0.00  0.00    -0.274 OA
ATOM      7  N   UNL     1      11.174   4.899   1.847  0.00  0.00    -0.286 NA
ATOM      8  N   UNL     1      13.893   4.621  -0.585  0.00  0.00    -0.296 NA
ATOM      9  N   UNL     1      14.854   4.865   2.124  0.00  0.00    -0.312 N 
ATOM     12  C   UNL     1      12.658   4.149   0.078  0.00  0.00    +0.084 C 
ATOM     13  C   UNL     1      12.523   4.346   1.617  0.00  0.00    +0.161 C 
ATOM     14  C   UNL     1      11.373   4.819  -0.445  0.00  0.00    +0.036 C 
ATOM     15  C   UNL     1      10.375   4.584   0.669  0.00  0.00    +0.087 C 
ATOM     16  C   UNL     1      15.133   3.920  -0.148  0.00  0.00    +0.074 C 
ATOM     17  C   UNL     1      13.545   5.293   2.240  0.00  0.00    +0.232 C 
ATOM     18  C   UNL     1      15.248   3.691   1.371  0.00  0.00    +0.123 C 
ATOM     21  C   UNL     1      13.759   4.553  -2.051  0.00  0.00    +0.105 C 
ATOM     37  H   UNL     1      15.583   5.438   2.537  0.00  0.00    +0.149 HD
ENDROOT
BRANCH   7  19
ATOM     19  C   UNL     1      10.555   4.418   3.075  0.00  0.00    +0.120 C 
BRANCH  19  23
ATOM     23  C   UNL     1      10.182   5.550   3.996  0.00  0.00    -0.030 A 
ATOM     25  C   UNL     1      10.561   5.512   5.337  0.00  0.00    +0.051 A 
ATOM     26  C   UNL     1       9.455   6.636   3.506  0.00  0.00    +0.005 A 
ATOM     27  C   UNL     1      10.216   6.560   6.190  0.00  0.00    +0.130 A 
ATOM     28  C   UNL     1       9.109   7.684   4.359  0.00  0.00    +0.004 A 
ATOM     29  C   UNL     1       9.490   7.646   5.701  0.00  0.00    +0.046 A 
BRANCH  27   6
ATOM      6  O   UNL     1      10.586   6.522   7.499  0.00  0.00    -0.406 OA
BRANCH   6  32
ATOM      1  F   UNL     1       8.694   6.673   8.776  0.00  0.00    -0.133 F 
ATOM      2  F   UNL     1      10.425   5.581   9.545  0.00  0.00    -0.133 F 
ATOM      3  F   UNL     1       9.250   4.714   7.918  0.00  0.00    -0.133 F 
ATOM     32  C   UNL     1       9.723   5.871   8.425  0.00  0.00    +0.575 C 
ENDBRANCH   6  32
ENDBRANCH  27   6
ENDBRANCH  19  23
ENDBRANCH   7  19
BRANCH  16  20
ATOM     20  C   UNL     1      16.384   4.707  -0.595  0.00  0.00    +0.029 C 
BRANCH  20  22
ATOM     22  C   UNL     1      16.112   6.200  -0.578  0.00  0.00    +0.097 C 
BRANCH  22  24
ATOM      5  O   UNL     1      18.312   7.210  -0.563  0.00  0.00    -0.276 OA
ATOM     10  N   UNL     1      16.988   7.361   1.337  0.00  0.00    -0.311 N 
ATOM     24  C   UNL     1      17.267   6.972   0.035  0.00  0.00    +0.213 C 
ATOM     38  H   UNL     1      16.100   7.102   1.759  0.00  0.00    +0.149 HD
BRANCH  10  30
ATOM     30  C   UNL     1      17.930   8.107   2.137  0.00  0.00    +0.141 C 
BRANCH  30  31
ATOM     11  N   UNL     1      15.725   7.912   5.209  0.00  0.00    -0.263 NA
ATOM     31  C   UNL     1      17.447   8.284   3.552  0.00  0.00    -0.012 A 
ATOM     33  C   UNL     1      18.219   8.956   4.494  0.00  0.00    +0.008 A 
ATOM     34  C   UNL     1      16.219   7.785   3.956  0.00  0.00    +0.115 A 
ATOM     35  C   UNL     1      17.745   9.106   5.793  0.00  0.00    +0.020 A 
ATOM     36  C   UNL     1      16.504   8.570   6.097  0.00  0.00    +0.111 A 
ENDBRANCH  30  31
ENDBRANCH  10  30
ENDBRANCH  22  24
ENDBRANCH  20  22
ENDBRANCH  16  20
TORSDOF 9
ENDMDL
