MODEL 1
REMARK VINA RESULT:      -6.1      0.000      0.000
REMARK  Name = 75367803
REMARK  7 active torsions:
REMARK  status: ('A' for Active; 'I' for Inactive)
REMARK    1  A    between atoms: O_2  and  C_8
REMARK    2  A    between atoms: O_2  and  C_14
REMARK    3  A    between atoms: N_4  and  C_12
REMARK    4  A    between atoms: N_6  and  C_20
REMARK    5  A    between atoms: N_6  and  C_21
REMARK    6  A    between atoms: C_12  and  C_13
REMARK    7  A    between atoms: C_14  and  C_16
REMARK                            x       y       z     vdW  Elec       q    Type
REMARK                         _______ _______ _______ _____ _____    ______ ____
ROOT
ATOM      1  O   UNL     1      14.454   6.781  20.178  0.00  0.00    -0.376 OA
ATOM      4  N   UNL     1      11.991   8.483  21.055  0.00  0.00    -0.292 NA
ATOM      7  C   UNL     1      11.547   8.119  19.705  0.00  0.00    +0.118 C 
ATOM      8  C   UNL     1      12.455   7.195  18.877  0.00  0.00    +0.158 C 
ATOM      9  C   UNL     1      12.676   7.409  21.776  0.00  0.00    +0.113 C 
ATOM     10  C   UNL     1      13.943   7.468  19.039  0.00  0.00    +0.192 C 
ATOM     11  C   UNL     1      14.163   7.407  21.421  0.00  0.00    +0.175 C 
ENDROOT
BRANCH   8   2
ATOM      2  O   UNL     1      12.123   7.367  17.498  0.00  0.00    -0.364 OA
BRANCH   2  14
ATOM     14  C   UNL     1      11.746   8.707  17.223  0.00  0.00    +0.256 C 
BRANCH  14  16
ATOM      3  O   UNL     1      12.788   8.853  15.099  0.00  0.00    -0.273 OA
ATOM      6  N   UNL     1      13.497  10.393  16.687  0.00  0.00    -0.306 N 
ATOM     16  C   UNL     1      12.724   9.320  16.241  0.00  0.00    +0.241 C 
ATOM     20  C   UNL     1      14.444  11.021  15.776  0.00  0.00    +0.131 C 
ATOM     21  C   UNL     1      13.436  10.981  18.023  0.00  0.00    +0.131 C 
ENDBRANCH  14  16
ENDBRANCH   2  14
ENDBRANCH   8   2
BRANCH   4  12
ATOM     12  C   UNL     1      10.868   9.015  21.827  0.00  0.00    +0.140 C 
BRANCH  12  13
ATOM      5  N   UNL     1      10.756  10.734  23.545  0.00  0.00    -0.259 NA
ATOM     13  C   UNL     1      11.120  10.429  22.280  0.00  0.00    +0.055 A 
ATOM     15  C   UNL     1      11.700  11.331  21.401  0.00  0.00    +0.024 A 
ATOM     17  C   UNL     1      11.921  12.627  21.850  0.00  0.00    +0.003 A 
ATOM     18  C   UNL     1      10.986  12.005  23.947  0.00  0.00    +0.111 A 
ATOM     19  C   UNL     1      11.560  12.979  23.146  0.00  0.00    +0.020 A 
ENDBRANCH  12  13
ENDBRANCH   4  12
TORSDOF 5
ENDMDL
MODEL 2
REMARK VINA RESULT:      -5.8      3.274      7.087
REMARK  Name = 75367803
REMARK  7 active torsions:
REMARK  status: ('A' for Active; 'I' for Inactive)
REMARK    1  A    between atoms: O_2  and  C_8
REMARK    2  A    between atoms: O_2  and  C_14
REMARK    3  A    between atoms: N_4  and  C_12
REMARK    4  A    between atoms: N_6  and  C_20
REMARK    5  A    between atoms: N_6  and  C_21
REMARK    6  A    between atoms: C_12  and  C_13
REMARK    7  A    between atoms: C_14  and  C_16
REMARK                            x       y       z     vdW  Elec       q    Type
REMARK                         _______ _______ _______ _____ _____    ______ ____
ROOT
ATOM      1  O   UNL     1      13.182  11.295  19.565  0.00  0.00    -0.376 OA
ATOM      4  N   UNL     1      14.021   8.370  20.252  0.00  0.00    -0.292 NA
ATOM      7  C   UNL     1      13.252   8.678  21.463  0.00  0.00    +0.118 C 
ATOM      8  C   UNL     1      12.570  10.052  21.549  0.00  0.00    +0.158 C 
ATOM      9  C   UNL     1      13.439   8.898  19.018  0.00  0.00    +0.113 C 
ATOM     10  C   UNL     1      13.389  11.197  20.970  0.00  0.00    +0.192 C 
ATOM     11  C   UNL     1      13.901  10.339  18.797  0.00  0.00    +0.175 C 
ENDROOT
BRANCH   8   2
ATOM      2  O   UNL     1      12.323  10.340  22.927  0.00  0.00    -0.364 OA
BRANCH   2  14
ATOM     14  C   UNL     1      10.998  10.806  23.126  0.00  0.00    +0.256 C 
BRANCH  14  16
ATOM      3  O   UNL     1      11.124  10.970  25.487  0.00  0.00    -0.273 OA
ATOM      6  N   UNL     1      10.623  12.936  24.357  0.00  0.00    -0.306 N 
ATOM     16  C   UNL     1      10.919  11.575  24.430  0.00  0.00    +0.241 C 
ATOM     20  C   UNL     1      10.545  13.719  25.584  0.00  0.00    +0.131 C 
ATOM     21  C   UNL     1      10.392  13.687  23.125  0.00  0.00    +0.131 C 
ENDBRANCH  14  16
ENDBRANCH   2  14
ENDBRANCH   8   2
BRANCH   4  12
ATOM     12  C   UNL     1      14.258   6.929  20.160  0.00  0.00    +0.140 C 
BRANCH  12  13
ATOM      5  N   UNL     1      16.183   6.004  18.995  0.00  0.00    -0.259 NA
ATOM     13  C   UNL     1      15.727   6.605  20.116  0.00  0.00    +0.055 A 
ATOM     15  C   UNL     1      16.527   6.931  21.201  0.00  0.00    +0.024 A 
ATOM     17  C   UNL     1      17.880   6.621  21.128  0.00  0.00    +0.003 A 
ATOM     18  C   UNL     1      17.503   5.717  18.961  0.00  0.00    +0.111 A 
ATOM     19  C   UNL     1      18.386   6.002  19.990  0.00  0.00    +0.020 A 
ENDBRANCH  12  13
ENDBRANCH   4  12
TORSDOF 5
ENDMDL
MODEL 3
REMARK VINA RESULT:      -5.3      2.424      4.035
REMARK  Name = 75367803
REMARK  7 active torsions:
REMARK  status: ('A' for Active; 'I' for Inactive)
REMARK    1  A    between atoms: O_2  and  C_8
REMARK    2  A    between atoms: O_2  and  C_14
REMARK    3  A    between atoms: N_4  and  C_12
REMARK    4  A    between atoms: N_6  and  C_20
REMARK    5  A    between atoms: N_6  and  C_21
REMARK    6  A    between atoms: C_12  and  C_13
REMARK    7  A    between atoms: C_14  and  C_16
REMARK                            x       y       z     vdW  Elec       q    Type
REMARK                         _______ _______ _______ _____ _____    ______ ____
ROOT
ATOM      1  O   UNL     1      15.307  12.846  19.898  0.00  0.00    -0.376 OA
ATOM      4  N   UNL     1      14.440  10.093  21.080  0.00  0.00    -0.292 NA
ATOM      7  C   UNL     1      14.580   9.703  19.673  0.00  0.00    +0.118 C 
ATOM      8  C   UNL     1      15.067  10.769  18.679  0.00  0.00    +0.158 C 
ATOM      9  C   UNL     1      15.468  11.020  21.555  0.00  0.00    +0.113 C 
ATOM     10  C   UNL     1      14.513  12.164  18.932  0.00  0.00    +0.192 C 
ATOM     11  C   UNL     1      15.058  12.460  21.243  0.00  0.00    +0.175 C 
ENDROOT
BRANCH   8   2
ATOM      2  O   UNL     1      14.667  10.368  17.367  0.00  0.00    -0.364 OA
BRANCH   2  14
ATOM     14  C   UNL     1      14.166   9.041  17.366  0.00  0.00    +0.256 C 
BRANCH  14  16
ATOM      3  O   UNL     1      13.167   9.015  15.216  0.00  0.00    -0.273 OA
ATOM      6  N   UNL     1      11.716   8.780  17.014  0.00  0.00    -0.306 N 
ATOM     16  C   UNL     1      12.974   8.947  16.435  0.00  0.00    +0.241 C 
ATOM     20  C   UNL     1      10.541   8.675  16.159  0.00  0.00    +0.131 C 
ATOM     21  C   UNL     1      11.452   8.679  18.448  0.00  0.00    +0.131 C 
ENDBRANCH  14  16
ENDBRANCH   2  14
ENDBRANCH   8   2
BRANCH   4  12
ATOM     12  C   UNL     1      14.359   8.903  21.927  0.00  0.00    +0.140 C 
BRANCH  12  13
ATOM      5  N   UNL     1      11.958   9.068  22.283  0.00  0.00    -0.259 NA
ATOM     13  C   UNL     1      12.987   8.283  21.893  0.00  0.00    +0.055 A 
ATOM     15  C   UNL     1      12.845   6.970  21.472  0.00  0.00    +0.024 A 
ATOM     17  C   UNL     1      11.565   6.429  21.450  0.00  0.00    +0.003 A 
ATOM     18  C   UNL     1      10.728   8.507  22.249  0.00  0.00    +0.111 A 
ATOM     19  C   UNL     1      10.481   7.205  21.844  0.00  0.00    +0.020 A 
ENDBRANCH  12  13
ENDBRANCH   4  12
TORSDOF 5
ENDMDL
MODEL 4
REMARK VINA RESULT:      -5.0     26.409     27.903
REMARK  Name = 75367803
REMARK  7 active torsions:
REMARK  status: ('A' for Active; 'I' for Inactive)
REMARK    1  A    between atoms: O_2  and  C_8
REMARK    2  A    between atoms: O_2  and  C_14
REMARK    3  A    between atoms: N_4  and  C_12
REMARK    4  A    between atoms: N_6  and  C_20
REMARK    5  A    between atoms: N_6  and  C_21
REMARK    6  A    between atoms: C_12  and  C_13
REMARK    7  A    between atoms: C_14  and  C_16
REMARK                            x       y       z     vdW  Elec       q    Type
REMARK                         _______ _______ _______ _____ _____    ______ ____
ROOT
ATOM      1  O   UNL     1      -3.662 -13.580  15.184  0.00  0.00    -0.376 OA
ATOM      4  N   UNL     1      -2.971 -11.609  12.868  0.00  0.00    -0.292 NA
ATOM      7  C   UNL     1      -3.670 -10.677  13.760  0.00  0.00    +0.118 C 
ATOM      8  C   UNL     1      -4.163 -11.213  15.113  0.00  0.00    +0.158 C 
ATOM      9  C   UNL     1      -2.104 -12.567  13.555  0.00  0.00    +0.113 C 
ATOM     10  C   UNL     1      -4.716 -12.631  15.063  0.00  0.00    +0.192 C 
ATOM     11  C   UNL     1      -2.916 -13.786  13.992  0.00  0.00    +0.175 C 
ENDROOT
BRANCH   8   2
ATOM      2  O   UNL     1      -5.202 -10.351  15.580  0.00  0.00    -0.364 OA
BRANCH   2  14
ATOM     14  C   UNL     1      -4.940  -9.896  16.898  0.00  0.00    +0.256 C 
BRANCH  14  16
ATOM      3  O   UNL     1      -7.174  -9.888  17.688  0.00  0.00    -0.273 OA
ATOM      6  N   UNL     1      -5.711 -11.316  18.790  0.00  0.00    -0.306 N 
ATOM     16  C   UNL     1      -6.042 -10.362  17.827  0.00  0.00    +0.241 C 
ATOM     20  C   UNL     1      -6.740 -11.802  19.700  0.00  0.00    +0.131 C 
ATOM     21  C   UNL     1      -4.389 -11.911  18.973  0.00  0.00    +0.131 C 
ENDBRANCH  14  16
ENDBRANCH   2  14
ENDBRANCH   8   2
BRANCH   4  12
ATOM     12  C   UNL     1      -2.241 -10.868  11.839  0.00  0.00    +0.140 C 
BRANCH  12  13
ATOM      5  N   UNL     1      -3.762 -11.516  10.054  0.00  0.00    -0.259 NA
ATOM     13  C   UNL     1      -3.128 -10.499  10.679  0.00  0.00    +0.055 A 
ATOM     15  C   UNL     1      -3.252  -9.167  10.316  0.00  0.00    +0.024 A 
ATOM     17  C   UNL     1      -4.081  -8.860   9.243  0.00  0.00    +0.003 A 
ATOM     18  C   UNL     1      -4.558 -11.179   9.014  0.00  0.00    +0.111 A 
ATOM     19  C   UNL     1      -4.750  -9.879   8.574  0.00  0.00    +0.020 A 
ENDBRANCH  12  13
ENDBRANCH   4  12
TORSDOF 5
ENDMDL
MODEL 5
REMARK VINA RESULT:      -4.9     26.434     28.051
REMARK  Name = 75367803
REMARK  7 active torsions:
REMARK  status: ('A' for Active; 'I' for Inactive)
REMARK    1  A    between atoms: O_2  and  C_8
REMARK    2  A    between atoms: O_2  and  C_14
REMARK    3  A    between atoms: N_4  and  C_12
REMARK    4  A    between atoms: N_6  and  C_20
REMARK    5  A    between atoms: N_6  and  C_21
REMARK    6  A    between atoms: C_12  and  C_13
REMARK    7  A    between atoms: C_14  and  C_16
REMARK                            x       y       z     vdW  Elec       q    Type
REMARK                         _______ _______ _______ _____ _____    ______ ____
ROOT
ATOM      1  O   UNL     1      -5.717 -14.444  15.544  0.00  0.00    -0.376 OA
ATOM      4  N   UNL     1      -3.913 -11.942  15.074  0.00  0.00    -0.292 NA
ATOM      7  C   UNL     1      -4.090 -11.827  16.526  0.00  0.00    +0.118 C 
ATOM      8  C   UNL     1      -4.898 -12.922  17.239  0.00  0.00    +0.158 C 
ATOM      9  C   UNL     1      -3.734 -13.314  14.595  0.00  0.00    +0.113 C 
ATOM     10  C   UNL     1      -6.104 -13.423  16.457  0.00  0.00    +0.192 C 
ATOM     11  C   UNL     1      -5.096 -13.966  14.357  0.00  0.00    +0.175 C 
ENDROOT
BRANCH   8   2
ATOM      2  O   UNL     1      -5.366 -12.392  18.480  0.00  0.00    -0.364 OA
BRANCH   2  14
ATOM     14  C   UNL     1      -5.424 -10.975  18.445  0.00  0.00    +0.256 C 
BRANCH  14  16
ATOM      3  O   UNL     1      -7.392 -10.710  19.739  0.00  0.00    -0.273 OA
ATOM      6  N   UNL     1      -7.486  -9.893  17.567  0.00  0.00    -0.306 N 
ATOM     16  C   UNL     1      -6.855 -10.518  18.643  0.00  0.00    +0.241 C 
ATOM     20  C   UNL     1      -8.860  -9.428  17.713  0.00  0.00    +0.131 C 
ATOM     21  C   UNL     1      -6.879  -9.635  16.264  0.00  0.00    +0.131 C 
ENDBRANCH  14  16
ENDBRANCH   2  14
ENDBRANCH   8   2
BRANCH   4  12
ATOM     12  C   UNL     1      -2.824 -11.073  14.629  0.00  0.00    +0.140 C 
BRANCH  12  13
ATOM      5  N   UNL     1      -4.338 -10.333  12.875  0.00  0.00    -0.259 NA
ATOM     13  C   UNL     1      -3.054 -10.555  13.235  0.00  0.00    +0.055 A 
ATOM     15  C   UNL     1      -1.967 -10.334  12.404  0.00  0.00    +0.024 A 
ATOM     17  C   UNL     1      -2.214  -9.854  11.123  0.00  0.00    +0.003 A 
ATOM     18  C   UNL     1      -4.539  -9.867  11.622  0.00  0.00    +0.111 A 
ATOM     19  C   UNL     1      -3.522  -9.613  10.716  0.00  0.00    +0.020 A 
ENDBRANCH  12  13
ENDBRANCH   4  12
TORSDOF 5
ENDMDL
MODEL 6
REMARK VINA RESULT:      -4.9      4.096      5.591
REMARK  Name = 75367803
REMARK  7 active torsions:
REMARK  status: ('A' for Active; 'I' for Inactive)
REMARK    1  A    between atoms: O_2  and  C_8
REMARK    2  A    between atoms: O_2  and  C_14
REMARK    3  A    between atoms: N_4  and  C_12
REMARK    4  A    between atoms: N_6  and  C_20
REMARK    5  A    between atoms: N_6  and  C_21
REMARK    6  A    between atoms: C_12  and  C_13
REMARK    7  A    between atoms: C_14  and  C_16
REMARK                            x       y       z     vdW  Elec       q    Type
REMARK                         _______ _______ _______ _____ _____    ______ ____
ROOT
ATOM      1  O   UNL     1      16.434   5.668  19.067  0.00  0.00    -0.376 OA
ATOM      4  N   UNL     1      17.098   8.158  20.825  0.00  0.00    -0.292 NA
ATOM      7  C   UNL     1      15.651   8.096  21.054  0.00  0.00    +0.118 C 
ATOM      8  C   UNL     1      14.870   6.943  20.405  0.00  0.00    +0.158 C 
ATOM      9  C   UNL     1      17.759   6.852  20.784  0.00  0.00    +0.113 C 
ATOM     10  C   UNL     1      15.340   6.578  19.004  0.00  0.00    +0.192 C 
ATOM     11  C   UNL     1      17.684   6.273  19.372  0.00  0.00    +0.175 C 
ENDROOT
BRANCH   8   2
ATOM      2  O   UNL     1      13.496   7.327  20.323  0.00  0.00    -0.364 OA
BRANCH   2  14
ATOM     14  C   UNL     1      13.341   8.527  19.582  0.00  0.00    +0.256 C 
BRANCH  14  16
ATOM      3  O   UNL     1      10.982   8.350  19.439  0.00  0.00    -0.273 OA
ATOM      6  N   UNL     1      12.106   8.611  17.424  0.00  0.00    -0.306 N 
ATOM     16  C   UNL     1      12.037   8.485  18.811  0.00  0.00    +0.241 C 
ATOM     20  C   UNL     1      10.877   8.587  16.640  0.00  0.00    +0.131 C 
ATOM     21  C   UNL     1      13.332   8.789  16.649  0.00  0.00    +0.131 C 
ENDBRANCH  14  16
ENDBRANCH   2  14
ENDBRANCH   8   2
BRANCH   4  12
ATOM     12  C   UNL     1      17.725   9.046  21.804  0.00  0.00    +0.140 C 
BRANCH  12  13
ATOM      5  N   UNL     1      19.882  10.001  21.207  0.00  0.00    -0.259 NA
ATOM     13  C   UNL     1      18.538  10.126  21.141  0.00  0.00    +0.055 A 
ATOM     15  C   UNL     1      17.887  11.173  20.508  0.00  0.00    +0.024 A 
ATOM     17  C   UNL     1      18.666  12.153  19.903  0.00  0.00    +0.003 A 
ATOM     18  C   UNL     1      20.606  10.973  20.609  0.00  0.00    +0.111 A 
ATOM     19  C   UNL     1      20.052  12.059  19.950  0.00  0.00    +0.020 A 
ENDBRANCH  12  13
ENDBRANCH   4  12
TORSDOF 5
ENDMDL
MODEL 7
REMARK VINA RESULT:      -4.9     25.885     27.471
REMARK  Name = 75367803
REMARK  7 active torsions:
REMARK  status: ('A' for Active; 'I' for Inactive)
REMARK    1  A    between atoms: O_2  and  C_8
REMARK    2  A    between atoms: O_2  and  C_14
REMARK    3  A    between atoms: N_4  and  C_12
REMARK    4  A    between atoms: N_6  and  C_20
REMARK    5  A    between atoms: N_6  and  C_21
REMARK    6  A    between atoms: C_12  and  C_13
REMARK    7  A    between atoms: C_14  and  C_16
REMARK                            x       y       z     vdW  Elec       q    Type
REMARK                         _______ _______ _______ _____ _____    ______ ____
ROOT
ATOM      1  O   UNL     1      -5.563 -12.237  18.597  0.00  0.00    -0.376 OA
ATOM      4  N   UNL     1      -7.061 -10.663  16.359  0.00  0.00    -0.292 NA
ATOM      7  C   UNL     1      -5.681 -10.371  15.958  0.00  0.00    +0.118 C 
ATOM      8  C   UNL     1      -4.546 -11.013  16.773  0.00  0.00    +0.158 C 
ATOM      9  C   UNL     1      -7.277 -12.033  16.828  0.00  0.00    +0.113 C 
ATOM     10  C   UNL     1      -4.808 -11.075  18.271  0.00  0.00    +0.192 C 
ATOM     11  C   UNL     1      -6.953 -12.131  18.318  0.00  0.00    +0.175 C 
ENDROOT
BRANCH   8   2
ATOM      2  O   UNL     1      -3.360 -10.244  16.563  0.00  0.00    -0.364 OA
BRANCH   2  14
ATOM     14  C   UNL     1      -2.325 -11.038  16.006  0.00  0.00    +0.256 C 
BRANCH  14  16
ATOM      3  O   UNL     1      -1.064  -9.486  14.734  0.00  0.00    -0.273 OA
ATOM      6  N   UNL     1      -2.364 -10.978  13.519  0.00  0.00    -0.306 N 
ATOM     16  C   UNL     1      -1.862 -10.429  14.698  0.00  0.00    +0.241 C 
ATOM     20  C   UNL     1      -1.941 -10.432  12.236  0.00  0.00    +0.131 C 
ATOM     21  C   UNL     1      -3.295 -12.102  13.438  0.00  0.00    +0.131 C 
ENDBRANCH  14  16
ENDBRANCH   2  14
ENDBRANCH   8   2
BRANCH   4  12
ATOM     12  C   UNL     1      -7.983 -10.316  15.277  0.00  0.00    +0.140 C 
BRANCH  12  13
ATOM      5  N   UNL     1      -9.814  -8.804  14.747  0.00  0.00    -0.259 NA
ATOM     13  C   UNL     1      -8.966  -9.256  15.698  0.00  0.00    +0.055 A 
ATOM     15  C   UNL     1      -8.958  -8.803  17.008  0.00  0.00    +0.024 A 
ATOM     17  C   UNL     1      -9.880  -7.826  17.365  0.00  0.00    +0.003 A 
ATOM     18  C   UNL     1     -10.696  -7.854  15.131  0.00  0.00    +0.111 A 
ATOM     19  C   UNL     1     -10.769  -7.337  16.415  0.00  0.00    +0.020 A 
ENDBRANCH  12  13
ENDBRANCH   4  12
TORSDOF 5
ENDMDL
MODEL 8
REMARK VINA RESULT:      -4.8      1.986      5.154
REMARK  Name = 75367803
REMARK  7 active torsions:
REMARK  status: ('A' for Active; 'I' for Inactive)
REMARK    1  A    between atoms: O_2  and  C_8
REMARK    2  A    between atoms: O_2  and  C_14
REMARK    3  A    between atoms: N_4  and  C_12
REMARK    4  A    between atoms: N_6  and  C_20
REMARK    5  A    between atoms: N_6  and  C_21
REMARK    6  A    between atoms: C_12  and  C_13
REMARK    7  A    between atoms: C_14  and  C_16
REMARK                            x       y       z     vdW  Elec       q    Type
REMARK                         _______ _______ _______ _____ _____    ______ ____
ROOT
ATOM      1  O   UNL     1      10.821   8.341  16.001  0.00  0.00    -0.376 OA
ATOM      4  N   UNL     1      13.354   9.851  17.017  0.00  0.00    -0.292 NA
ATOM      7  C   UNL     1      13.362   8.731  17.963  0.00  0.00    +0.118 C 
ATOM      8  C   UNL     1      12.282   7.649  17.803  0.00  0.00    +0.158 C 
ATOM      9  C   UNL     1      12.983   9.484  15.649  0.00  0.00    +0.113 C 
ATOM     10  C   UNL     1      10.911   8.184  17.413  0.00  0.00    +0.192 C 
ATOM     11  C   UNL     1      11.463   9.505  15.497  0.00  0.00    +0.175 C 
ENDROOT
BRANCH   8   2
ATOM      2  O   UNL     1      12.150   6.965  19.050  0.00  0.00    -0.364 OA
BRANCH   2  14
ATOM     14  C   UNL     1      12.801   7.670  20.095  0.00  0.00    +0.256 C 
BRANCH  14  16
ATOM      3  O   UNL     1      11.287   6.981  21.783  0.00  0.00    -0.273 OA
ATOM      6  N   UNL     1      11.578   9.274  21.552  0.00  0.00    -0.306 N 
ATOM     16  C   UNL     1      11.819   7.942  21.216  0.00  0.00    +0.241 C 
ATOM     20  C   UNL     1      10.648   9.584  22.630  0.00  0.00    +0.131 C 
ATOM     21  C   UNL     1      12.200  10.433  20.916  0.00  0.00    +0.131 C 
ENDBRANCH  14  16
ENDBRANCH   2  14
ENDBRANCH   8   2
BRANCH   4  12
ATOM     12  C   UNL     1      14.639  10.551  17.055  0.00  0.00    +0.140 C 
BRANCH  12  13
ATOM      5  N   UNL     1      13.679  12.493  18.161  0.00  0.00    -0.259 NA
ATOM     13  C   UNL     1      14.681  11.586  18.147  0.00  0.00    +0.055 A 
ATOM     15  C   UNL     1      15.718  11.563  19.066  0.00  0.00    +0.024 A 
ATOM     17  C   UNL     1      15.726  12.531  20.063  0.00  0.00    +0.003 A 
ATOM     18  C   UNL     1      13.720  13.420  19.145  0.00  0.00    +0.111 A 
ATOM     19  C   UNL     1      14.712  13.481  20.110  0.00  0.00    +0.020 A 
ENDBRANCH  12  13
ENDBRANCH   4  12
TORSDOF 5
ENDMDL
MODEL 9
REMARK VINA RESULT:      -4.7      5.031      7.967
REMARK  Name = 75367803
REMARK  7 active torsions:
REMARK  status: ('A' for Active; 'I' for Inactive)
REMARK    1  A    between atoms: O_2  and  C_8
REMARK    2  A    between atoms: O_2  and  C_14
REMARK    3  A    between atoms: N_4  and  C_12
REMARK    4  A    between atoms: N_6  and  C_20
REMARK    5  A    between atoms: N_6  and  C_21
REMARK    6  A    between atoms: C_12  and  C_13
REMARK    7  A    between atoms: C_14  and  C_16
REMARK                            x       y       z     vdW  Elec       q    Type
REMARK                         _______ _______ _______ _____ _____    ______ ____
ROOT
ATOM      1  O   UNL     1      16.435   5.675  18.892  0.00  0.00    -0.376 OA
ATOM      4  N   UNL     1      18.193   7.474  20.736  0.00  0.00    -0.292 NA
ATOM      7  C   UNL     1      16.870   7.970  21.128  0.00  0.00    +0.118 C 
ATOM      8  C   UNL     1      15.638   7.306  20.492  0.00  0.00    +0.158 C 
ATOM      9  C   UNL     1      18.257   6.027  20.524  0.00  0.00    +0.113 C 
ATOM     10  C   UNL     1      15.807   6.946  19.023  0.00  0.00    +0.192 C 
ATOM     11  C   UNL     1      17.842   5.691  19.091  0.00  0.00    +0.175 C 
ENDROOT
BRANCH   8   2
ATOM      2  O   UNL     1      14.540   8.214  20.600  0.00  0.00    -0.364 OA
BRANCH   2  14
ATOM     14  C   UNL     1      13.484   7.656  21.367  0.00  0.00    +0.256 C 
BRANCH  14  16
ATOM      3  O   UNL     1      13.264   9.819  22.311  0.00  0.00    -0.273 OA
ATOM      6  N   UNL     1      11.330   8.535  22.248  0.00  0.00    -0.306 N 
ATOM     16  C   UNL     1      12.686   8.766  22.020  0.00  0.00    +0.241 C 
ATOM     20  C   UNL     1      10.518   9.576  22.865  0.00  0.00    +0.131 C 
ATOM     21  C   UNL     1      10.610   7.311  21.902  0.00  0.00    +0.131 C 
ENDBRANCH  14  16
ENDBRANCH   2  14
ENDBRANCH   8   2
BRANCH   4  12
ATOM     12  C   UNL     1      19.202   7.919  21.698  0.00  0.00    +0.140 C 
BRANCH  12  13
ATOM      5  N   UNL     1      21.224   7.238  20.528  0.00  0.00    -0.259 NA
ATOM     13  C   UNL     1      20.452   7.082  21.626  0.00  0.00    +0.055 A 
ATOM     15  C   UNL     1      20.747   6.212  22.664  0.00  0.00    +0.024 A 
ATOM     17  C   UNL     1      21.909   5.456  22.568  0.00  0.00    +0.003 A 
ATOM     18  C   UNL     1      22.345   6.485  20.470  0.00  0.00    +0.111 A 
ATOM     19  C   UNL     1      22.729   5.589  21.453  0.00  0.00    +0.020 A 
ENDBRANCH  12  13
ENDBRANCH   4  12
TORSDOF 5
ENDMDL
MODEL 10
REMARK VINA RESULT:      -4.7     15.121     18.291
REMARK  Name = 75367803
REMARK  7 active torsions:
REMARK  status: ('A' for Active; 'I' for Inactive)
REMARK    1  A    between atoms: O_2  and  C_8
REMARK    2  A    between atoms: O_2  and  C_14
REMARK    3  A    between atoms: N_4  and  C_12
REMARK    4  A    between atoms: N_6  and  C_20
REMARK    5  A    between atoms: N_6  and  C_21
REMARK    6  A    between atoms: C_12  and  C_13
REMARK    7  A    between atoms: C_14  and  C_16
REMARK                            x       y       z     vdW  Elec       q    Type
REMARK                         _______ _______ _______ _____ _____    ______ ____
ROOT
ATOM      1  O   UNL     1      12.223   7.127   1.752  0.00  0.00    -0.376 OA
ATOM      4  N   UNL     1      10.585   5.328   3.704  0.00  0.00    -0.292 NA
ATOM      7  C   UNL     1      10.807   4.355   2.629  0.00  0.00    +0.118 C 
ATOM      8  C   UNL     1      11.655   4.796   1.426  0.00  0.00    +0.158 C 
ATOM      9  C   UNL     1      11.734   6.189   3.986  0.00  0.00    +0.113 C 
ATOM     10  C   UNL     1      11.420   6.235   0.986  0.00  0.00    +0.192 C 
ATOM     11  C   UNL     1      11.721   7.400   3.053  0.00  0.00    +0.175 C 
ENDROOT
BRANCH   8   2
ATOM      2  O   UNL     1      11.342   3.942   0.324  0.00  0.00    -0.364 OA
BRANCH   2  14
ATOM     14  C   UNL     1      11.538   4.606  -0.914  0.00  0.00    +0.256 C 
BRANCH  14  16
ATOM      3  O   UNL     1       9.382   4.720  -1.892  0.00  0.00    -0.273 OA
ATOM      6  N   UNL     1      10.823   3.134  -2.789  0.00  0.00    -0.306 N 
ATOM     16  C   UNL     1      10.483   4.159  -1.905  0.00  0.00    +0.241 C 
ATOM     20  C   UNL     1       9.845   2.677  -3.767  0.00  0.00    +0.131 C 
ATOM     21  C   UNL     1      12.118   2.460  -2.844  0.00  0.00    +0.131 C 
ENDBRANCH  14  16
ENDBRANCH   2  14
ENDBRANCH   8   2
BRANCH   4  12
ATOM     12  C   UNL     1      10.117   4.646   4.911  0.00  0.00    +0.140 C 
BRANCH  12  13
ATOM      5  N   UNL     1      10.288   5.587   7.148  0.00  0.00    -0.259 NA
ATOM     13  C   UNL     1       9.647   5.620   5.958  0.00  0.00    +0.055 A 
ATOM     15  C   UNL     1       8.605   6.486   5.662  0.00  0.00    +0.024 A 
ATOM     17  C   UNL     1       8.198   7.374   6.650  0.00  0.00    +0.003 A 
ATOM     18  C   UNL     1       9.864   6.466   8.084  0.00  0.00    +0.111 A 
ATOM     19  C   UNL     1       8.833   7.371   7.887  0.00  0.00    +0.020 A 
ENDBRANCH  12  13
ENDBRANCH   4  12
TORSDOF 5
ENDMDL
