MODEL 1
REMARK VINA RESULT:      -6.2      0.000      0.000
REMARK  Name = 7049403
REMARK  12 active torsions:
REMARK  status: ('A' for Active; 'I' for Inactive)
REMARK    1  A    between atoms: O_6  and  C_23
REMARK    2  A    between atoms: O_6  and  C_31
REMARK    3  A    between atoms: N_9  and  C_14
REMARK    4  A    between atoms: N_10  and  C_19
REMARK    5  A    between atoms: N_11  and  C_29
REMARK    6  A    between atoms: N_12  and  C_30
REMARK    7  A    between atoms: C_13  and  C_17
REMARK    8  A    between atoms: C_18  and  C_20
REMARK    9  A    between atoms: C_19  and  C_21
REMARK   10  A    between atoms: C_19  and  C_23
REMARK   11  A    between atoms: C_21  and  C_25
REMARK   12  A    between atoms: C_21  and  C_26
REMARK                            x       y       z     vdW  Elec       q    Type
REMARK                         _______ _______ _______ _____ _____    ______ ____
ROOT
ATOM      4  O   UNL     1       8.900   8.821   7.085  0.00  0.00    -0.268 OA
ATOM      8  N   UNL     1       9.375   7.227   5.486  0.00  0.00    -0.283 N 
ATOM     13  C   UNL     1       9.788   6.203   6.436  0.00  0.00    +0.164 C 
ATOM     14  C   UNL     1      10.146   5.388   4.187  0.00  0.00    +0.094 C 
ATOM     15  C   UNL     1       9.883   4.916   5.619  0.00  0.00    +0.056 C 
ATOM     16  C   UNL     1       9.413   6.724   4.111  0.00  0.00    +0.131 C 
ATOM     18  C   UNL     1       8.897   8.472   5.903  0.00  0.00    +0.264 C 
ENDROOT
BRANCH  14   9
ATOM      5  O   UNL     1      11.456   4.845   1.699  0.00  0.00    -0.252 OA
ATOM      9  N   UNL     1      11.551   5.535   3.904  0.00  0.00    -0.295 N 
ATOM     12  N   UNL     1      13.493   5.482   2.676  0.00  0.00    -0.267 N 
ATOM     22  C   UNL     1      12.115   5.247   2.655  0.00  0.00    +0.304 C 
ATOM     37  H   UNL     1      12.170   5.808   4.661  0.00  0.00    +0.151 HD
ATOM     39  H   UNL     1      13.888   5.821   3.550  0.00  0.00    +0.156 HD
BRANCH  12  30
ATOM      1  F   UNL     1      14.507   2.971   2.013  0.00  0.00    -0.203 F 
ATOM      2  F   UNL     1      17.121   4.832  -1.465  0.00  0.00    -0.205 F 
ATOM     30  C   UNL     1      14.419   5.313   1.621  0.00  0.00    +0.070 A 
ATOM     32  C   UNL     1      14.908   4.043   1.313  0.00  0.00    +0.147 A 
ATOM     33  C   UNL     1      14.844   6.420   0.887  0.00  0.00    +0.029 A 
ATOM     34  C   UNL     1      15.821   3.881   0.271  0.00  0.00    +0.078 A 
ATOM     35  C   UNL     1      15.756   6.257  -0.156  0.00  0.00    +0.040 A 
ATOM     36  C   UNL     1      16.245   4.988  -0.463  0.00  0.00    +0.126 A 
ENDBRANCH  12  30
ENDBRANCH  14   9
BRANCH  18  20
ATOM     11  N   UNL     1       9.212  10.187   4.106  0.00  0.00    -0.346 N 
ATOM     20  C   UNL     1       8.414   9.366   4.858  0.00  0.00    +0.104 A 
ATOM     24  C   UNL     1       7.113   9.548   4.445  0.00  0.00    +0.032 A 
ATOM     27  C   UNL     1       8.440  10.890   3.218  0.00  0.00    +0.086 A 
ATOM     28  C   UNL     1       7.129  10.512   3.407  0.00  0.00    +0.020 A 
ATOM     29  C   UNL     1      10.649  10.306   4.218  0.00  0.00    +0.149 C 
ENDBRANCH  18  20
BRANCH  13  17
ATOM      3  O   UNL     1      11.645   5.931   7.910  0.00  0.00    -0.274 OA
ATOM     10  N   UNL     1      11.631   7.737   6.441  0.00  0.00    -0.301 N 
ATOM     17  C   UNL     1      11.117   6.585   7.015  0.00  0.00    +0.234 C 
ATOM     38  H   UNL     1      11.113   8.190   5.694  0.00  0.00    +0.150 HD
BRANCH  10  19
ATOM     19  C   UNL     1      12.886   8.326   6.837  0.00  0.00    +0.184 C 
BRANCH  19  21
ATOM     21  C   UNL     1      12.840   9.870   6.838  0.00  0.00    +0.014 C 
ATOM     25  C   UNL     1      11.943  10.397   7.962  0.00  0.00    +0.009 C 
ATOM     26  C   UNL     1      14.226  10.516   6.927  0.00  0.00    +0.009 C 
ENDBRANCH  19  21
BRANCH  19  23
ATOM      7  O   UNL     1      15.095   7.411   6.479  0.00  0.00    -0.249 OA
ATOM     23  C   UNL     1      14.042   7.807   5.991  0.00  0.00    +0.328 C 
BRANCH  23   6
ATOM      6  O   UNL     1      13.763   7.842   4.657  0.00  0.00    -0.467 OA
ATOM     31  C   UNL     1      14.661   8.613   3.852  0.00  0.00    +0.280 C 
ENDBRANCH  23   6
ENDBRANCH  19  23
ENDBRANCH  10  19
ENDBRANCH  13  17
TORSDOF 8
ENDMDL
MODEL 2
REMARK VINA RESULT:      -6.1      3.543      6.329
REMARK  Name = 7049403
REMARK  12 active torsions:
REMARK  status: ('A' for Active; 'I' for Inactive)
REMARK    1  A    between atoms: O_6  and  C_23
REMARK    2  A    between atoms: O_6  and  C_31
REMARK    3  A    between atoms: N_9  and  C_14
REMARK    4  A    between atoms: N_10  and  C_19
REMARK    5  A    between atoms: N_11  and  C_29
REMARK    6  A    between atoms: N_12  and  C_30
REMARK    7  A    between atoms: C_13  and  C_17
REMARK    8  A    between atoms: C_18  and  C_20
REMARK    9  A    between atoms: C_19  and  C_21
REMARK   10  A    between atoms: C_19  and  C_23
REMARK   11  A    between atoms: C_21  and  C_25
REMARK   12  A    between atoms: C_21  and  C_26
REMARK                            x       y       z     vdW  Elec       q    Type
REMARK                         _______ _______ _______ _____ _____    ______ ____
ROOT
ATOM      4  O   UNL     1       9.906   6.101   3.855  0.00  0.00    -0.268 OA
ATOM      8  N   UNL     1      11.515   7.630   4.482  0.00  0.00    -0.283 N 
ATOM     13  C   UNL     1      11.925   7.958   3.125  0.00  0.00    +0.164 C 
ATOM     14  C   UNL     1      13.363   9.116   4.688  0.00  0.00    +0.094 C 
ATOM     15  C   UNL     1      12.811   9.195   3.263  0.00  0.00    +0.056 C 
ATOM     16  C   UNL     1      12.243   8.433   5.467  0.00  0.00    +0.131 C 
ATOM     18  C   UNL     1      10.468   6.742   4.744  0.00  0.00    +0.264 C 
ENDROOT
BRANCH  14   9
ATOM      5  O   UNL     1      15.981  10.174   5.165  0.00  0.00    -0.252 OA
ATOM      9  N   UNL     1      14.593   8.369   4.761  0.00  0.00    -0.295 N 
ATOM     12  N   UNL     1      16.847   7.999   5.015  0.00  0.00    -0.267 N 
ATOM     22  C   UNL     1      15.838   8.966   4.999  0.00  0.00    +0.304 C 
ATOM     37  H   UNL     1      14.565   7.371   4.577  0.00  0.00    +0.151 HD
ATOM     39  H   UNL     1      16.562   7.034   4.866  0.00  0.00    +0.156 HD
BRANCH  12  30
ATOM      1  F   UNL     1      18.669   7.872   2.910  0.00  0.00    -0.203 F 
ATOM      2  F   UNL     1      22.275   8.763   5.841  0.00  0.00    -0.205 F 
ATOM     30  C   UNL     1      18.233   8.192   5.223  0.00  0.00    +0.070 A 
ATOM     32  C   UNL     1      19.119   8.123   4.148  0.00  0.00    +0.147 A 
ATOM     33  C   UNL     1      18.712   8.454   6.506  0.00  0.00    +0.029 A 
ATOM     34  C   UNL     1      20.485   8.316   4.357  0.00  0.00    +0.078 A 
ATOM     35  C   UNL     1      20.078   8.647   6.715  0.00  0.00    +0.040 A 
ATOM     36  C   UNL     1      20.964   8.577   5.640  0.00  0.00    +0.126 A 
ENDBRANCH  12  30
ENDBRANCH  14   9
BRANCH  18  20
ATOM     11  N   UNL     1       9.166   7.366   6.790  0.00  0.00    -0.346 N 
ATOM     20  C   UNL     1      10.085   6.583   6.141  0.00  0.00    +0.104 A 
ATOM     24  C   UNL     1      10.556   5.652   7.040  0.00  0.00    +0.032 A 
ATOM     27  C   UNL     1       9.042   6.948   8.089  0.00  0.00    +0.086 A 
ATOM     28  C   UNL     1       9.896   5.882   8.273  0.00  0.00    +0.020 A 
ATOM     29  C   UNL     1       8.430   8.467   6.209  0.00  0.00    +0.149 C 
ENDBRANCH  18  20
BRANCH  13  17
ATOM      3  O   UNL     1      13.865   6.596   2.837  0.00  0.00    -0.274 OA
ATOM     10  N   UNL     1      11.920   6.041   1.684  0.00  0.00    -0.301 N 
ATOM     17  C   UNL     1      12.688   6.800   2.554  0.00  0.00    +0.234 C 
ATOM     38  H   UNL     1      10.947   6.294   1.534  0.00  0.00    +0.150 HD
BRANCH  10  19
ATOM     19  C   UNL     1      12.426   4.886   0.986  0.00  0.00    +0.184 C 
BRANCH  19  21
ATOM     21  C   UNL     1      11.707   4.649  -0.361  0.00  0.00    +0.014 C 
ATOM     25  C   UNL     1      10.240   5.078  -0.290  0.00  0.00    +0.009 C 
ATOM     26  C   UNL     1      12.398   5.337  -1.544  0.00  0.00    +0.009 C 
ENDBRANCH  19  21
BRANCH  19  23
ATOM      7  O   UNL     1      11.446   3.382   2.607  0.00  0.00    -0.249 OA
ATOM     23  C   UNL     1      12.386   3.638   1.861  0.00  0.00    +0.328 C 
BRANCH  23   6
ATOM      6  O   UNL     1      13.500   2.868   1.713  0.00  0.00    -0.467 OA
ATOM     31  C   UNL     1      14.730   3.578   1.534  0.00  0.00    +0.280 C 
ENDBRANCH  23   6
ENDBRANCH  19  23
ENDBRANCH  10  19
ENDBRANCH  13  17
TORSDOF 8
ENDMDL
MODEL 3
REMARK VINA RESULT:      -5.8     25.665     29.171
REMARK  Name = 7049403
REMARK  12 active torsions:
REMARK  status: ('A' for Active; 'I' for Inactive)
REMARK    1  A    between atoms: O_6  and  C_23
REMARK    2  A    between atoms: O_6  and  C_31
REMARK    3  A    between atoms: N_9  and  C_14
REMARK    4  A    between atoms: N_10  and  C_19
REMARK    5  A    between atoms: N_11  and  C_29
REMARK    6  A    between atoms: N_12  and  C_30
REMARK    7  A    between atoms: C_13  and  C_17
REMARK    8  A    between atoms: C_18  and  C_20
REMARK    9  A    between atoms: C_19  and  C_21
REMARK   10  A    between atoms: C_19  and  C_23
REMARK   11  A    between atoms: C_21  and  C_25
REMARK   12  A    between atoms: C_21  and  C_26
REMARK                            x       y       z     vdW  Elec       q    Type
REMARK                         _______ _______ _______ _____ _____    ______ ____
ROOT
ATOM      4  O   UNL     1      -4.118 -13.238  15.411  0.00  0.00    -0.268 OA
ATOM      8  N   UNL     1      -5.163 -11.417  16.366  0.00  0.00    -0.283 N 
ATOM     13  C   UNL     1      -6.345 -12.149  16.795  0.00  0.00    +0.164 C 
ATOM     14  C   UNL     1      -6.646  -9.801  17.289  0.00  0.00    +0.094 C 
ATOM     15  C   UNL     1      -7.087 -11.198  17.733  0.00  0.00    +0.056 C 
ATOM     16  C   UNL     1      -5.220 -10.017  16.792  0.00  0.00    +0.131 C 
ATOM     18  C   UNL     1      -4.087 -12.051  15.739  0.00  0.00    +0.264 C 
ENDROOT
BRANCH  14   9
ATOM      5  O   UNL     1      -9.283  -8.734  17.622  0.00  0.00    -0.252 OA
ATOM      9  N   UNL     1      -7.493  -9.259  16.256  0.00  0.00    -0.295 N 
ATOM     12  N   UNL     1      -9.358  -8.299  15.318  0.00  0.00    -0.267 N 
ATOM     22  C   UNL     1      -8.776  -8.755  16.504  0.00  0.00    +0.304 C 
ATOM     37  H   UNL     1      -7.166  -9.294  15.296  0.00  0.00    +0.151 HD
ATOM     39  H   UNL     1      -8.801  -8.382  14.470  0.00  0.00    +0.156 HD
BRANCH  12  30
ATOM      1  F   UNL     1     -11.525  -9.803  14.415  0.00  0.00    -0.203 F 
ATOM      2  F   UNL     1     -14.371  -6.030  14.642  0.00  0.00    -0.205 F 
ATOM     30  C   UNL     1     -10.638  -7.723  15.143  0.00  0.00    +0.070 A 
ATOM     32  C   UNL     1     -11.702  -8.502  14.690  0.00  0.00    +0.147 A 
ATOM     33  C   UNL     1     -10.834  -6.372  15.426  0.00  0.00    +0.029 A 
ATOM     34  C   UNL     1     -12.963  -7.930  14.521  0.00  0.00    +0.078 A 
ATOM     35  C   UNL     1     -12.095  -5.799  15.257  0.00  0.00    +0.040 A 
ATOM     36  C   UNL     1     -13.160  -6.579  14.804  0.00  0.00    +0.126 A 
ENDBRANCH  12  30
ENDBRANCH  14   9
BRANCH  18  20
ATOM     11  N   UNL     1      -2.681 -10.593  14.267  0.00  0.00    -0.346 N 
ATOM     20  C   UNL     1      -2.919 -11.225  15.458  0.00  0.00    +0.104 A 
ATOM     24  C   UNL     1      -1.873 -10.937  16.306  0.00  0.00    +0.032 A 
ATOM     27  C   UNL     1      -1.499  -9.903  14.341  0.00  0.00    +0.086 A 
ATOM     28  C   UNL     1      -0.974 -10.100  15.599  0.00  0.00    +0.020 A 
ATOM     29  C   UNL     1      -3.535 -10.634  13.100  0.00  0.00    +0.149 C 
ENDBRANCH  18  20
BRANCH  13  17
ATOM      3  O   UNL     1      -8.113 -13.273  15.651  0.00  0.00    -0.274 OA
ATOM     10  N   UNL     1      -6.731 -11.835  14.450  0.00  0.00    -0.301 N 
ATOM     17  C   UNL     1      -7.172 -12.487  15.591  0.00  0.00    +0.234 C 
ATOM     38  H   UNL     1      -5.947 -11.192  14.519  0.00  0.00    +0.150 HD
BRANCH  10  19
ATOM     19  C   UNL     1      -7.342 -12.007  13.156  0.00  0.00    +0.184 C 
BRANCH  19  21
ATOM     21  C   UNL     1      -6.331 -12.464  12.081  0.00  0.00    +0.014 C 
ATOM     25  C   UNL     1      -5.770 -13.852  12.402  0.00  0.00    +0.009 C 
ATOM     26  C   UNL     1      -6.910 -12.449  10.661  0.00  0.00    +0.009 C 
ENDBRANCH  19  21
BRANCH  19  23
ATOM      7  O   UNL     1      -9.144 -10.794  12.092  0.00  0.00    -0.249 OA
ATOM     23  C   UNL     1      -8.088 -10.752  12.715  0.00  0.00    +0.328 C 
BRANCH  23   6
ATOM      6  O   UNL     1      -7.447  -9.611  13.093  0.00  0.00    -0.467 OA
ATOM     31  C   UNL     1      -6.678  -8.962  12.074  0.00  0.00    +0.280 C 
ENDBRANCH  23   6
ENDBRANCH  19  23
ENDBRANCH  10  19
ENDBRANCH  13  17
TORSDOF 8
ENDMDL
MODEL 4
REMARK VINA RESULT:      -5.8      2.187      5.416
REMARK  Name = 7049403
REMARK  12 active torsions:
REMARK  status: ('A' for Active; 'I' for Inactive)
REMARK    1  A    between atoms: O_6  and  C_23
REMARK    2  A    between atoms: O_6  and  C_31
REMARK    3  A    between atoms: N_9  and  C_14
REMARK    4  A    between atoms: N_10  and  C_19
REMARK    5  A    between atoms: N_11  and  C_29
REMARK    6  A    between atoms: N_12  and  C_30
REMARK    7  A    between atoms: C_13  and  C_17
REMARK    8  A    between atoms: C_18  and  C_20
REMARK    9  A    between atoms: C_19  and  C_21
REMARK   10  A    between atoms: C_19  and  C_23
REMARK   11  A    between atoms: C_21  and  C_25
REMARK   12  A    between atoms: C_21  and  C_26
REMARK                            x       y       z     vdW  Elec       q    Type
REMARK                         _______ _______ _______ _____ _____    ______ ____
ROOT
ATOM      4  O   UNL     1       7.906   7.733   6.921  0.00  0.00    -0.268 OA
ATOM      8  N   UNL     1      10.132   7.833   6.324  0.00  0.00    -0.283 N 
ATOM     13  C   UNL     1      10.016   9.079   5.580  0.00  0.00    +0.164 C 
ATOM     14  C   UNL     1      12.267   8.225   5.349  0.00  0.00    +0.094 C 
ATOM     15  C   UNL     1      11.454   9.522   5.315  0.00  0.00    +0.056 C 
ATOM     16  C   UNL     1      11.518   7.360   6.357  0.00  0.00    +0.131 C 
ATOM     18  C   UNL     1       9.046   7.272   7.002  0.00  0.00    +0.264 C 
ENDROOT
BRANCH  14   9
ATOM      5  O   UNL     1      14.568   6.964   4.202  0.00  0.00    -0.252 OA
ATOM      9  N   UNL     1      12.347   7.591   4.058  0.00  0.00    -0.295 N 
ATOM     12  N   UNL     1      13.296   6.463   2.295  0.00  0.00    -0.267 N 
ATOM     22  C   UNL     1      13.516   6.994   3.568  0.00  0.00    +0.304 C 
ATOM     37  H   UNL     1      11.533   7.626   3.451  0.00  0.00    +0.151 HD
ATOM     39  H   UNL     1      12.360   6.567   1.909  0.00  0.00    +0.156 HD
BRANCH  12  30
ATOM      1  F   UNL     1      13.289   3.684   2.076  0.00  0.00    -0.203 F 
ATOM      2  F   UNL     1      16.914   3.810  -0.962  0.00  0.00    -0.205 F 
ATOM     30  C   UNL     1      14.218   5.783   1.466  0.00  0.00    +0.070 A 
ATOM     32  C   UNL     1      14.189   4.391   1.378  0.00  0.00    +0.147 A 
ATOM     33  C   UNL     1      15.159   6.508   0.735  0.00  0.00    +0.029 A 
ATOM     34  C   UNL     1      15.100   3.725   0.558  0.00  0.00    +0.078 A 
ATOM     35  C   UNL     1      16.070   5.842  -0.085  0.00  0.00    +0.040 A 
ATOM     36  C   UNL     1      16.040   4.450  -0.173  0.00  0.00    +0.126 A 
ENDBRANCH  12  30
ENDBRANCH  14   9
BRANCH  18  20
ATOM     11  N   UNL     1       9.586   4.843   7.279  0.00  0.00    -0.346 N 
ATOM     20  C   UNL     1       9.320   6.083   7.798  0.00  0.00    +0.104 A 
ATOM     24  C   UNL     1       9.361   5.984   9.171  0.00  0.00    +0.032 A 
ATOM     27  C   UNL     1       9.797   3.954   8.300  0.00  0.00    +0.086 A 
ATOM     28  C   UNL     1       9.663   4.636   9.489  0.00  0.00    +0.020 A 
ATOM     29  C   UNL     1       9.640   4.507   5.873  0.00  0.00    +0.149 C 
ENDBRANCH  18  20
BRANCH  13  17
ATOM      3  O   UNL     1       9.620   7.922   3.530  0.00  0.00    -0.274 OA
ATOM     10  N   UNL     1       8.224   9.693   4.110  0.00  0.00    -0.301 N 
ATOM     17  C   UNL     1       9.279   8.815   4.301  0.00  0.00    +0.234 C 
ATOM     38  H   UNL     1       8.022  10.387   4.824  0.00  0.00    +0.150 HD
BRANCH  10  19
ATOM     19  C   UNL     1       7.373   9.664   2.947  0.00  0.00    +0.184 C 
BRANCH  19  21
ATOM     21  C   UNL     1       7.885  10.585   1.817  0.00  0.00    +0.014 C 
ATOM     25  C   UNL     1       8.925  11.580   2.341  0.00  0.00    +0.009 C 
ATOM     26  C   UNL     1       8.454   9.816   0.620  0.00  0.00    +0.009 C 
ENDBRANCH  19  21
BRANCH  19  23
ATOM      7  O   UNL     1       5.604  10.526   4.352  0.00  0.00    -0.249 OA
ATOM     23  C   UNL     1       5.924   9.978   3.302  0.00  0.00    +0.328 C 
BRANCH  23   6
ATOM      6  O   UNL     1       5.056   9.580   2.330  0.00  0.00    -0.467 OA
ATOM     31  C   UNL     1       3.949  10.455   2.087  0.00  0.00    +0.280 C 
ENDBRANCH  23   6
ENDBRANCH  19  23
ENDBRANCH  10  19
ENDBRANCH  13  17
TORSDOF 8
ENDMDL
MODEL 5
REMARK VINA RESULT:      -5.7     24.941     27.880
REMARK  Name = 7049403
REMARK  12 active torsions:
REMARK  status: ('A' for Active; 'I' for Inactive)
REMARK    1  A    between atoms: O_6  and  C_23
REMARK    2  A    between atoms: O_6  and  C_31
REMARK    3  A    between atoms: N_9  and  C_14
REMARK    4  A    between atoms: N_10  and  C_19
REMARK    5  A    between atoms: N_11  and  C_29
REMARK    6  A    between atoms: N_12  and  C_30
REMARK    7  A    between atoms: C_13  and  C_17
REMARK    8  A    between atoms: C_18  and  C_20
REMARK    9  A    between atoms: C_19  and  C_21
REMARK   10  A    between atoms: C_19  and  C_23
REMARK   11  A    between atoms: C_21  and  C_25
REMARK   12  A    between atoms: C_21  and  C_26
REMARK                            x       y       z     vdW  Elec       q    Type
REMARK                         _______ _______ _______ _____ _____    ______ ____
ROOT
ATOM      4  O   UNL     1      -3.061 -14.791  15.103  0.00  0.00    -0.268 OA
ATOM      8  N   UNL     1      -2.697 -12.922  13.801  0.00  0.00    -0.283 N 
ATOM     13  C   UNL     1      -2.679 -11.984  14.913  0.00  0.00    +0.164 C 
ATOM     14  C   UNL     1      -2.510 -10.754  12.838  0.00  0.00    +0.094 C 
ATOM     15  C   UNL     1      -2.155 -10.675  14.325  0.00  0.00    +0.056 C 
ATOM     16  C   UNL     1      -2.429 -12.245  12.530  0.00  0.00    +0.131 C 
ATOM     18  C   UNL     1      -2.835 -14.299  13.996  0.00  0.00    +0.264 C 
ENDROOT
BRANCH  14   9
ATOM      5  O   UNL     1      -3.823 -10.700  10.293  0.00  0.00    -0.252 OA
ATOM      9  N   UNL     1      -3.819 -10.222  12.555  0.00  0.00    -0.295 N 
ATOM     12  N   UNL     1      -5.662  -9.653  11.306  0.00  0.00    -0.267 N 
ATOM     22  C   UNL     1      -4.392 -10.234  11.277  0.00  0.00    +0.304 C 
ATOM     37  H   UNL     1      -4.329  -9.768  13.307  0.00  0.00    +0.151 HD
ATOM     39  H   UNL     1      -5.994  -9.319  12.208  0.00  0.00    +0.156 HD
BRANCH  12  30
ATOM      1  F   UNL     1      -5.438  -7.491   9.561  0.00  0.00    -0.203 F 
ATOM      2  F   UNL     1      -9.188  -8.968   7.084  0.00  0.00    -0.205 F 
ATOM     30  C   UNL     1      -6.561  -9.475  10.229  0.00  0.00    +0.070 A 
ATOM     32  C   UNL     1      -6.422  -8.382   9.373  0.00  0.00    +0.147 A 
ATOM     33  C   UNL     1      -7.588 -10.396  10.022  0.00  0.00    +0.029 A 
ATOM     34  C   UNL     1      -7.310  -8.211   8.310  0.00  0.00    +0.078 A 
ATOM     35  C   UNL     1      -8.476 -10.224   8.960  0.00  0.00    +0.040 A 
ATOM     36  C   UNL     1      -8.337  -9.131   8.104  0.00  0.00    +0.126 A 
ENDBRANCH  12  30
ENDBRANCH  14   9
BRANCH  18  20
ATOM     11  N   UNL     1      -1.577 -15.754  12.393  0.00  0.00    -0.346 N 
ATOM     20  C   UNL     1      -2.728 -15.138  12.809  0.00  0.00    +0.104 A 
ATOM     24  C   UNL     1      -3.725 -15.458  11.915  0.00  0.00    +0.032 A 
ATOM     27  C   UNL     1      -1.825 -16.464  11.247  0.00  0.00    +0.086 A 
ATOM     28  C   UNL     1      -3.154 -16.297  10.927  0.00  0.00    +0.020 A 
ATOM     29  C   UNL     1      -0.291 -15.679  13.050  0.00  0.00    +0.149 C 
ENDBRANCH  18  20
BRANCH  13  17
ATOM      3  O   UNL     1      -4.957 -11.282  14.785  0.00  0.00    -0.274 OA
ATOM     10  N   UNL     1      -4.214 -12.341  16.721  0.00  0.00    -0.301 N 
ATOM     17  C   UNL     1      -4.074 -11.828  15.441  0.00  0.00    +0.234 C 
ATOM     38  H   UNL     1      -3.417 -12.787  17.165  0.00  0.00    +0.150 HD
BRANCH  10  19
ATOM     19  C   UNL     1      -5.451 -12.295  17.459  0.00  0.00    +0.184 C 
BRANCH  19  21
ATOM     21  C   UNL     1      -5.225 -12.155  18.981  0.00  0.00    +0.014 C 
ATOM     25  C   UNL     1      -3.733 -12.066  19.314  0.00  0.00    +0.009 C 
ATOM     26  C   UNL     1      -5.970 -10.965  19.596  0.00  0.00    +0.009 C 
ENDBRANCH  19  21
BRANCH  19  23
ATOM      7  O   UNL     1      -5.891 -14.604  16.888  0.00  0.00    -0.249 OA
ATOM     23  C   UNL     1      -6.341 -13.491  17.141  0.00  0.00    +0.328 C 
BRANCH  23   6
ATOM      6  O   UNL     1      -7.666 -13.171  17.170  0.00  0.00    -0.467 OA
ATOM     31  C   UNL     1      -8.034 -11.977  16.471  0.00  0.00    +0.280 C 
ENDBRANCH  23   6
ENDBRANCH  19  23
ENDBRANCH  10  19
ENDBRANCH  13  17
TORSDOF 8
ENDMDL
MODEL 6
REMARK VINA RESULT:      -5.6     28.448     31.211
REMARK  Name = 7049403
REMARK  12 active torsions:
REMARK  status: ('A' for Active; 'I' for Inactive)
REMARK    1  A    between atoms: O_6  and  C_23
REMARK    2  A    between atoms: O_6  and  C_31
REMARK    3  A    between atoms: N_9  and  C_14
REMARK    4  A    between atoms: N_10  and  C_19
REMARK    5  A    between atoms: N_11  and  C_29
REMARK    6  A    between atoms: N_12  and  C_30
REMARK    7  A    between atoms: C_13  and  C_17
REMARK    8  A    between atoms: C_18  and  C_20
REMARK    9  A    between atoms: C_19  and  C_21
REMARK   10  A    between atoms: C_19  and  C_23
REMARK   11  A    between atoms: C_21  and  C_25
REMARK   12  A    between atoms: C_21  and  C_26
REMARK                            x       y       z     vdW  Elec       q    Type
REMARK                         _______ _______ _______ _____ _____    ______ ____
ROOT
ATOM      4  O   UNL     1     -14.297  -7.269  15.513  0.00  0.00    -0.268 OA
ATOM      8  N   UNL     1     -12.389  -8.359  14.811  0.00  0.00    -0.283 N 
ATOM     13  C   UNL     1     -12.605  -9.547  15.623  0.00  0.00    +0.164 C 
ATOM     14  C   UNL     1     -10.470  -9.732  14.502  0.00  0.00    +0.094 C 
ATOM     15  C   UNL     1     -11.597 -10.572  15.108  0.00  0.00    +0.056 C 
ATOM     16  C   UNL     1     -11.190  -8.493  13.980  0.00  0.00    +0.131 C 
ATOM     18  C   UNL     1     -13.309  -7.307  14.778  0.00  0.00    +0.264 C 
ENDROOT
BRANCH  14   9
ATOM      5  O   UNL     1      -8.505 -11.494  15.614  0.00  0.00    -0.252 OA
ATOM      9  N   UNL     1      -9.456  -9.391  15.468  0.00  0.00    -0.295 N 
ATOM     12  N   UNL     1      -7.672  -9.704  16.882  0.00  0.00    -0.267 N 
ATOM     22  C   UNL     1      -8.528 -10.317  15.964  0.00  0.00    +0.304 C 
ATOM     37  H   UNL     1      -9.448  -8.450  15.848  0.00  0.00    +0.151 HD
ATOM     39  H   UNL     1      -7.820  -8.713  17.059  0.00  0.00    +0.156 HD
BRANCH  12  30
ATOM      1  F   UNL     1      -5.142 -10.009  15.751  0.00  0.00    -0.203 F 
ATOM      2  F   UNL     1      -3.498 -12.006  19.713  0.00  0.00    -0.205 F 
ATOM     30  C   UNL     1      -6.605 -10.292  17.602  0.00  0.00    +0.070 A 
ATOM     32  C   UNL     1      -5.351 -10.430  17.008  0.00  0.00    +0.147 A 
ATOM     33  C   UNL     1      -6.810 -10.734  18.908  0.00  0.00    +0.029 A 
ATOM     34  C   UNL     1      -4.301 -11.009  17.721  0.00  0.00    +0.078 A 
ATOM     35  C   UNL     1      -5.761 -11.313  19.621  0.00  0.00    +0.040 A 
ATOM     36  C   UNL     1      -4.506 -11.451  19.028  0.00  0.00    +0.126 A 
ENDBRANCH  12  30
ENDBRANCH  14   9
BRANCH  18  20
ATOM     11  N   UNL     1     -13.428  -6.208  12.532  0.00  0.00    -0.346 N 
ATOM     20  C   UNL     1     -13.028  -6.226  13.842  0.00  0.00    +0.104 A 
ATOM     24  C   UNL     1     -12.333  -5.063  14.087  0.00  0.00    +0.032 A 
ATOM     27  C   UNL     1     -13.000  -5.050  11.937  0.00  0.00    +0.086 A 
ATOM     28  C   UNL     1     -12.315  -4.318  12.882  0.00  0.00    +0.020 A 
ATOM     29  C   UNL     1     -14.187  -7.242  11.863  0.00  0.00    +0.149 C 
ENDBRANCH  18  20
BRANCH  13  17
ATOM      3  O   UNL     1     -11.592  -8.298  17.388  0.00  0.00    -0.274 OA
ATOM     10  N   UNL     1     -13.049 -10.032  17.929  0.00  0.00    -0.301 N 
ATOM     17  C   UNL     1     -12.353  -9.205  17.061  0.00  0.00    +0.234 C 
ATOM     38  H   UNL     1     -13.665 -10.743  17.547  0.00  0.00    +0.150 HD
BRANCH  10  19
ATOM     19  C   UNL     1     -12.962  -9.925  19.364  0.00  0.00    +0.184 C 
BRANCH  19  21
ATOM     21  C   UNL     1     -11.931 -10.905  19.967  0.00  0.00    +0.014 C 
ATOM     25  C   UNL     1     -11.867 -12.207  19.163  0.00  0.00    +0.009 C 
ATOM     26  C   UNL     1     -10.528 -10.302  20.100  0.00  0.00    +0.009 C 
ENDBRANCH  19  21
BRANCH  19  23
ATOM      7  O   UNL     1     -15.378 -10.013  19.396  0.00  0.00    -0.249 OA
ATOM     23  C   UNL     1     -14.327 -10.081  20.024  0.00  0.00    +0.328 C 
BRANCH  23   6
ATOM      6  O   UNL     1     -14.230 -10.299  21.366  0.00  0.00    -0.467 OA
ATOM     31  C   UNL     1     -14.933 -11.443  21.863  0.00  0.00    +0.280 C 
ENDBRANCH  23   6
ENDBRANCH  19  23
ENDBRANCH  10  19
ENDBRANCH  13  17
TORSDOF 8
ENDMDL
MODEL 7
REMARK VINA RESULT:      -5.4     26.912     30.402
REMARK  Name = 7049403
REMARK  12 active torsions:
REMARK  status: ('A' for Active; 'I' for Inactive)
REMARK    1  A    between atoms: O_6  and  C_23
REMARK    2  A    between atoms: O_6  and  C_31
REMARK    3  A    between atoms: N_9  and  C_14
REMARK    4  A    between atoms: N_10  and  C_19
REMARK    5  A    between atoms: N_11  and  C_29
REMARK    6  A    between atoms: N_12  and  C_30
REMARK    7  A    between atoms: C_13  and  C_17
REMARK    8  A    between atoms: C_18  and  C_20
REMARK    9  A    between atoms: C_19  and  C_21
REMARK   10  A    between atoms: C_19  and  C_23
REMARK   11  A    between atoms: C_21  and  C_25
REMARK   12  A    between atoms: C_21  and  C_26
REMARK                            x       y       z     vdW  Elec       q    Type
REMARK                         _______ _______ _______ _____ _____    ______ ____
ROOT
ATOM      4  O   UNL     1      -4.417 -13.266  15.933  0.00  0.00    -0.268 OA
ATOM      8  N   UNL     1      -5.413 -11.287  16.578  0.00  0.00    -0.283 N 
ATOM     13  C   UNL     1      -6.561 -11.916  17.214  0.00  0.00    +0.164 C 
ATOM     14  C   UNL     1      -6.847  -9.515  17.257  0.00  0.00    +0.094 C 
ATOM     15  C   UNL     1      -7.250 -10.796  17.991  0.00  0.00    +0.056 C 
ATOM     16  C   UNL     1      -5.453  -9.831  16.725  0.00  0.00    +0.131 C 
ATOM     18  C   UNL     1      -4.373 -12.037  16.021  0.00  0.00    +0.264 C 
ENDROOT
BRANCH  14   9
ATOM      5  O   UNL     1      -9.436  -8.322  17.534  0.00  0.00    -0.252 OA
ATOM      9  N   UNL     1      -7.759  -9.180  16.193  0.00  0.00    -0.295 N 
ATOM     12  N   UNL     1      -9.674  -8.386  15.201  0.00  0.00    -0.267 N 
ATOM     22  C   UNL     1      -9.014  -8.596  16.414  0.00  0.00    +0.304 C 
ATOM     37  H   UNL     1      -7.505  -9.429  15.242  0.00  0.00    +0.151 HD
ATOM     39  H   UNL     1      -9.182  -8.665  14.355  0.00  0.00    +0.156 HD
BRANCH  12  30
ATOM      1  F   UNL     1     -10.118  -5.646  15.451  0.00  0.00    -0.203 F 
ATOM      2  F   UNL     1     -14.697  -6.185  14.389  0.00  0.00    -0.205 F 
ATOM     30  C   UNL     1     -10.955  -7.822  14.995  0.00  0.00    +0.070 A 
ATOM     32  C   UNL     1     -11.145  -6.446  15.128  0.00  0.00    +0.147 A 
ATOM     33  C   UNL     1     -12.030  -8.644  14.659  0.00  0.00    +0.029 A 
ATOM     34  C   UNL     1     -12.409  -5.894  14.923  0.00  0.00    +0.078 A 
ATOM     35  C   UNL     1     -13.294  -8.092  14.454  0.00  0.00    +0.040 A 
ATOM     36  C   UNL     1     -13.484  -6.716  14.587  0.00  0.00    +0.126 A 
ENDBRANCH  12  30
ENDBRANCH  14   9
BRANCH  18  20
ATOM     11  N   UNL     1      -3.089 -10.870  14.217  0.00  0.00    -0.346 N 
ATOM     20  C   UNL     1      -3.230 -11.289  15.513  0.00  0.00    +0.104 A 
ATOM     24  C   UNL     1      -2.118 -10.878  16.214  0.00  0.00    +0.032 A 
ATOM     27  C   UNL     1      -1.903 -10.196  14.079  0.00  0.00    +0.086 A 
ATOM     28  C   UNL     1      -1.278 -10.186  15.307  0.00  0.00    +0.020 A 
ATOM     29  C   UNL     1      -4.034 -11.093  13.146  0.00  0.00    +0.149 C 
ENDBRANCH  18  20
BRANCH  13  17
ATOM      3  O   UNL     1      -7.455 -12.041  15.004  0.00  0.00    -0.274 OA
ATOM     10  N   UNL     1      -8.269 -13.495  16.631  0.00  0.00    -0.301 N 
ATOM     17  C   UNL     1      -7.458 -12.478  16.152  0.00  0.00    +0.234 C 
ATOM     38  H   UNL     1      -8.175 -13.787  17.599  0.00  0.00    +0.150 HD
BRANCH  10  19
ATOM     19  C   UNL     1      -9.236 -14.185  15.814  0.00  0.00    +0.184 C 
BRANCH  19  21
ATOM     21  C   UNL     1     -10.690 -13.816  16.183  0.00  0.00    +0.014 C 
ATOM     25  C   UNL     1     -10.824 -13.517  17.679  0.00  0.00    +0.009 C 
ATOM     26  C   UNL     1     -11.243 -12.645  15.363  0.00  0.00    +0.009 C 
ENDBRANCH  19  21
BRANCH  19  23
ATOM      7  O   UNL     1      -8.892 -16.323  16.890  0.00  0.00    -0.249 OA
ATOM     23  C   UNL     1      -9.024 -15.694  15.845  0.00  0.00    +0.328 C 
BRANCH  23   6
ATOM      6  O   UNL     1      -8.998 -16.238  14.596  0.00  0.00    -0.467 OA
ATOM     31  C   UNL     1      -8.671 -15.339  13.532  0.00  0.00    +0.280 C 
ENDBRANCH  23   6
ENDBRANCH  19  23
ENDBRANCH  10  19
ENDBRANCH  13  17
TORSDOF 8
ENDMDL
MODEL 8
REMARK VINA RESULT:      -5.4     24.130     27.066
REMARK  Name = 7049403
REMARK  12 active torsions:
REMARK  status: ('A' for Active; 'I' for Inactive)
REMARK    1  A    between atoms: O_6  and  C_23
REMARK    2  A    between atoms: O_6  and  C_31
REMARK    3  A    between atoms: N_9  and  C_14
REMARK    4  A    between atoms: N_10  and  C_19
REMARK    5  A    between atoms: N_11  and  C_29
REMARK    6  A    between atoms: N_12  and  C_30
REMARK    7  A    between atoms: C_13  and  C_17
REMARK    8  A    between atoms: C_18  and  C_20
REMARK    9  A    between atoms: C_19  and  C_21
REMARK   10  A    between atoms: C_19  and  C_23
REMARK   11  A    between atoms: C_21  and  C_25
REMARK   12  A    between atoms: C_21  and  C_26
REMARK                            x       y       z     vdW  Elec       q    Type
REMARK                         _______ _______ _______ _____ _____    ______ ____
ROOT
ATOM      4  O   UNL     1      -3.553 -13.164  10.941  0.00  0.00    -0.268 OA
ATOM      8  N   UNL     1      -4.149 -11.353   9.642  0.00  0.00    -0.283 N 
ATOM     13  C   UNL     1      -3.482 -10.364  10.476  0.00  0.00    +0.164 C 
ATOM     14  C   UNL     1      -4.685  -9.230   8.710  0.00  0.00    +0.094 C 
ATOM     15  C   UNL     1      -3.488  -9.078   9.652  0.00  0.00    +0.056 C 
ATOM     16  C   UNL     1      -4.753 -10.734   8.461  0.00  0.00    +0.131 C 
ATOM     18  C   UNL     1      -4.081 -12.721   9.920  0.00  0.00    +0.264 C 
ENDROOT
BRANCH  14   9
ATOM      5  O   UNL     1      -7.076  -8.521   7.303  0.00  0.00    -0.252 OA
ATOM      9  N   UNL     1      -5.907  -8.730   9.287  0.00  0.00    -0.295 N 
ATOM     12  N   UNL     1      -8.066  -7.947   9.351  0.00  0.00    -0.267 N 
ATOM     22  C   UNL     1      -7.037  -8.405   8.525  0.00  0.00    +0.304 C 
ATOM     37  H   UNL     1      -5.932  -8.553  10.286  0.00  0.00    +0.151 HD
ATOM     39  H   UNL     1      -7.875  -7.916  10.350  0.00  0.00    +0.156 HD
BRANCH  12  30
ATOM      1  F   UNL     1      -8.551  -5.342   8.484  0.00  0.00    -0.203 F 
ATOM      2  F   UNL     1     -13.144  -6.293   7.861  0.00  0.00    -0.205 F 
ATOM     30  C   UNL     1      -9.361  -7.522   8.971  0.00  0.00    +0.070 A 
ATOM     32  C   UNL     1      -9.571  -6.211   8.541  0.00  0.00    +0.147 A 
ATOM     33  C   UNL     1     -10.429  -8.416   9.027  0.00  0.00    +0.029 A 
ATOM     34  C   UNL     1     -10.849  -5.797   8.166  0.00  0.00    +0.078 A 
ATOM     35  C   UNL     1     -11.707  -8.002   8.652  0.00  0.00    +0.040 A 
ATOM     36  C   UNL     1     -11.917  -6.691   8.222  0.00  0.00    +0.126 A 
ENDBRANCH  12  30
ENDBRANCH  14   9
BRANCH  18  20
ATOM     11  N   UNL     1      -6.016 -13.993   8.966  0.00  0.00    -0.346 N 
ATOM     20  C   UNL     1      -4.699 -13.614   8.948  0.00  0.00    +0.104 A 
ATOM     24  C   UNL     1      -4.099 -14.223   7.868  0.00  0.00    +0.032 A 
ATOM     27  C   UNL     1      -6.266 -14.834   7.913  0.00  0.00    +0.086 A 
ATOM     28  C   UNL     1      -5.090 -14.995   7.213  0.00  0.00    +0.020 A 
ATOM     29  C   UNL     1      -7.003 -13.578   9.937  0.00  0.00    +0.149 C 
ENDBRANCH  18  20
BRANCH  13  17
ATOM      3  O   UNL     1      -5.307  -9.572  11.794  0.00  0.00    -0.274 OA
ATOM     10  N   UNL     1      -3.631 -10.816  12.826  0.00  0.00    -0.301 N 
ATOM     17  C   UNL     1      -4.254 -10.202  11.751  0.00  0.00    +0.234 C 
ATOM     38  H   UNL     1      -2.766 -11.325  12.671  0.00  0.00    +0.150 HD
BRANCH  10  19
ATOM     19  C   UNL     1      -4.159 -10.787  14.167  0.00  0.00    +0.184 C 
BRANCH  19  21
ATOM     21  C   UNL     1      -3.073 -11.042  15.235  0.00  0.00    +0.014 C 
ATOM     25  C   UNL     1      -1.749 -10.377  14.849  0.00  0.00    +0.009 C 
ATOM     26  C   UNL     1      -3.491 -10.598  16.641  0.00  0.00    +0.009 C 
ENDBRANCH  19  21
BRANCH  19  23
ATOM      7  O   UNL     1      -6.463 -11.369  14.614  0.00  0.00    -0.249 OA
ATOM     23  C   UNL     1      -5.332 -11.748  14.330  0.00  0.00    +0.328 C 
BRANCH  23   6
ATOM      6  O   UNL     1      -4.968 -13.045  14.127  0.00  0.00    -0.467 OA
ATOM     31  C   UNL     1      -5.957 -13.880  13.515  0.00  0.00    +0.280 C 
ENDBRANCH  23   6
ENDBRANCH  19  23
ENDBRANCH  10  19
ENDBRANCH  13  17
TORSDOF 8
ENDMDL
MODEL 9
REMARK VINA RESULT:      -5.4      4.493      8.037
REMARK  Name = 7049403
REMARK  12 active torsions:
REMARK  status: ('A' for Active; 'I' for Inactive)
REMARK    1  A    between atoms: O_6  and  C_23
REMARK    2  A    between atoms: O_6  and  C_31
REMARK    3  A    between atoms: N_9  and  C_14
REMARK    4  A    between atoms: N_10  and  C_19
REMARK    5  A    between atoms: N_11  and  C_29
REMARK    6  A    between atoms: N_12  and  C_30
REMARK    7  A    between atoms: C_13  and  C_17
REMARK    8  A    between atoms: C_18  and  C_20
REMARK    9  A    between atoms: C_19  and  C_21
REMARK   10  A    between atoms: C_19  and  C_23
REMARK   11  A    between atoms: C_21  and  C_25
REMARK   12  A    between atoms: C_21  and  C_26
REMARK                            x       y       z     vdW  Elec       q    Type
REMARK                         _______ _______ _______ _____ _____    ______ ____
ROOT
ATOM      4  O   UNL     1      10.049   6.826  -2.913  0.00  0.00    -0.268 OA
ATOM      8  N   UNL     1       9.715   7.971  -0.939  0.00  0.00    -0.283 N 
ATOM     13  C   UNL     1      11.036   7.691  -0.396  0.00  0.00    +0.164 C 
ATOM     14  C   UNL     1       9.731   8.868   1.265  0.00  0.00    +0.094 C 
ATOM     15  C   UNL     1      11.172   8.607   0.820  0.00  0.00    +0.056 C 
ATOM     16  C   UNL     1       8.941   8.829  -0.039  0.00  0.00    +0.131 C 
ATOM     18  C   UNL     1       9.336   7.551  -2.216  0.00  0.00    +0.264 C 
ENDROOT
BRANCH  14   9
ATOM      5  O   UNL     1      10.400   8.694   4.045  0.00  0.00    -0.252 OA
ATOM      9  N   UNL     1       9.257   7.884   2.205  0.00  0.00    -0.295 N 
ATOM     12  N   UNL     1       9.022   6.803   4.219  0.00  0.00    -0.267 N 
ATOM     22  C   UNL     1       9.635   7.868   3.554  0.00  0.00    +0.304 C 
ATOM     37  H   UNL     1       8.666   7.133   1.861  0.00  0.00    +0.151 HD
ATOM     39  H   UNL     1       8.407   6.209   3.668  0.00  0.00    +0.156 HD
BRANCH  12  30
ATOM      1  F   UNL     1      10.220   4.408   4.996  0.00  0.00    -0.203 F 
ATOM      2  F   UNL     1       9.498   5.409   9.564  0.00  0.00    -0.205 F 
ATOM     30  C   UNL     1       9.144   6.444   5.582  0.00  0.00    +0.070 A 
ATOM     32  C   UNL     1       9.749   5.238   5.938  0.00  0.00    +0.147 A 
ATOM     33  C   UNL     1       8.658   7.299   6.570  0.00  0.00    +0.029 A 
ATOM     34  C   UNL     1       9.868   4.889   7.284  0.00  0.00    +0.078 A 
ATOM     35  C   UNL     1       8.777   6.949   7.915  0.00  0.00    +0.040 A 
ATOM     36  C   UNL     1       9.382   5.744   8.272  0.00  0.00    +0.126 A 
ENDBRANCH  12  30
ENDBRANCH  14   9
BRANCH  18  20
ATOM     11  N   UNL     1       7.775   9.206  -3.260  0.00  0.00    -0.346 N 
ATOM     20  C   UNL     1       8.027   7.989  -2.684  0.00  0.00    +0.104 A 
ATOM     24  C   UNL     1       6.842   7.290  -2.635  0.00  0.00    +0.032 A 
ATOM     27  C   UNL     1       6.445   9.294  -3.582  0.00  0.00    +0.086 A 
ATOM     28  C   UNL     1       5.840   8.116  -3.204  0.00  0.00    +0.020 A 
ATOM     29  C   UNL     1       8.748  10.248  -3.502  0.00  0.00    +0.149 C 
ENDBRANCH  18  20
BRANCH  13  17
ATOM      3  O   UNL     1      10.354   5.769   0.844  0.00  0.00    -0.274 OA
ATOM     10  N   UNL     1      12.100   5.561  -0.682  0.00  0.00    -0.301 N 
ATOM     17  C   UNL     1      11.104   6.246  -0.003  0.00  0.00    +0.234 C 
ATOM     38  H   UNL     1      12.654   6.055  -1.376  0.00  0.00    +0.150 HD
BRANCH  10  19
ATOM     19  C   UNL     1      12.385   4.164  -0.468  0.00  0.00    +0.184 C 
BRANCH  19  21
ATOM     21  C   UNL     1      13.894   3.892  -0.275  0.00  0.00    +0.014 C 
ATOM     25  C   UNL     1      14.734   5.101  -0.697  0.00  0.00    +0.009 C 
ATOM     26  C   UNL     1      14.255   3.477   1.155  0.00  0.00    +0.009 C 
ENDBRANCH  19  21
BRANCH  19  23
ATOM      7  O   UNL     1      10.600   3.103  -1.707  0.00  0.00    -0.249 OA
ATOM     23  C   UNL     1      11.804   3.296  -1.579  0.00  0.00    +0.328 C 
BRANCH  23   6
ATOM      6  O   UNL     1      12.770   2.776  -2.387  0.00  0.00    -0.467 OA
ATOM     31  C   UNL     1      12.530   2.884  -3.794  0.00  0.00    +0.280 C 
ENDBRANCH  23   6
ENDBRANCH  19  23
ENDBRANCH  10  19
ENDBRANCH  13  17
TORSDOF 8
ENDMDL
MODEL 10
REMARK VINA RESULT:      -5.4     27.961     30.657
REMARK  Name = 7049403
REMARK  12 active torsions:
REMARK  status: ('A' for Active; 'I' for Inactive)
REMARK    1  A    between atoms: O_6  and  C_23
REMARK    2  A    between atoms: O_6  and  C_31
REMARK    3  A    between atoms: N_9  and  C_14
REMARK    4  A    between atoms: N_10  and  C_19
REMARK    5  A    between atoms: N_11  and  C_29
REMARK    6  A    between atoms: N_12  and  C_30
REMARK    7  A    between atoms: C_13  and  C_17
REMARK    8  A    between atoms: C_18  and  C_20
REMARK    9  A    between atoms: C_19  and  C_21
REMARK   10  A    between atoms: C_19  and  C_23
REMARK   11  A    between atoms: C_21  and  C_25
REMARK   12  A    between atoms: C_21  and  C_26
REMARK                            x       y       z     vdW  Elec       q    Type
REMARK                         _______ _______ _______ _____ _____    ______ ____
ROOT
ATOM      4  O   UNL     1      -8.317 -12.397  16.968  0.00  0.00    -0.268 OA
ATOM      8  N   UNL     1      -8.821 -10.148  17.051  0.00  0.00    -0.283 N 
ATOM     13  C   UNL     1     -10.166 -10.331  17.575  0.00  0.00    +0.164 C 
ATOM     14  C   UNL     1      -9.804  -7.982  17.126  0.00  0.00    +0.094 C 
ATOM     15  C   UNL     1     -10.623  -8.936  17.999  0.00  0.00    +0.056 C 
ATOM     16  C   UNL     1      -8.489  -8.727  16.919  0.00  0.00    +0.131 C 
ATOM     18  C   UNL     1      -7.958 -11.226  16.835  0.00  0.00    +0.264 C 
ENDROOT
BRANCH  14   9
ATOM      5  O   UNL     1     -11.533  -5.767  16.572  0.00  0.00    -0.252 OA
ATOM      9  N   UNL     1     -10.452  -7.688  15.873  0.00  0.00    -0.295 N 
ATOM     12  N   UNL     1     -11.771  -6.552  14.373  0.00  0.00    -0.267 N 
ATOM     22  C   UNL     1     -11.287  -6.579  15.683  0.00  0.00    +0.304 C 
ATOM     37  H   UNL     1     -10.343  -8.345  15.106  0.00  0.00    +0.151 HD
ATOM     39  H   UNL     1     -11.467  -7.299  13.754  0.00  0.00    +0.156 HD
BRANCH  12  30
ATOM      1  F   UNL     1     -14.538  -6.714  14.680  0.00  0.00    -0.203 F 
ATOM      2  F   UNL     1     -15.159  -2.813  12.075  0.00  0.00    -0.205 F 
ATOM     30  C   UNL     1     -12.638  -5.600  13.787  0.00  0.00    +0.070 A 
ATOM     32  C   UNL     1     -14.019  -5.708  13.959  0.00  0.00    +0.147 A 
ATOM     33  C   UNL     1     -12.110  -4.551  13.036  0.00  0.00    +0.029 A 
ATOM     34  C   UNL     1     -14.870  -4.767  13.381  0.00  0.00    +0.078 A 
ATOM     35  C   UNL     1     -12.962  -3.609  12.458  0.00  0.00    +0.040 A 
ATOM     36  C   UNL     1     -14.342  -3.718  12.630  0.00  0.00    +0.126 A 
ENDBRANCH  12  30
ENDBRANCH  14   9
BRANCH  18  20
ATOM     11  N   UNL     1      -5.553 -10.678  17.263  0.00  0.00    -0.346 N 
ATOM     20  C   UNL     1      -6.603 -10.900  16.411  0.00  0.00    +0.104 A 
ATOM     24  C   UNL     1      -6.138 -10.757  15.123  0.00  0.00    +0.032 A 
ATOM     27  C   UNL     1      -4.424 -10.397  16.538  0.00  0.00    +0.086 A 
ATOM     28  C   UNL     1      -4.760 -10.439  15.202  0.00  0.00    +0.020 A 
ATOM     29  C   UNL     1      -5.608 -10.730  18.707  0.00  0.00    +0.149 C 
ENDBRANCH  18  20
BRANCH  13  17
ATOM      3  O   UNL     1     -12.190 -11.256  16.712  0.00  0.00    -0.274 OA
ATOM     10  N   UNL     1     -10.389 -10.946  15.269  0.00  0.00    -0.301 N 
ATOM     17  C   UNL     1     -11.040 -10.888  16.491  0.00  0.00    +0.234 C 
ATOM     38  H   UNL     1      -9.438 -10.598  15.197  0.00  0.00    +0.150 HD
BRANCH  10  19
ATOM     19  C   UNL     1     -11.004 -11.463  14.071  0.00  0.00    +0.184 C 
BRANCH  19  21
ATOM     21  C   UNL     1     -10.292 -12.728  13.541  0.00  0.00    +0.014 C 
ATOM     25  C   UNL     1      -8.784 -12.500  13.406  0.00  0.00    +0.009 C 
ATOM     26  C   UNL     1     -10.559 -13.974  14.393  0.00  0.00    +0.009 C 
ENDBRANCH  19  21
BRANCH  19  23
ATOM      7  O   UNL     1     -10.979  -9.198  13.224  0.00  0.00    -0.249 OA
ATOM     23  C   UNL     1     -11.112 -10.395  12.989  0.00  0.00    +0.328 C 
BRANCH  23   6
ATOM      6  O   UNL     1     -11.371 -10.927  11.762  0.00  0.00    -0.467 OA
ATOM     31  C   UNL     1     -12.617 -10.548  11.168  0.00  0.00    +0.280 C 
ENDBRANCH  23   6
ENDBRANCH  19  23
ENDBRANCH  10  19
ENDBRANCH  13  17
TORSDOF 8
ENDMDL
