MODEL 1
REMARK VINA RESULT:      -6.6      0.000      0.000
REMARK  Name = 38028638
REMARK  13 active torsions:
REMARK  status: ('A' for Active; 'I' for Inactive)
REMARK    1  A    between atoms: O_3  and  C_26
REMARK    2  A    between atoms: O_3  and  C_30
REMARK    3  A    between atoms: N_4  and  C_14
REMARK    4  A    between atoms: N_5  and  C_21
REMARK    5  A    between atoms: N_6  and  C_22
REMARK    6  A    between atoms: C_7  and  C_11
REMARK    7  A    between atoms: C_8  and  C_14
REMARK    8  A    between atoms: C_10  and  C_15
REMARK    9  A    between atoms: C_11  and  C_16
REMARK   10  A    between atoms: C_11  and  C_17
REMARK   11  A    between atoms: C_12  and  C_18
REMARK   12  A    between atoms: C_15  and  C_19
REMARK   13  A    between atoms: C_21  and  C_23
REMARK                            x       y       z     vdW  Elec       q    Type
REMARK                         _______ _______ _______ _____ _____    ______ ____
ROOT
ATOM      7  C   UNL     1      12.973  10.605  20.505  0.00  0.00    +0.000 C 
ATOM      8  C   UNL     1      12.736  10.413  22.024  0.00  0.00    +0.032 C 
ATOM      9  C   UNL     1      11.726  10.187  19.710  0.00  0.00    +0.012 C 
ATOM     10  C   UNL     1      11.343   8.716  19.962  0.00  0.00    +0.023 C 
ATOM     12  C   UNL     1      11.350   8.377  21.439  0.00  0.00    -0.073 C 
ATOM     13  C   UNL     1      11.967   9.153  22.347  0.00  0.00    -0.022 C 
ATOM     18  C   UNL     1      10.594   7.146  21.854  0.00  0.00    +0.039 C 
ENDROOT
BRANCH   7  11
ATOM     11  C   UNL     1      13.341  12.054  20.166  0.00  0.00    -0.013 C 
ATOM     16  C   UNL     1      13.550  12.212  18.664  0.00  0.00    +0.007 C 
ATOM     17  C   UNL     1      12.260  13.008  20.665  0.00  0.00    +0.007 C 
ENDBRANCH   7  11
BRANCH   8  14
ATOM     14  C   UNL     1      14.062  10.413  22.794  0.00  0.00    +0.113 C 
BRANCH  14   4
ATOM      2  O   UNL     1      16.091   9.653  20.920  0.00  0.00    -0.253 OA
ATOM      4  N   UNL     1      14.704   9.140  22.700  0.00  0.00    -0.299 N 
ATOM      6  N   UNL     1      16.139   7.519  21.897  0.00  0.00    -0.269 N 
ATOM     20  C   UNL     1      15.696   8.837  21.750  0.00  0.00    +0.304 C 
ATOM     31  H   UNL     1      14.483   8.432  23.395  0.00  0.00    +0.150 HD
ATOM     33  H   UNL     1      15.705   6.972  22.636  0.00  0.00    +0.156 HD
BRANCH   6  22
ATOM     22  C   UNL     1      17.123   6.844  21.137  0.00  0.00    +0.038 A 
ATOM     24  C   UNL     1      18.429   6.750  21.615  0.00  0.00    +0.069 A 
ATOM     25  C   UNL     1      16.787   6.271  19.910  0.00  0.00    +0.023 A 
ATOM     26  C   UNL     1      19.400   6.086  20.866  0.00  0.00    +0.122 A 
ATOM     27  C   UNL     1      17.758   5.607  19.161  0.00  0.00    +0.005 A 
ATOM     28  C   UNL     1      19.064   5.514  19.640  0.00  0.00    +0.046 A 
BRANCH  26   3
ATOM      3  O   UNL     1      20.675   5.994  21.333  0.00  0.00    -0.495 OA
ATOM     30  C   UNL     1      21.661   5.488  20.433  0.00  0.00    +0.277 C 
ENDBRANCH  26   3
ENDBRANCH   6  22
ENDBRANCH  14   4
ENDBRANCH   8  14
BRANCH  10  15
ATOM     15  C   UNL     1      12.253   7.766  19.175  0.00  0.00    +0.103 C 
BRANCH  15  19
ATOM      1  O   UNL     1      11.205   7.820  16.995  0.00  0.00    -0.276 OA
ATOM      5  N   UNL     1      13.409   8.523  17.225  0.00  0.00    -0.304 N 
ATOM     19  C   UNL     1      12.199   8.027  17.688  0.00  0.00    +0.214 C 
ATOM     32  H   UNL     1      14.167   8.675  17.883  0.00  0.00    +0.150 HD
BRANCH   5  21
ATOM     21  C   UNL     1      13.646   8.861  15.841  0.00  0.00    +0.193 C 
BRANCH  21  23
ATOM     23  C   UNL     1      14.514  10.033  15.725  0.00  0.00    -0.087 C 
ATOM     29  C   UNL     1      15.226  10.995  15.627  0.00  0.00    +0.005 C 
ENDBRANCH  21  23
ENDBRANCH   5  21
ENDBRANCH  15  19
ENDBRANCH  10  15
TORSDOF 9
ENDMDL
MODEL 2
REMARK VINA RESULT:      -6.3      2.121      5.179
REMARK  Name = 38028638
REMARK  13 active torsions:
REMARK  status: ('A' for Active; 'I' for Inactive)
REMARK    1  A    between atoms: O_3  and  C_26
REMARK    2  A    between atoms: O_3  and  C_30
REMARK    3  A    between atoms: N_4  and  C_14
REMARK    4  A    between atoms: N_5  and  C_21
REMARK    5  A    between atoms: N_6  and  C_22
REMARK    6  A    between atoms: C_7  and  C_11
REMARK    7  A    between atoms: C_8  and  C_14
REMARK    8  A    between atoms: C_10  and  C_15
REMARK    9  A    between atoms: C_11  and  C_16
REMARK   10  A    between atoms: C_11  and  C_17
REMARK   11  A    between atoms: C_12  and  C_18
REMARK   12  A    between atoms: C_15  and  C_19
REMARK   13  A    between atoms: C_21  and  C_23
REMARK                            x       y       z     vdW  Elec       q    Type
REMARK                         _______ _______ _______ _____ _____    ______ ____
ROOT
ATOM      7  C   UNL     1      11.979   8.659  20.653  0.00  0.00    +0.000 C 
ATOM      8  C   UNL     1      12.139   8.364  19.141  0.00  0.00    +0.032 C 
ATOM      9  C   UNL     1      11.681  10.149  20.880  0.00  0.00    +0.012 C 
ATOM     10  C   UNL     1      12.794  11.056  20.321  0.00  0.00    +0.023 C 
ATOM     12  C   UNL     1      13.198  10.653  18.918  0.00  0.00    -0.073 C 
ATOM     13  C   UNL     1      12.886   9.450  18.403  0.00  0.00    -0.022 C 
ATOM     18  C   UNL     1      13.932  11.681  18.103  0.00  0.00    +0.039 C 
ENDROOT
BRANCH   7  11
ATOM     11  C   UNL     1      10.872   7.807  21.284  0.00  0.00    -0.013 C 
ATOM     16  C   UNL     1      11.373   6.390  21.540  0.00  0.00    +0.007 C 
ATOM     17  C   UNL     1      10.378   8.448  22.577  0.00  0.00    +0.007 C 
ENDBRANCH   7  11
BRANCH   8  14
ATOM     14  C   UNL     1      12.838   7.019  18.911  0.00  0.00    +0.113 C 
BRANCH  14   4
ATOM      2  O   UNL     1      14.807   6.343  20.879  0.00  0.00    -0.253 OA
ATOM      4  N   UNL     1      14.252   7.194  18.800  0.00  0.00    -0.299 N 
ATOM      6  N   UNL     1      16.474   7.124  19.422  0.00  0.00    -0.269 N 
ATOM     20  C   UNL     1      15.163   6.837  19.811  0.00  0.00    +0.304 C 
ATOM     31  H   UNL     1      14.631   7.532  17.920  0.00  0.00    +0.150 HD
ATOM     33  H   UNL     1      16.597   7.536  18.501  0.00  0.00    +0.156 HD
BRANCH   6  22
ATOM     22  C   UNL     1      17.664   6.911  20.158  0.00  0.00    +0.038 A 
ATOM     24  C   UNL     1      18.019   7.793  21.178  0.00  0.00    +0.069 A 
ATOM     25  C   UNL     1      18.482   5.820  19.864  0.00  0.00    +0.023 A 
ATOM     26  C   UNL     1      19.192   7.585  21.903  0.00  0.00    +0.122 A 
ATOM     27  C   UNL     1      19.654   5.612  20.589  0.00  0.00    +0.005 A 
ATOM     28  C   UNL     1      20.010   6.494  21.609  0.00  0.00    +0.046 A 
BRANCH  26   3
ATOM      3  O   UNL     1      19.539   8.445  22.899  0.00  0.00    -0.495 OA
ATOM     30  C   UNL     1      20.357   7.928  23.948  0.00  0.00    +0.277 C 
ENDBRANCH  26   3
ENDBRANCH   6  22
ENDBRANCH  14   4
ENDBRANCH   8  14
BRANCH  10  15
ATOM     15  C   UNL     1      14.008  11.081  21.257  0.00  0.00    +0.103 C 
BRANCH  15  19
ATOM      1  O   UNL     1      13.629  13.160  22.436  0.00  0.00    -0.276 OA
ATOM      5  N   UNL     1      13.731  11.168  23.630  0.00  0.00    -0.304 N 
ATOM     19  C   UNL     1      13.768  11.939  22.478  0.00  0.00    +0.214 C 
ATOM     32  H   UNL     1      13.841  10.161  23.556  0.00  0.00    +0.150 HD
BRANCH   5  21
ATOM     21  C   UNL     1      13.518  11.724  24.946  0.00  0.00    +0.193 C 
BRANCH  21  23
ATOM     23  C   UNL     1      12.106  12.034  25.166  0.00  0.00    -0.087 C 
ATOM     29  C   UNL     1      10.947  12.292  25.345  0.00  0.00    +0.005 C 
ENDBRANCH  21  23
ENDBRANCH   5  21
ENDBRANCH  15  19
ENDBRANCH  10  15
TORSDOF 9
ENDMDL
MODEL 3
REMARK VINA RESULT:      -6.3     27.836     32.169
REMARK  Name = 38028638
REMARK  13 active torsions:
REMARK  status: ('A' for Active; 'I' for Inactive)
REMARK    1  A    between atoms: O_3  and  C_26
REMARK    2  A    between atoms: O_3  and  C_30
REMARK    3  A    between atoms: N_4  and  C_14
REMARK    4  A    between atoms: N_5  and  C_21
REMARK    5  A    between atoms: N_6  and  C_22
REMARK    6  A    between atoms: C_7  and  C_11
REMARK    7  A    between atoms: C_8  and  C_14
REMARK    8  A    between atoms: C_10  and  C_15
REMARK    9  A    between atoms: C_11  and  C_16
REMARK   10  A    between atoms: C_11  and  C_17
REMARK   11  A    between atoms: C_12  and  C_18
REMARK   12  A    between atoms: C_15  and  C_19
REMARK   13  A    between atoms: C_21  and  C_23
REMARK                            x       y       z     vdW  Elec       q    Type
REMARK                         _______ _______ _______ _____ _____    ______ ____
ROOT
ATOM      7  C   UNL     1     -15.788   2.041  29.474  0.00  0.00    +0.000 C 
ATOM      8  C   UNL     1     -17.076   1.705  28.680  0.00  0.00    +0.032 C 
ATOM      9  C   UNL     1     -16.143   2.631  30.847  0.00  0.00    +0.012 C 
ATOM     10  C   UNL     1     -16.991   3.911  30.728  0.00  0.00    +0.023 C 
ATOM     12  C   UNL     1     -18.135   3.741  29.749  0.00  0.00    -0.073 C 
ATOM     13  C   UNL     1     -18.161   2.742  28.848  0.00  0.00    -0.022 C 
ATOM     18  C   UNL     1     -19.269   4.721  29.856  0.00  0.00    +0.039 C 
ENDROOT
BRANCH   7  11
ATOM     11  C   UNL     1     -14.894   0.809  29.654  0.00  0.00    -0.013 C 
ATOM     16  C   UNL     1     -13.524   1.220  30.182  0.00  0.00    +0.007 C 
ATOM     17  C   UNL     1     -15.556  -0.196  30.592  0.00  0.00    +0.007 C 
ENDBRANCH   7  11
BRANCH   8  14
ATOM     14  C   UNL     1     -16.773   1.522  27.188  0.00  0.00    +0.113 C 
BRANCH  14   4
ATOM      2  O   UNL     1     -16.411   2.093  24.404  0.00  0.00    -0.253 OA
ATOM      4  N   UNL     1     -16.251   2.727  26.624  0.00  0.00    -0.299 N 
ATOM      6  N   UNL     1     -15.568   4.205  24.987  0.00  0.00    -0.269 N 
ATOM     20  C   UNL     1     -16.102   2.938  25.241  0.00  0.00    +0.304 C 
ATOM     31  H   UNL     1     -16.037   3.501  27.247  0.00  0.00    +0.150 HD
ATOM     33  H   UNL     1     -15.364   4.785  25.797  0.00  0.00    +0.156 HD
BRANCH   6  22
ATOM     22  C   UNL     1     -15.272   4.787  23.732  0.00  0.00    +0.038 A 
ATOM     24  C   UNL     1     -13.945   4.943  23.333  0.00  0.00    +0.069 A 
ATOM     25  C   UNL     1     -16.306   5.203  22.893  0.00  0.00    +0.023 A 
ATOM     26  C   UNL     1     -13.652   5.517  22.096  0.00  0.00    +0.122 A 
ATOM     27  C   UNL     1     -16.013   5.777  21.657  0.00  0.00    +0.005 A 
ATOM     28  C   UNL     1     -14.686   5.934  21.258  0.00  0.00    +0.046 A 
BRANCH  26   3
ATOM      3  O   UNL     1     -12.358   5.670  21.705  0.00  0.00    -0.495 OA
ATOM     30  C   UNL     1     -12.060   6.784  20.863  0.00  0.00    +0.277 C 
ENDBRANCH  26   3
ENDBRANCH   6  22
ENDBRANCH  14   4
ENDBRANCH   8  14
BRANCH  10  15
ATOM     15  C   UNL     1     -16.122   5.117  30.354  0.00  0.00    +0.103 C 
BRANCH  15  19
ATOM      1  O   UNL     1     -16.589   6.801  32.028  0.00  0.00    -0.276 OA
ATOM      5  N   UNL     1     -14.525   5.731  32.024  0.00  0.00    -0.304 N 
ATOM     19  C   UNL     1     -15.804   5.984  31.551  0.00  0.00    +0.214 C 
ATOM     32  H   UNL     1     -13.959   5.021  31.568  0.00  0.00    +0.150 HD
BRANCH   5  21
ATOM     21  C   UNL     1     -13.954   6.417  33.160  0.00  0.00    +0.193 C 
BRANCH  21  23
ATOM     23  C   UNL     1     -13.022   7.460  32.732  0.00  0.00    -0.087 C 
ATOM     29  C   UNL     1     -12.260   8.318  32.379  0.00  0.00    +0.005 C 
ENDBRANCH  21  23
ENDBRANCH   5  21
ENDBRANCH  15  19
ENDBRANCH  10  15
TORSDOF 9
ENDMDL
MODEL 4
REMARK VINA RESULT:      -6.2      2.371      5.138
REMARK  Name = 38028638
REMARK  13 active torsions:
REMARK  status: ('A' for Active; 'I' for Inactive)
REMARK    1  A    between atoms: O_3  and  C_26
REMARK    2  A    between atoms: O_3  and  C_30
REMARK    3  A    between atoms: N_4  and  C_14
REMARK    4  A    between atoms: N_5  and  C_21
REMARK    5  A    between atoms: N_6  and  C_22
REMARK    6  A    between atoms: C_7  and  C_11
REMARK    7  A    between atoms: C_8  and  C_14
REMARK    8  A    between atoms: C_10  and  C_15
REMARK    9  A    between atoms: C_11  and  C_16
REMARK   10  A    between atoms: C_11  and  C_17
REMARK   11  A    between atoms: C_12  and  C_18
REMARK   12  A    between atoms: C_15  and  C_19
REMARK   13  A    between atoms: C_21  and  C_23
REMARK                            x       y       z     vdW  Elec       q    Type
REMARK                         _______ _______ _______ _____ _____    ______ ____
ROOT
ATOM      7  C   UNL     1      14.261   8.345  19.896  0.00  0.00    +0.000 C 
ATOM      8  C   UNL     1      15.791   8.097  19.875  0.00  0.00    +0.032 C 
ATOM      9  C   UNL     1      13.959   9.844  19.750  0.00  0.00    +0.012 C 
ATOM     10  C   UNL     1      14.603  10.679  20.873  0.00  0.00    +0.023 C 
ATOM     12  C   UNL     1      16.053  10.299  21.096  0.00  0.00    -0.073 C 
ATOM     13  C   UNL     1      16.570   9.147  20.632  0.00  0.00    -0.022 C 
ATOM     18  C   UNL     1      16.909  11.295  21.828  0.00  0.00    +0.039 C 
ENDROOT
BRANCH   7  11
ATOM     11  C   UNL     1      13.544   7.562  18.790  0.00  0.00    -0.013 C 
ATOM     16  C   UNL     1      12.105   8.045  18.645  0.00  0.00    +0.007 C 
ATOM     17  C   UNL     1      14.296   7.696  17.470  0.00  0.00    +0.007 C 
ENDBRANCH   7  11
BRANCH   8  14
ATOM     14  C   UNL     1      16.133   6.709  20.430  0.00  0.00    +0.113 C 
BRANCH  14   4
ATOM      2  O   UNL     1      18.564   6.457  21.924  0.00  0.00    -0.253 OA
ATOM      4  N   UNL     1      17.398   6.263  19.935  0.00  0.00    -0.299 N 
ATOM      6  N   UNL     1      19.637   5.701  19.978  0.00  0.00    -0.269 N 
ATOM     20  C   UNL     1      18.554   6.164  20.731  0.00  0.00    +0.304 C 
ATOM     31  H   UNL     1      17.455   5.936  18.975  0.00  0.00    +0.150 HD
ATOM     33  H   UNL     1      19.459   5.505  18.996  0.00  0.00    +0.156 HD
BRANCH   6  22
ATOM     22  C   UNL     1      20.962   5.469  20.415  0.00  0.00    +0.038 A 
ATOM     24  C   UNL     1      21.343   4.196  20.839  0.00  0.00    +0.069 A 
ATOM     25  C   UNL     1      21.888   6.513  20.424  0.00  0.00    +0.023 A 
ATOM     26  C   UNL     1      22.649   3.967  21.271  0.00  0.00    +0.122 A 
ATOM     27  C   UNL     1      23.193   6.284  20.856  0.00  0.00    +0.005 A 
ATOM     28  C   UNL     1      23.574   5.010  21.279  0.00  0.00    +0.046 A 
BRANCH  26   3
ATOM      3  O   UNL     1      23.022   2.725  21.683  0.00  0.00    -0.495 OA
ATOM     30  C   UNL     1      23.922   2.004  20.842  0.00  0.00    +0.277 C 
ENDBRANCH  26   3
ENDBRANCH   6  22
ENDBRANCH  14   4
ENDBRANCH   8  14
BRANCH  10  15
ATOM     15  C   UNL     1      13.800  10.568  22.174  0.00  0.00    +0.103 C 
BRANCH  15  19
ATOM      1  O   UNL     1      11.544  10.887  21.361  0.00  0.00    -0.276 OA
ATOM      5  N   UNL     1      12.111   8.894  22.414  0.00  0.00    -0.304 N 
ATOM     19  C   UNL     1      12.364  10.166  21.925  0.00  0.00    +0.214 C 
ATOM     32  H   UNL     1      12.864   8.371  22.851  0.00  0.00    +0.150 HD
BRANCH   5  21
ATOM     21  C   UNL     1      10.819   8.254  22.316  0.00  0.00    +0.193 C 
BRANCH  21  23
ATOM     23  C   UNL     1      10.952   6.864  21.879  0.00  0.00    -0.087 C 
ATOM     29  C   UNL     1      11.064   5.724  21.520  0.00  0.00    +0.005 C 
ENDBRANCH  21  23
ENDBRANCH   5  21
ENDBRANCH  15  19
ENDBRANCH  10  15
TORSDOF 9
ENDMDL
MODEL 5
REMARK VINA RESULT:      -6.1      1.688      2.638
REMARK  Name = 38028638
REMARK  13 active torsions:
REMARK  status: ('A' for Active; 'I' for Inactive)
REMARK    1  A    between atoms: O_3  and  C_26
REMARK    2  A    between atoms: O_3  and  C_30
REMARK    3  A    between atoms: N_4  and  C_14
REMARK    4  A    between atoms: N_5  and  C_21
REMARK    5  A    between atoms: N_6  and  C_22
REMARK    6  A    between atoms: C_7  and  C_11
REMARK    7  A    between atoms: C_8  and  C_14
REMARK    8  A    between atoms: C_10  and  C_15
REMARK    9  A    between atoms: C_11  and  C_16
REMARK   10  A    between atoms: C_11  and  C_17
REMARK   11  A    between atoms: C_12  and  C_18
REMARK   12  A    between atoms: C_15  and  C_19
REMARK   13  A    between atoms: C_21  and  C_23
REMARK                            x       y       z     vdW  Elec       q    Type
REMARK                         _______ _______ _______ _____ _____    ______ ____
ROOT
ATOM      7  C   UNL     1      13.885  11.619  20.675  0.00  0.00    +0.000 C 
ATOM      8  C   UNL     1      14.085  12.417  21.988  0.00  0.00    +0.032 C 
ATOM      9  C   UNL     1      12.388  11.431  20.385  0.00  0.00    +0.012 C 
ATOM     10  C   UNL     1      11.664  10.687  21.523  0.00  0.00    +0.023 C 
ATOM     12  C   UNL     1      12.024  11.249  22.883  0.00  0.00    -0.073 C 
ATOM     13  C   UNL     1      13.103  12.031  23.070  0.00  0.00    -0.022 C 
ATOM     18  C   UNL     1      11.090  10.929  24.017  0.00  0.00    +0.039 C 
ENDROOT
BRANCH   7  11
ATOM     11  C   UNL     1      14.561  12.307  19.484  0.00  0.00    -0.013 C 
ATOM     16  C   UNL     1      15.318  11.286  18.641  0.00  0.00    +0.007 C 
ATOM     17  C   UNL     1      13.529  13.047  18.640  0.00  0.00    +0.007 C 
ENDBRANCH   7  11
BRANCH   8  14
ATOM     14  C   UNL     1      15.515  12.259  22.518  0.00  0.00    +0.113 C 
BRANCH  14   4
ATOM      2  O   UNL     1      17.717  11.008  21.179  0.00  0.00    -0.253 OA
ATOM      4  N   UNL     1      15.883  10.879  22.583  0.00  0.00    -0.299 N 
ATOM      6  N   UNL     1      17.095   8.963  22.148  0.00  0.00    -0.269 N 
ATOM     20  C   UNL     1      16.982  10.333  21.896  0.00  0.00    +0.304 C 
ATOM     31  H   UNL     1      15.366  10.268  23.210  0.00  0.00    +0.150 HD
ATOM     33  H   UNL     1      16.399   8.554  22.767  0.00  0.00    +0.156 HD
BRANCH   6  22
ATOM     22  C   UNL     1      18.065   8.064  21.644  0.00  0.00    +0.038 A 
ATOM     24  C   UNL     1      17.693   7.079  20.730  0.00  0.00    +0.069 A 
ATOM     25  C   UNL     1      19.392   8.163  22.062  0.00  0.00    +0.023 A 
ATOM     26  C   UNL     1      18.649   6.193  20.234  0.00  0.00    +0.122 A 
ATOM     27  C   UNL     1      20.347   7.277  21.566  0.00  0.00    +0.005 A 
ATOM     28  C   UNL     1      19.975   6.291  20.651  0.00  0.00    +0.046 A 
BRANCH  26   3
ATOM      3  O   UNL     1      18.287   5.231  19.341  0.00  0.00    -0.495 OA
ATOM     30  C   UNL     1      17.238   5.554  18.428  0.00  0.00    +0.277 C 
ENDBRANCH  26   3
ENDBRANCH   6  22
ENDBRANCH  14   4
ENDBRANCH   8  14
BRANCH  10  15
ATOM     15  C   UNL     1      11.940   9.180  21.461  0.00  0.00    +0.103 C 
BRANCH  15  19
ATOM      1  O   UNL     1      10.511   8.482  19.637  0.00  0.00    -0.276 OA
ATOM      5  N   UNL     1      12.815   8.235  19.447  0.00  0.00    -0.304 N 
ATOM     19  C   UNL     1      11.646   8.603  20.095  0.00  0.00    +0.214 C 
ATOM     32  H   UNL     1      13.707   8.391  19.906  0.00  0.00    +0.150 HD
BRANCH   5  21
ATOM     21  C   UNL     1      12.835   7.652  18.125  0.00  0.00    +0.193 C 
BRANCH  21  23
ATOM     23  C   UNL     1      13.017   8.678  17.099  0.00  0.00    -0.087 C 
ATOM     29  C   UNL     1      13.167   9.524  16.260  0.00  0.00    +0.005 C 
ENDBRANCH  21  23
ENDBRANCH   5  21
ENDBRANCH  15  19
ENDBRANCH  10  15
TORSDOF 9
ENDMDL
MODEL 6
REMARK VINA RESULT:      -6.0     25.416     27.809
REMARK  Name = 38028638
REMARK  13 active torsions:
REMARK  status: ('A' for Active; 'I' for Inactive)
REMARK    1  A    between atoms: O_3  and  C_26
REMARK    2  A    between atoms: O_3  and  C_30
REMARK    3  A    between atoms: N_4  and  C_14
REMARK    4  A    between atoms: N_5  and  C_21
REMARK    5  A    between atoms: N_6  and  C_22
REMARK    6  A    between atoms: C_7  and  C_11
REMARK    7  A    between atoms: C_8  and  C_14
REMARK    8  A    between atoms: C_10  and  C_15
REMARK    9  A    between atoms: C_11  and  C_16
REMARK   10  A    between atoms: C_11  and  C_17
REMARK   11  A    between atoms: C_12  and  C_18
REMARK   12  A    between atoms: C_15  and  C_19
REMARK   13  A    between atoms: C_21  and  C_23
REMARK                            x       y       z     vdW  Elec       q    Type
REMARK                         _______ _______ _______ _____ _____    ______ ____
ROOT
ATOM      7  C   UNL     1     -12.250   8.772  19.700  0.00  0.00    +0.000 C 
ATOM      8  C   UNL     1     -11.500  10.022  20.225  0.00  0.00    +0.032 C 
ATOM      9  C   UNL     1     -11.386   8.018  18.678  0.00  0.00    +0.012 C 
ATOM     10  C   UNL     1     -11.005   8.900  17.474  0.00  0.00    +0.023 C 
ATOM     12  C   UNL     1     -10.505  10.262  17.910  0.00  0.00    -0.073 C 
ATOM     13  C   UNL     1     -10.725  10.742  19.147  0.00  0.00    -0.022 C 
ATOM     18  C   UNL     1      -9.707  11.044  16.903  0.00  0.00    +0.039 C 
ENDROOT
BRANCH   7  11
ATOM     11  C   UNL     1     -12.648   7.828  20.840  0.00  0.00    -0.013 C 
ATOM     16  C   UNL     1     -14.118   7.440  20.720  0.00  0.00    +0.007 C 
ATOM     17  C   UNL     1     -11.760   6.588  20.838  0.00  0.00    +0.007 C 
ENDBRANCH   7  11
BRANCH   8  14
ATOM     14  C   UNL     1     -12.466  11.003  20.900  0.00  0.00    +0.113 C 
BRANCH  14   4
ATOM      2  O   UNL     1     -13.106   9.879  23.457  0.00  0.00    -0.253 OA
ATOM      4  N   UNL     1     -11.959  11.422  22.170  0.00  0.00    -0.299 N 
ATOM      6  N   UNL     1     -11.668  11.440  24.460  0.00  0.00    -0.269 N 
ATOM     20  C   UNL     1     -12.319  10.821  23.389  0.00  0.00    +0.304 C 
ATOM     31  H   UNL     1     -11.250  12.149  22.192  0.00  0.00    +0.150 HD
ATOM     33  H   UNL     1     -11.047  12.212  24.231  0.00  0.00    +0.156 HD
BRANCH   6  22
ATOM     22  C   UNL     1     -11.767  11.125  25.835  0.00  0.00    +0.038 A 
ATOM     24  C   UNL     1     -12.838  11.610  26.585  0.00  0.00    +0.069 A 
ATOM     25  C   UNL     1     -10.794  10.329  26.442  0.00  0.00    +0.023 A 
ATOM     26  C   UNL     1     -12.936  11.301  27.942  0.00  0.00    +0.122 A 
ATOM     27  C   UNL     1     -10.893  10.021  27.798  0.00  0.00    +0.005 A 
ATOM     28  C   UNL     1     -11.964  10.506  28.548  0.00  0.00    +0.046 A 
BRANCH  26   3
ATOM      3  O   UNL     1     -13.981  11.773  28.674  0.00  0.00    -0.495 OA
ATOM     30  C   UNL     1     -15.130  10.933  28.785  0.00  0.00    +0.277 C 
ENDBRANCH  26   3
ENDBRANCH   6  22
ENDBRANCH  14   4
ENDBRANCH   8  14
BRANCH  10  15
ATOM     15  C   UNL     1     -12.177   9.033  16.495  0.00  0.00    +0.103 C 
BRANCH  15  19
ATOM      1  O   UNL     1     -10.752   8.547  14.601  0.00  0.00    -0.276 OA
ATOM      5  N   UNL     1     -12.957   7.810  14.594  0.00  0.00    -0.304 N 
ATOM     19  C   UNL     1     -11.854   8.452  15.137  0.00  0.00    +0.214 C 
ATOM     32  H   UNL     1     -13.820   7.772  15.127  0.00  0.00    +0.150 HD
BRANCH   5  21
ATOM     21  C   UNL     1     -12.936   7.164  13.302  0.00  0.00    +0.193 C 
BRANCH  21  23
ATOM     23  C   UNL     1     -14.252   6.623  12.963  0.00  0.00    -0.087 C 
ATOM     29  C   UNL     1     -15.333   6.177  12.686  0.00  0.00    +0.005 C 
ENDBRANCH  21  23
ENDBRANCH   5  21
ENDBRANCH  15  19
ENDBRANCH  10  15
TORSDOF 9
ENDMDL
MODEL 7
REMARK VINA RESULT:      -5.9     13.948     17.153
REMARK  Name = 38028638
REMARK  13 active torsions:
REMARK  status: ('A' for Active; 'I' for Inactive)
REMARK    1  A    between atoms: O_3  and  C_26
REMARK    2  A    between atoms: O_3  and  C_30
REMARK    3  A    between atoms: N_4  and  C_14
REMARK    4  A    between atoms: N_5  and  C_21
REMARK    5  A    between atoms: N_6  and  C_22
REMARK    6  A    between atoms: C_7  and  C_11
REMARK    7  A    between atoms: C_8  and  C_14
REMARK    8  A    between atoms: C_10  and  C_15
REMARK    9  A    between atoms: C_11  and  C_16
REMARK   10  A    between atoms: C_11  and  C_17
REMARK   11  A    between atoms: C_12  and  C_18
REMARK   12  A    between atoms: C_15  and  C_19
REMARK   13  A    between atoms: C_21  and  C_23
REMARK                            x       y       z     vdW  Elec       q    Type
REMARK                         _______ _______ _______ _____ _____    ______ ____
ROOT
ATOM      7  C   UNL     1      10.511   8.576   6.611  0.00  0.00    +0.000 C 
ATOM      8  C   UNL     1      11.726   7.664   6.915  0.00  0.00    +0.032 C 
ATOM      9  C   UNL     1       9.435   8.417   7.697  0.00  0.00    +0.012 C 
ATOM     10  C   UNL     1       8.937   6.963   7.812  0.00  0.00    +0.023 C 
ATOM     12  C   UNL     1      10.085   5.976   7.847  0.00  0.00    -0.073 C 
ATOM     13  C   UNL     1      11.328   6.310   7.454  0.00  0.00    -0.022 C 
ATOM     18  C   UNL     1       9.783   4.605   8.385  0.00  0.00    +0.039 C 
ENDROOT
BRANCH   7  11
ATOM     11  C   UNL     1      10.920  10.049   6.500  0.00  0.00    -0.013 C 
ATOM     16  C   UNL     1       9.688  10.932   6.327  0.00  0.00    +0.007 C 
ATOM     17  C   UNL     1      11.720  10.473   7.727  0.00  0.00    +0.007 C 
ENDBRANCH   7  11
BRANCH   8  14
ATOM     14  C   UNL     1      12.604   7.481   5.672  0.00  0.00    +0.113 C 
BRANCH  14   4
ATOM      2  O   UNL     1      12.984   7.078   2.862  0.00  0.00    -0.253 OA
ATOM      4  N   UNL     1      12.166   6.358   4.903  0.00  0.00    -0.299 N 
ATOM      6  N   UNL     1      11.849   5.031   3.041  0.00  0.00    -0.269 N 
ATOM     20  C   UNL     1      12.389   6.228   3.520  0.00  0.00    +0.304 C 
ATOM     31  H   UNL     1      11.728   5.580   5.387  0.00  0.00    +0.150 HD
ATOM     33  H   UNL     1      11.384   4.436   3.721  0.00  0.00    +0.156 HD
BRANCH   6  22
ATOM     22  C   UNL     1      11.868   4.540   1.714  0.00  0.00    +0.038 A 
ATOM     24  C   UNL     1      10.796   4.799   0.860  0.00  0.00    +0.069 A 
ATOM     25  C   UNL     1      12.959   3.799   1.258  0.00  0.00    +0.023 A 
ATOM     26  C   UNL     1      10.814   4.314  -0.447  0.00  0.00    +0.122 A 
ATOM     27  C   UNL     1      12.975   3.314  -0.049  0.00  0.00    +0.005 A 
ATOM     28  C   UNL     1      11.903   3.573  -0.902  0.00  0.00    +0.046 A 
BRANCH  26   3
ATOM      3  O   UNL     1       9.767   4.567  -1.281  0.00  0.00    -0.495 OA
ATOM     30  C   UNL     1      10.042   4.584  -2.681  0.00  0.00    +0.277 C 
ENDBRANCH  26   3
ENDBRANCH   6  22
ENDBRANCH  14   4
ENDBRANCH   8  14
BRANCH  10  15
ATOM     15  C   UNL     1       7.954   6.625   6.685  0.00  0.00    +0.103 C 
BRANCH  15  19
ATOM      1  O   UNL     1       9.356   5.433   5.115  0.00  0.00    -0.276 OA
ATOM      5  N   UNL     1       8.401   7.457   4.489  0.00  0.00    -0.304 N 
ATOM     19  C   UNL     1       8.655   6.411   5.363  0.00  0.00    +0.214 C 
ATOM     32  H   UNL     1       7.792   8.215   4.786  0.00  0.00    +0.150 HD
BRANCH   5  21
ATOM     21  C   UNL     1       8.944   7.519   3.153  0.00  0.00    +0.193 C 
BRANCH  21  23
ATOM     23  C   UNL     1       9.789   8.701   2.981  0.00  0.00    -0.087 C 
ATOM     29  C   UNL     1      10.485   9.669   2.840  0.00  0.00    +0.005 C 
ENDBRANCH  21  23
ENDBRANCH   5  21
ENDBRANCH  15  19
ENDBRANCH  10  15
TORSDOF 9
ENDMDL
MODEL 8
REMARK VINA RESULT:      -5.9     26.694     30.502
REMARK  Name = 38028638
REMARK  13 active torsions:
REMARK  status: ('A' for Active; 'I' for Inactive)
REMARK    1  A    between atoms: O_3  and  C_26
REMARK    2  A    between atoms: O_3  and  C_30
REMARK    3  A    between atoms: N_4  and  C_14
REMARK    4  A    between atoms: N_5  and  C_21
REMARK    5  A    between atoms: N_6  and  C_22
REMARK    6  A    between atoms: C_7  and  C_11
REMARK    7  A    between atoms: C_8  and  C_14
REMARK    8  A    between atoms: C_10  and  C_15
REMARK    9  A    between atoms: C_11  and  C_16
REMARK   10  A    between atoms: C_11  and  C_17
REMARK   11  A    between atoms: C_12  and  C_18
REMARK   12  A    between atoms: C_15  and  C_19
REMARK   13  A    between atoms: C_21  and  C_23
REMARK                            x       y       z     vdW  Elec       q    Type
REMARK                         _______ _______ _______ _____ _____    ______ ____
ROOT
ATOM      7  C   UNL     1      -5.090 -10.566  10.910  0.00  0.00    +0.000 C 
ATOM      8  C   UNL     1      -4.604  -9.640   9.768  0.00  0.00    +0.032 C 
ATOM      9  C   UNL     1      -4.479 -10.130  12.251  0.00  0.00    +0.012 C 
ATOM     10  C   UNL     1      -2.939 -10.155  12.225  0.00  0.00    +0.023 C 
ATOM     12  C   UNL     1      -2.386  -9.490  10.981  0.00  0.00    -0.073 C 
ATOM     13  C   UNL     1      -3.148  -9.256   9.897  0.00  0.00    -0.022 C 
ATOM     18  C   UNL     1      -0.947  -9.058  11.027  0.00  0.00    +0.039 C 
ENDROOT
BRANCH   7  11
ATOM     11  C   UNL     1      -6.618 -10.582  11.017  0.00  0.00    -0.013 C 
ATOM     16  C   UNL     1      -7.120 -12.002  11.259  0.00  0.00    +0.007 C 
ATOM     17  C   UNL     1      -7.084  -9.648  12.130  0.00  0.00    +0.007 C 
ENDBRANCH   7  11
BRANCH   8  14
ATOM     14  C   UNL     1      -4.842 -10.282   8.396  0.00  0.00    +0.113 C 
BRANCH  14   4
ATOM      2  O   UNL     1      -7.582 -10.019   7.604  0.00  0.00    -0.253 OA
ATOM      4  N   UNL     1      -5.378  -9.329   7.475  0.00  0.00    -0.299 N 
ATOM      6  N   UNL     1      -6.968  -8.232   6.213  0.00  0.00    -0.269 N 
ATOM     20  C   UNL     1      -6.740  -9.258   7.133  0.00  0.00    +0.304 C 
ATOM     31  H   UNL     1      -4.757  -8.620   7.095  0.00  0.00    +0.150 HD
ATOM     33  H   UNL     1      -6.158  -7.692   5.920  0.00  0.00    +0.156 HD
BRANCH   6  22
ATOM     22  C   UNL     1      -8.199  -7.846   5.630  0.00  0.00    +0.038 A 
ATOM     24  C   UNL     1      -8.392  -7.983   4.255  0.00  0.00    +0.069 A 
ATOM     25  C   UNL     1      -9.219  -7.328   6.429  0.00  0.00    +0.023 A 
ATOM     26  C   UNL     1      -9.604  -7.602   3.681  0.00  0.00    +0.122 A 
ATOM     27  C   UNL     1     -10.430  -6.947   5.854  0.00  0.00    +0.005 A 
ATOM     28  C   UNL     1     -10.623  -7.084   4.479  0.00  0.00    +0.046 A 
BRANCH  26   3
ATOM      3  O   UNL     1      -9.793  -7.736   2.339  0.00  0.00    -0.495 OA
ATOM     30  C   UNL     1      -8.728  -8.317   1.588  0.00  0.00    +0.277 C 
ENDBRANCH  26   3
ENDBRANCH   6  22
ENDBRANCH  14   4
ENDBRANCH   8  14
BRANCH  10  15
ATOM     15  C   UNL     1      -2.408 -11.586  12.365  0.00  0.00    +0.103 C 
BRANCH  15  19
ATOM      1  O   UNL     1      -2.051 -13.127  14.196  0.00  0.00    -0.276 OA
ATOM      5  N   UNL     1      -2.109 -10.842  14.617  0.00  0.00    -0.304 N 
ATOM     19  C   UNL     1      -2.170 -11.967  13.808  0.00  0.00    +0.214 C 
ATOM     32  H   UNL     1      -2.204  -9.923  14.195  0.00  0.00    +0.150 HD
BRANCH   5  21
ATOM     21  C   UNL     1      -1.893 -10.906  16.043  0.00  0.00    +0.193 C 
BRANCH  21  23
ATOM     23  C   UNL     1      -3.163 -10.938  16.768  0.00  0.00    -0.087 C 
ATOM     29  C   UNL     1      -4.205 -10.964  17.366  0.00  0.00    +0.005 C 
ENDBRANCH  21  23
ENDBRANCH   5  21
ENDBRANCH  15  19
ENDBRANCH  10  15
TORSDOF 9
ENDMDL
MODEL 9
REMARK VINA RESULT:      -5.8     23.560     26.356
REMARK  Name = 38028638
REMARK  13 active torsions:
REMARK  status: ('A' for Active; 'I' for Inactive)
REMARK    1  A    between atoms: O_3  and  C_26
REMARK    2  A    between atoms: O_3  and  C_30
REMARK    3  A    between atoms: N_4  and  C_14
REMARK    4  A    between atoms: N_5  and  C_21
REMARK    5  A    between atoms: N_6  and  C_22
REMARK    6  A    between atoms: C_7  and  C_11
REMARK    7  A    between atoms: C_8  and  C_14
REMARK    8  A    between atoms: C_10  and  C_15
REMARK    9  A    between atoms: C_11  and  C_16
REMARK   10  A    between atoms: C_11  and  C_17
REMARK   11  A    between atoms: C_12  and  C_18
REMARK   12  A    between atoms: C_15  and  C_19
REMARK   13  A    between atoms: C_21  and  C_23
REMARK                            x       y       z     vdW  Elec       q    Type
REMARK                         _______ _______ _______ _____ _____    ______ ____
ROOT
ATOM      7  C   UNL     1      21.731  -7.580   3.139  0.00  0.00    +0.000 C 
ATOM      8  C   UNL     1      22.404  -7.059   1.844  0.00  0.00    +0.032 C 
ATOM      9  C   UNL     1      21.496  -9.095   3.050  0.00  0.00    +0.012 C 
ATOM     10  C   UNL     1      20.608  -9.477   1.851  0.00  0.00    +0.023 C 
ATOM     12  C   UNL     1      21.051  -8.784   0.578  0.00  0.00    -0.073 C 
ATOM     13  C   UNL     1      21.864  -7.713   0.594  0.00  0.00    -0.022 C 
ATOM     18  C   UNL     1      20.573  -9.379  -0.717  0.00  0.00    +0.039 C 
ENDROOT
BRANCH   7  11
ATOM     11  C   UNL     1      22.566  -7.256   4.383  0.00  0.00    -0.013 C 
ATOM     16  C   UNL     1      21.843  -7.719   5.644  0.00  0.00    +0.007 C 
ATOM     17  C   UNL     1      23.943  -7.904   4.282  0.00  0.00    +0.007 C 
ENDBRANCH   7  11
BRANCH   8  14
ATOM     14  C   UNL     1      22.268  -5.537   1.724  0.00  0.00    +0.113 C 
BRANCH  14   4
ATOM      2  O   UNL     1      19.548  -4.867   1.121  0.00  0.00    -0.253 OA
ATOM      4  N   UNL     1      21.740  -5.174   0.446  0.00  0.00    -0.299 N 
ATOM      6  N   UNL     1      20.166  -4.543  -1.121  0.00  0.00    -0.269 N 
ATOM     20  C   UNL     1      20.388  -4.856   0.223  0.00  0.00    +0.304 C 
ATOM     31  H   UNL     1      22.384  -5.075  -0.334  0.00  0.00    +0.150 HD
ATOM     33  H   UNL     1      20.972  -4.585  -1.738  0.00  0.00    +0.156 HD
BRANCH   6  22
ATOM     22  C   UNL     1      18.946  -4.173  -1.736  0.00  0.00    +0.038 A 
ATOM     24  C   UNL     1      18.116  -5.152  -2.280  0.00  0.00    +0.069 A 
ATOM     25  C   UNL     1      18.575  -2.829  -1.798  0.00  0.00    +0.023 A 
ATOM     26  C   UNL     1      16.914  -4.787  -2.887  0.00  0.00    +0.122 A 
ATOM     27  C   UNL     1      17.374  -2.466  -2.406  0.00  0.00    +0.005 A 
ATOM     28  C   UNL     1      16.543  -3.445  -2.950  0.00  0.00    +0.046 A 
BRANCH  26   3
ATOM      3  O   UNL     1      16.103  -5.742  -3.417  0.00  0.00    -0.495 OA
ATOM     30  C   UNL     1      14.724  -5.409  -3.575  0.00  0.00    +0.277 C 
ENDBRANCH  26   3
ENDBRANCH   6  22
ENDBRANCH  14   4
ENDBRANCH   8  14
BRANCH  10  15
ATOM     15  C   UNL     1      19.130  -9.191   2.146  0.00  0.00    +0.103 C 
BRANCH  15  19
ATOM      1  O   UNL     1      18.726 -11.550   1.791  0.00  0.00    -0.276 OA
ATOM      5  N   UNL     1      16.984 -10.183   2.497  0.00  0.00    -0.304 N 
ATOM     19  C   UNL     1      18.291 -10.448   2.115  0.00  0.00    +0.214 C 
ATOM     32  H   UNL     1      16.727  -9.237   2.764  0.00  0.00    +0.150 HD
BRANCH   5  21
ATOM     21  C   UNL     1      15.959 -11.199   2.558  0.00  0.00    +0.193 C 
BRANCH  21  23
ATOM     23  C   UNL     1      15.877 -11.786   3.895  0.00  0.00    -0.087 C 
ATOM     29  C   UNL     1      15.812 -12.265   4.994  0.00  0.00    +0.005 C 
ENDBRANCH  21  23
ENDBRANCH   5  21
ENDBRANCH  15  19
ENDBRANCH  10  15
TORSDOF 9
ENDMDL
MODEL 10
REMARK VINA RESULT:      -5.8      2.135      3.583
REMARK  Name = 38028638
REMARK  13 active torsions:
REMARK  status: ('A' for Active; 'I' for Inactive)
REMARK    1  A    between atoms: O_3  and  C_26
REMARK    2  A    between atoms: O_3  and  C_30
REMARK    3  A    between atoms: N_4  and  C_14
REMARK    4  A    between atoms: N_5  and  C_21
REMARK    5  A    between atoms: N_6  and  C_22
REMARK    6  A    between atoms: C_7  and  C_11
REMARK    7  A    between atoms: C_8  and  C_14
REMARK    8  A    between atoms: C_10  and  C_15
REMARK    9  A    between atoms: C_11  and  C_16
REMARK   10  A    between atoms: C_11  and  C_17
REMARK   11  A    between atoms: C_12  and  C_18
REMARK   12  A    between atoms: C_15  and  C_19
REMARK   13  A    between atoms: C_21  and  C_23
REMARK                            x       y       z     vdW  Elec       q    Type
REMARK                         _______ _______ _______ _____ _____    ______ ____
ROOT
ATOM      7  C   UNL     1      13.152   9.386  20.113  0.00  0.00    +0.000 C 
ATOM      8  C   UNL     1      12.347   8.231  19.465  0.00  0.00    +0.032 C 
ATOM      9  C   UNL     1      12.879  10.708  19.378  0.00  0.00    +0.012 C 
ATOM     10  C   UNL     1      13.251  10.631  17.885  0.00  0.00    +0.023 C 
ATOM     12  C   UNL     1      12.715   9.372  17.235  0.00  0.00    -0.073 C 
ATOM     13  C   UNL     1      12.304   8.314  17.957  0.00  0.00    -0.022 C 
ATOM     18  C   UNL     1      12.621   9.372  15.735  0.00  0.00    +0.039 C 
ENDROOT
BRANCH   7  11
ATOM     11  C   UNL     1      12.823   9.542  21.601  0.00  0.00    -0.013 C 
ATOM     16  C   UNL     1      14.027  10.096  22.357  0.00  0.00    +0.007 C 
ATOM     17  C   UNL     1      11.607  10.446  21.785  0.00  0.00    +0.007 C 
ENDBRANCH   7  11
BRANCH   8  14
ATOM     14  C   UNL     1      12.905   6.866  19.885  0.00  0.00    +0.113 C 
BRANCH  14   4
ATOM      2  O   UNL     1      15.203   6.903  21.594  0.00  0.00    -0.253 OA
ATOM      4  N   UNL     1      14.270   6.730  19.484  0.00  0.00    -0.299 N 
ATOM      6  N   UNL     1      16.565   6.602  19.706  0.00  0.00    -0.269 N 
ATOM     20  C   UNL     1      15.352   6.758  20.383  0.00  0.00    +0.304 C 
ATOM     31  H   UNL     1      14.472   6.537  18.507  0.00  0.00    +0.150 HD
ATOM     33  H   UNL     1      16.513   6.495  18.696  0.00  0.00    +0.156 HD
BRANCH   6  22
ATOM     22  C   UNL     1      17.868   6.576  20.255  0.00  0.00    +0.038 A 
ATOM     24  C   UNL     1      18.702   5.482  20.018  0.00  0.00    +0.069 A 
ATOM     25  C   UNL     1      18.321   7.642  21.033  0.00  0.00    +0.023 A 
ATOM     26  C   UNL     1      19.986   5.456  20.560  0.00  0.00    +0.122 A 
ATOM     27  C   UNL     1      19.605   7.614  21.574  0.00  0.00    +0.005 A 
ATOM     28  C   UNL     1      20.438   6.521  21.337  0.00  0.00    +0.046 A 
BRANCH  26   3
ATOM      3  O   UNL     1      20.800   4.390  20.329  0.00  0.00    -0.495 OA
ATOM     30  C   UNL     1      21.761   4.075  21.337  0.00  0.00    +0.277 C 
ENDBRANCH  26   3
ENDBRANCH   6  22
ENDBRANCH  14   4
ENDBRANCH   8  14
BRANCH  10  15
ATOM     15  C   UNL     1      14.767  10.749  17.687  0.00  0.00    +0.103 C 
BRANCH  15  19
ATOM      1  O   UNL     1      14.981  13.031  16.912  0.00  0.00    -0.276 OA
ATOM      5  N   UNL     1      15.641  11.283  15.527  0.00  0.00    -0.304 N 
ATOM     19  C   UNL     1      15.129  11.830  16.695  0.00  0.00    +0.214 C 
ATOM     32  H   UNL     1      15.738  10.275  15.453  0.00  0.00    +0.150 HD
BRANCH   5  21
ATOM     21  C   UNL     1      16.069  12.083  14.403  0.00  0.00    +0.193 C 
BRANCH  21  23
ATOM     23  C   UNL     1      14.970  12.300  13.462  0.00  0.00    -0.087 C 
ATOM     29  C   UNL     1      14.069  12.475  12.688  0.00  0.00    +0.005 C 
ENDBRANCH  21  23
ENDBRANCH   5  21
ENDBRANCH  15  19
ENDBRANCH  10  15
TORSDOF 9
ENDMDL
