MODEL 1
REMARK VINA RESULT:      -6.1      0.000      0.000
REMARK  Name = 51136650
REMARK  12 active torsions:
REMARK  status: ('A' for Active; 'I' for Inactive)
REMARK    1  A    between atoms: O_2  and  C_17
REMARK    2  A    between atoms: O_4  and  C_29
REMARK    3  A    between atoms: O_4  and  C_30
REMARK    4  A    between atoms: C_7  and  C_12
REMARK    5  A    between atoms: C_8  and  C_13
REMARK    6  A    between atoms: C_12  and  C_15
REMARK    7  A    between atoms: C_13  and  C_17
REMARK    8  A    between atoms: C_14  and  C_16
REMARK    9  A    between atoms: C_16  and  C_19
REMARK   10  A    between atoms: C_16  and  C_20
REMARK   11  A    between atoms: C_19  and  C_25
REMARK   12  A    between atoms: C_20  and  C_26
REMARK                            x       y       z     vdW  Elec       q    Type
REMARK                         _______ _______ _______ _____ _____    ______ ____
ROOT
ATOM      1  O   UNL     1      10.701   8.360  17.741  0.00  0.00    -0.275 OA
ATOM      5  N   UNL     1      12.937   8.871  17.370  0.00  0.00    -0.301 N 
ATOM      7  C   UNL     1      14.875  10.418  17.508  0.00  0.00    +0.016 C 
ATOM      8  C   UNL     1      14.703  10.710  15.995  0.00  0.00    +0.006 C 
ATOM      9  C   UNL     1      14.320   9.020  17.837  0.00  0.00    +0.112 C 
ATOM     10  C   UNL     1      13.250  10.492  15.539  0.00  0.00    +0.023 C 
ATOM     11  C   UNL     1      12.746   9.108  15.938  0.00  0.00    +0.108 C 
ATOM     14  C   UNL     1      11.851   8.505  18.164  0.00  0.00    +0.219 C 
ENDROOT
BRANCH   7  12
ATOM     12  C   UNL     1      14.239  11.472  18.423  0.00  0.00    +0.061 C 
BRANCH  12  15
ATOM      6  N   UNL     1      15.790  10.815  20.134  0.00  0.00    -0.287 NA
ATOM     15  C   UNL     1      14.579  11.174  19.863  0.00  0.00    +0.044 C 
ATOM     18  C   UNL     1      13.513  11.299  20.891  0.00  0.00    -0.001 A 
ATOM     21  C   UNL     1      13.740  10.659  22.115  0.00  0.00    -0.033 A 
ATOM     22  C   UNL     1      16.136  10.583  21.541  0.00  0.00    +0.146 C 
ATOM     23  C   UNL     1      15.014   9.889  22.302  0.00  0.00    +0.059 C 
ATOM     24  C   UNL     1      12.329  12.003  20.666  0.00  0.00    +0.013 A 
ATOM     27  C   UNL     1      12.758  10.704  23.109  0.00  0.00    +0.050 A 
ATOM     28  C   UNL     1      11.361  12.055  21.671  0.00  0.00    +0.046 A 
ATOM     29  C   UNL     1      11.574  11.406  22.887  0.00  0.00    +0.120 A 
BRANCH  29   4
ATOM      4  O   UNL     1      10.622  11.455  23.859  0.00  0.00    -0.495 OA
ATOM     30  C   UNL     1      11.051  11.814  25.171  0.00  0.00    +0.277 C 
ENDBRANCH  29   4
ENDBRANCH  12  15
ENDBRANCH   7  12
BRANCH   8  13
ATOM     13  C   UNL     1      15.192  12.102  15.593  0.00  0.00    +0.124 C 
BRANCH  13  17
ATOM      3  O   UNL     1      17.459  12.901  15.194  0.00  0.00    -0.251 OA
ATOM     17  C   UNL     1      16.588  12.059  15.037  0.00  0.00    +0.305 C 
BRANCH  17   2
ATOM      2  O   UNL     1      16.758  10.923  14.314  0.00  0.00    -0.481 OA
ATOM     31  H   UNL     1      16.309  10.155  14.728  0.00  0.00    +0.295 HD
ENDBRANCH  17   2
ENDBRANCH  13  17
ENDBRANCH   8  13
BRANCH  14  16
ATOM     16  C   UNL     1      12.129   8.281  19.629  0.00  0.00    +0.075 C 
BRANCH  16  19
ATOM     19  C   UNL     1      10.852   8.562  20.428  0.00  0.00    +0.009 C 
ATOM     25  C   UNL     1      10.771   7.751  21.716  0.00  0.00    +0.004 C 
ENDBRANCH  16  19
BRANCH  16  20
ATOM     20  C   UNL     1      12.599   6.837  19.840  0.00  0.00    +0.009 C 
ATOM     26  C   UNL     1      13.988   6.754  20.459  0.00  0.00    +0.004 C 
ENDBRANCH  16  20
ENDBRANCH  14  16
TORSDOF 9
ENDMDL
MODEL 2
REMARK VINA RESULT:      -5.7      2.692      6.291
REMARK  Name = 51136650
REMARK  12 active torsions:
REMARK  status: ('A' for Active; 'I' for Inactive)
REMARK    1  A    between atoms: O_2  and  C_17
REMARK    2  A    between atoms: O_4  and  C_29
REMARK    3  A    between atoms: O_4  and  C_30
REMARK    4  A    between atoms: C_7  and  C_12
REMARK    5  A    between atoms: C_8  and  C_13
REMARK    6  A    between atoms: C_12  and  C_15
REMARK    7  A    between atoms: C_13  and  C_17
REMARK    8  A    between atoms: C_14  and  C_16
REMARK    9  A    between atoms: C_16  and  C_19
REMARK   10  A    between atoms: C_16  and  C_20
REMARK   11  A    between atoms: C_19  and  C_25
REMARK   12  A    between atoms: C_20  and  C_26
REMARK                            x       y       z     vdW  Elec       q    Type
REMARK                         _______ _______ _______ _____ _____    ______ ____
ROOT
ATOM      1  O   UNL     1      12.250   6.408  19.245  0.00  0.00    -0.275 OA
ATOM      5  N   UNL     1      12.168   8.620  19.952  0.00  0.00    -0.301 N 
ATOM      7  C   UNL     1      12.740  10.419  21.567  0.00  0.00    +0.016 C 
ATOM      8  C   UNL     1      11.292  10.338  22.113  0.00  0.00    +0.006 C 
ATOM      9  C   UNL     1      12.773   9.950  20.101  0.00  0.00    +0.112 C 
ATOM     10  C   UNL     1      10.680   8.945  21.890  0.00  0.00    +0.023 C 
ATOM     11  C   UNL     1      10.789   8.519  20.428  0.00  0.00    +0.108 C 
ATOM     14  C   UNL     1      12.790   7.509  19.383  0.00  0.00    +0.219 C 
ENDROOT
BRANCH   7  12
ATOM     12  C   UNL     1      13.765   9.637  22.399  0.00  0.00    +0.061 C 
BRANCH  12  15
ATOM      6  N   UNL     1      14.539  11.440  23.785  0.00  0.00    -0.287 NA
ATOM     15  C   UNL     1      14.850  10.569  22.883  0.00  0.00    +0.044 C 
ATOM     18  C   UNL     1      16.211  10.446  22.299  0.00  0.00    -0.001 A 
ATOM     21  C   UNL     1      17.070  11.539  22.467  0.00  0.00    -0.033 A 
ATOM     22  C   UNL     1      15.608  12.304  24.298  0.00  0.00    +0.146 C 
ATOM     23  C   UNL     1      16.566  12.747  23.200  0.00  0.00    +0.059 C 
ATOM     24  C   UNL     1      16.632   9.314  21.598  0.00  0.00    +0.013 A 
ATOM     27  C   UNL     1      18.350  11.503  21.906  0.00  0.00    +0.050 A 
ATOM     28  C   UNL     1      17.918   9.282  21.055  0.00  0.00    +0.046 A 
ATOM     29  C   UNL     1      18.772  10.374  21.206  0.00  0.00    +0.120 A 
BRANCH  29   4
ATOM      4  O   UNL     1      20.022  10.337  20.666  0.00  0.00    -0.495 OA
ATOM     30  C   UNL     1      20.653  11.589  20.406  0.00  0.00    +0.277 C 
ENDBRANCH  29   4
ENDBRANCH  12  15
ENDBRANCH   7  12
BRANCH   8  13
ATOM     13  C   UNL     1      11.181  10.748  23.582  0.00  0.00    +0.124 C 
BRANCH  13  17
ATOM      3  O   UNL     1      10.202  12.631  24.780  0.00  0.00    -0.251 OA
ATOM     17  C   UNL     1      10.541  12.100  23.733  0.00  0.00    +0.305 C 
BRANCH  17   2
ATOM      2  O   UNL     1      10.386  12.672  22.511  0.00  0.00    -0.481 OA
ATOM     31  H   UNL     1       9.760  12.168  21.949  0.00  0.00    +0.295 HD
ENDBRANCH  17   2
ENDBRANCH  13  17
ENDBRANCH   8  13
BRANCH  14  16
ATOM     16  C   UNL     1      14.213   7.694  18.919  0.00  0.00    +0.075 C 
BRANCH  16  19
ATOM     19  C   UNL     1      15.114   6.704  19.666  0.00  0.00    +0.009 C 
ATOM     25  C   UNL     1      16.307   6.247  18.835  0.00  0.00    +0.004 C 
ENDBRANCH  16  19
BRANCH  16  20
ATOM     20  C   UNL     1      14.285   7.462  17.405  0.00  0.00    +0.009 C 
ATOM     26  C   UNL     1      14.013   8.727  16.602  0.00  0.00    +0.004 C 
ENDBRANCH  16  20
ENDBRANCH  14  16
TORSDOF 9
ENDMDL
MODEL 3
REMARK VINA RESULT:      -5.7     26.151     28.989
REMARK  Name = 51136650
REMARK  12 active torsions:
REMARK  status: ('A' for Active; 'I' for Inactive)
REMARK    1  A    between atoms: O_2  and  C_17
REMARK    2  A    between atoms: O_4  and  C_29
REMARK    3  A    between atoms: O_4  and  C_30
REMARK    4  A    between atoms: C_7  and  C_12
REMARK    5  A    between atoms: C_8  and  C_13
REMARK    6  A    between atoms: C_12  and  C_15
REMARK    7  A    between atoms: C_13  and  C_17
REMARK    8  A    between atoms: C_14  and  C_16
REMARK    9  A    between atoms: C_16  and  C_19
REMARK   10  A    between atoms: C_16  and  C_20
REMARK   11  A    between atoms: C_19  and  C_25
REMARK   12  A    between atoms: C_20  and  C_26
REMARK                            x       y       z     vdW  Elec       q    Type
REMARK                         _______ _______ _______ _____ _____    ______ ____
ROOT
ATOM      1  O   UNL     1      -7.990 -11.402  18.694  0.00  0.00    -0.275 OA
ATOM      5  N   UNL     1      -6.315 -10.354  17.471  0.00  0.00    -0.301 N 
ATOM      7  C   UNL     1      -4.695 -10.298  15.588  0.00  0.00    +0.016 C 
ATOM      8  C   UNL     1      -3.564 -10.613  16.601  0.00  0.00    +0.006 C 
ATOM      9  C   UNL     1      -5.856  -9.587  16.306  0.00  0.00    +0.112 C 
ATOM     10  C   UNL     1      -4.098 -11.372  17.827  0.00  0.00    +0.023 C 
ATOM     11  C   UNL     1      -5.277 -10.640  18.462  0.00  0.00    +0.108 C 
ATOM     14  C   UNL     1      -7.623 -10.781  17.692  0.00  0.00    +0.219 C 
ENDROOT
BRANCH   7  12
ATOM     12  C   UNL     1      -5.211 -11.527  14.828  0.00  0.00    +0.061 C 
BRANCH  12  15
ATOM      6  N   UNL     1      -3.665 -12.518  13.281  0.00  0.00    -0.287 NA
ATOM     15  C   UNL     1      -4.557 -11.602  13.470  0.00  0.00    +0.044 C 
ATOM     18  C   UNL     1      -4.960 -10.625  12.426  0.00  0.00    -0.001 A 
ATOM     21  C   UNL     1      -4.089 -10.466  11.342  0.00  0.00    -0.033 A 
ATOM     22  C   UNL     1      -3.073 -12.630  11.944  0.00  0.00    +0.146 C 
ATOM     23  C   UNL     1      -2.821 -11.268  11.311  0.00  0.00    +0.059 C 
ATOM     24  C   UNL     1      -6.137  -9.878  12.507  0.00  0.00    +0.013 A 
ATOM     27  C   UNL     1      -4.391  -9.533  10.346  0.00  0.00    +0.050 A 
ATOM     28  C   UNL     1      -6.437  -8.960  11.499  0.00  0.00    +0.046 A 
ATOM     29  C   UNL     1      -5.565  -8.786  10.424  0.00  0.00    +0.120 A 
BRANCH  29   4
ATOM      4  O   UNL     1      -5.862  -7.882   9.450  0.00  0.00    -0.495 OA
ATOM     30  C   UNL     1      -7.208  -7.852   8.979  0.00  0.00    +0.277 C 
ENDBRANCH  29   4
ENDBRANCH  12  15
ENDBRANCH   7  12
BRANCH   8  13
ATOM     13  C   UNL     1      -2.388 -11.361  15.973  0.00  0.00    +0.124 C 
BRANCH  13  17
ATOM      3  O   UNL     1      -1.484  -9.885  14.257  0.00  0.00    -0.251 OA
ATOM     17  C   UNL     1      -1.396 -10.415  15.354  0.00  0.00    +0.305 C 
BRANCH  17   2
ATOM      2  O   UNL     1      -0.355 -10.222  16.205  0.00  0.00    -0.481 OA
ATOM     31  H   UNL     1      -0.453 -10.749  17.027  0.00  0.00    +0.295 HD
ENDBRANCH  17   2
ENDBRANCH  13  17
ENDBRANCH   8  13
BRANCH  14  16
ATOM     16  C   UNL     1      -8.634 -10.450  16.622  0.00  0.00    +0.075 C 
BRANCH  16  19
ATOM     19  C   UNL     1      -9.127 -11.752  15.981  0.00  0.00    +0.009 C 
ATOM     25  C   UNL     1      -8.863 -11.809  14.481  0.00  0.00    +0.004 C 
ENDBRANCH  16  19
BRANCH  16  20
ATOM     20  C   UNL     1      -9.799  -9.675  17.249  0.00  0.00    +0.009 C 
ATOM     26  C   UNL     1      -9.683  -8.170  17.044  0.00  0.00    +0.004 C 
ENDBRANCH  16  20
ENDBRANCH  14  16
TORSDOF 9
ENDMDL
MODEL 4
REMARK VINA RESULT:      -5.5     26.789     29.264
REMARK  Name = 51136650
REMARK  12 active torsions:
REMARK  status: ('A' for Active; 'I' for Inactive)
REMARK    1  A    between atoms: O_2  and  C_17
REMARK    2  A    between atoms: O_4  and  C_29
REMARK    3  A    between atoms: O_4  and  C_30
REMARK    4  A    between atoms: C_7  and  C_12
REMARK    5  A    between atoms: C_8  and  C_13
REMARK    6  A    between atoms: C_12  and  C_15
REMARK    7  A    between atoms: C_13  and  C_17
REMARK    8  A    between atoms: C_14  and  C_16
REMARK    9  A    between atoms: C_16  and  C_19
REMARK   10  A    between atoms: C_16  and  C_20
REMARK   11  A    between atoms: C_19  and  C_25
REMARK   12  A    between atoms: C_20  and  C_26
REMARK                            x       y       z     vdW  Elec       q    Type
REMARK                         _______ _______ _______ _____ _____    ______ ____
ROOT
ATOM      1  O   UNL     1      -1.707 -10.069  11.937  0.00  0.00    -0.275 OA
ATOM      5  N   UNL     1      -2.946 -11.258  13.502  0.00  0.00    -0.301 N 
ATOM      7  C   UNL     1      -4.706 -11.389  15.251  0.00  0.00    +0.016 C 
ATOM      8  C   UNL     1      -3.586 -11.418  16.323  0.00  0.00    +0.006 C 
ATOM      9  C   UNL     1      -4.171 -11.951  13.921  0.00  0.00    +0.112 C 
ATOM     10  C   UNL     1      -2.306 -10.727  15.823  0.00  0.00    +0.023 C 
ATOM     11  C   UNL     1      -1.858 -11.295  14.479  0.00  0.00    +0.108 C 
ATOM     14  C   UNL     1      -2.757 -10.622  12.276  0.00  0.00    +0.219 C 
ENDROOT
BRANCH   7  12
ATOM     12  C   UNL     1      -5.324 -10.002  15.033  0.00  0.00    +0.061 C 
BRANCH  12  15
ATOM      6  N   UNL     1      -7.134 -10.286  13.480  0.00  0.00    -0.287 NA
ATOM     15  C   UNL     1      -6.794 -10.140  14.718  0.00  0.00    +0.044 C 
ATOM     18  C   UNL     1      -7.772 -10.094  15.836  0.00  0.00    -0.001 A 
ATOM     21  C   UNL     1      -9.106  -9.835  15.496  0.00  0.00    -0.033 A 
ATOM     22  C   UNL     1      -8.557 -10.480  13.181  0.00  0.00    +0.146 C 
ATOM     23  C   UNL     1      -9.452  -9.610  14.054  0.00  0.00    +0.059 C 
ATOM     24  C   UNL     1      -7.404 -10.282  17.169  0.00  0.00    +0.013 A 
ATOM     27  C   UNL     1     -10.069  -9.739  16.505  0.00  0.00    +0.050 A 
ATOM     28  C   UNL     1      -8.376 -10.200  18.168  0.00  0.00    +0.046 A 
ATOM     29  C   UNL     1      -9.703  -9.926  17.837  0.00  0.00    +0.120 A 
BRANCH  29   4
ATOM      4  O   UNL     1     -10.642  -9.839  18.818  0.00  0.00    -0.495 OA
ATOM     30  C   UNL     1     -10.392 -10.560  20.023  0.00  0.00    +0.277 C 
ENDBRANCH  29   4
ENDBRANCH  12  15
ENDBRANCH   7  12
BRANCH   8  13
ATOM     13  C   UNL     1      -4.026 -10.835  17.666  0.00  0.00    +0.124 C 
BRANCH  13  17
ATOM      3  O   UNL     1      -5.220 -12.535  18.940  0.00  0.00    -0.251 OA
ATOM     17  C   UNL     1      -4.199 -11.907  18.705  0.00  0.00    +0.305 C 
BRANCH  17   2
ATOM      2  O   UNL     1      -3.030 -12.091  19.372  0.00  0.00    -0.481 OA
ATOM     31  H   UNL     1      -3.130 -11.936  20.335  0.00  0.00    +0.295 HD
ENDBRANCH  17   2
ENDBRANCH  13  17
ENDBRANCH   8  13
BRANCH  14  16
ATOM     16  C   UNL     1      -3.927 -10.624  11.325  0.00  0.00    +0.075 C 
BRANCH  16  19
ATOM     19  C   UNL     1      -4.146  -9.201  10.799  0.00  0.00    +0.009 C 
ATOM     25  C   UNL     1      -4.074  -9.116   9.279  0.00  0.00    +0.004 C 
ENDBRANCH  16  19
BRANCH  16  20
ATOM     20  C   UNL     1      -3.641 -11.594  10.172  0.00  0.00    +0.009 C 
ATOM     26  C   UNL     1      -4.281 -12.960  10.380  0.00  0.00    +0.004 C 
ENDBRANCH  16  20
ENDBRANCH  14  16
TORSDOF 9
ENDMDL
MODEL 5
REMARK VINA RESULT:      -5.5     26.758     29.443
REMARK  Name = 51136650
REMARK  12 active torsions:
REMARK  status: ('A' for Active; 'I' for Inactive)
REMARK    1  A    between atoms: O_2  and  C_17
REMARK    2  A    between atoms: O_4  and  C_29
REMARK    3  A    between atoms: O_4  and  C_30
REMARK    4  A    between atoms: C_7  and  C_12
REMARK    5  A    between atoms: C_8  and  C_13
REMARK    6  A    between atoms: C_12  and  C_15
REMARK    7  A    between atoms: C_13  and  C_17
REMARK    8  A    between atoms: C_14  and  C_16
REMARK    9  A    between atoms: C_16  and  C_19
REMARK   10  A    between atoms: C_16  and  C_20
REMARK   11  A    between atoms: C_19  and  C_25
REMARK   12  A    between atoms: C_20  and  C_26
REMARK                            x       y       z     vdW  Elec       q    Type
REMARK                         _______ _______ _______ _____ _____    ______ ____
ROOT
ATOM      1  O   UNL     1      -1.253  -9.981  12.434  0.00  0.00    -0.275 OA
ATOM      5  N   UNL     1      -2.698 -11.257  13.732  0.00  0.00    -0.301 N 
ATOM      7  C   UNL     1      -4.673 -11.482  15.221  0.00  0.00    +0.016 C 
ATOM      8  C   UNL     1      -3.705 -11.609  16.425  0.00  0.00    +0.006 C 
ATOM      9  C   UNL     1      -3.973 -11.956  13.934  0.00  0.00    +0.112 C 
ATOM     10  C   UNL     1      -2.364 -10.907  16.150  0.00  0.00    +0.023 C 
ATOM     11  C   UNL     1      -1.748 -11.385  14.837  0.00  0.00    +0.108 C 
ATOM     14  C   UNL     1      -2.343 -10.537  12.592  0.00  0.00    +0.219 C 
ENDROOT
BRANCH   7  12
ATOM     12  C   UNL     1      -5.246 -10.072  15.028  0.00  0.00    +0.061 C 
BRANCH  12  15
ATOM      6  N   UNL     1      -7.479 -10.431  15.834  0.00  0.00    -0.287 NA
ATOM     15  C   UNL     1      -6.738 -10.149  14.814  0.00  0.00    +0.044 C 
ATOM     18  C   UNL     1      -7.279  -9.906  13.452  0.00  0.00    -0.001 A 
ATOM     21  C   UNL     1      -8.581 -10.356  13.201  0.00  0.00    -0.033 A 
ATOM     22  C   UNL     1      -8.933 -10.446  15.640  0.00  0.00    +0.146 C 
ATOM     23  C   UNL     1      -9.327 -11.054  14.300  0.00  0.00    +0.059 C 
ATOM     24  C   UNL     1      -6.541  -9.276  12.448  0.00  0.00    +0.013 A 
ATOM     27  C   UNL     1      -9.134 -10.194  11.927  0.00  0.00    +0.050 A 
ATOM     28  C   UNL     1      -7.107  -9.105  11.184  0.00  0.00    +0.046 A 
ATOM     29  C   UNL     1      -8.398  -9.566  10.924  0.00  0.00    +0.120 A 
BRANCH  29   4
ATOM      4  O   UNL     1      -8.940  -9.403   9.685  0.00  0.00    -0.495 OA
ATOM     30  C   UNL     1      -8.109  -9.710   8.567  0.00  0.00    +0.277 C 
ENDBRANCH  29   4
ENDBRANCH  12  15
ENDBRANCH   7  12
BRANCH   8  13
ATOM     13  C   UNL     1      -4.312 -11.117  17.738  0.00  0.00    +0.124 C 
BRANCH  13  17
ATOM      3  O   UNL     1      -3.482 -12.058  19.828  0.00  0.00    -0.251 OA
ATOM     17  C   UNL     1      -4.181 -12.143  18.829  0.00  0.00    +0.305 C 
BRANCH  17   2
ATOM      2  O   UNL     1      -4.967 -13.214  18.547  0.00  0.00    -0.481 OA
ATOM     31  H   UNL     1      -5.895 -13.071  18.833  0.00  0.00    +0.295 HD
ENDBRANCH  17   2
ENDBRANCH  13  17
ENDBRANCH   8  13
BRANCH  14  16
ATOM     16  C   UNL     1      -3.378 -10.449  11.498  0.00  0.00    +0.075 C 
BRANCH  16  19
ATOM     19  C   UNL     1      -3.044  -9.261  10.589  0.00  0.00    +0.009 C 
ATOM     25  C   UNL     1      -3.956  -9.176   9.371  0.00  0.00    +0.004 C 
ENDBRANCH  16  19
BRANCH  16  20
ATOM     20  C   UNL     1      -3.386 -11.760  10.702  0.00  0.00    +0.009 C 
ATOM     26  C   UNL     1      -4.782 -12.352  10.556  0.00  0.00    +0.004 C 
ENDBRANCH  16  20
ENDBRANCH  14  16
TORSDOF 9
ENDMDL
MODEL 6
REMARK VINA RESULT:      -5.4     12.668     16.327
REMARK  Name = 51136650
REMARK  12 active torsions:
REMARK  status: ('A' for Active; 'I' for Inactive)
REMARK    1  A    between atoms: O_2  and  C_17
REMARK    2  A    between atoms: O_4  and  C_29
REMARK    3  A    between atoms: O_4  and  C_30
REMARK    4  A    between atoms: C_7  and  C_12
REMARK    5  A    between atoms: C_8  and  C_13
REMARK    6  A    between atoms: C_12  and  C_15
REMARK    7  A    between atoms: C_13  and  C_17
REMARK    8  A    between atoms: C_14  and  C_16
REMARK    9  A    between atoms: C_16  and  C_19
REMARK   10  A    between atoms: C_16  and  C_20
REMARK   11  A    between atoms: C_19  and  C_25
REMARK   12  A    between atoms: C_20  and  C_26
REMARK                            x       y       z     vdW  Elec       q    Type
REMARK                         _______ _______ _______ _____ _____    ______ ____
ROOT
ATOM      1  O   UNL     1      15.521   6.974   4.557  0.00  0.00    -0.275 OA
ATOM      5  N   UNL     1      13.811   6.955   2.984  0.00  0.00    -0.301 N 
ATOM      7  C   UNL     1      11.594   6.176   2.179  0.00  0.00    +0.016 C 
ATOM      8  C   UNL     1      12.326   5.234   1.189  0.00  0.00    +0.006 C 
ATOM      9  C   UNL     1      12.490   7.383   2.510  0.00  0.00    +0.112 C 
ATOM     10  C   UNL     1      13.725   4.851   1.700  0.00  0.00    +0.023 C 
ATOM     11  C   UNL     1      14.542   6.090   2.057  0.00  0.00    +0.108 C 
ATOM     14  C   UNL     1      14.396   7.327   4.193  0.00  0.00    +0.219 C 
ENDROOT
BRANCH   7  12
ATOM     12  C   UNL     1      11.131   5.486   3.469  0.00  0.00    +0.061 C 
BRANCH  12  15
ATOM      6  N   UNL     1       9.348   7.089   3.339  0.00  0.00    -0.287 NA
ATOM     15  C   UNL     1      10.003   6.270   4.094  0.00  0.00    +0.044 C 
ATOM     18  C   UNL     1       9.707   6.072   5.536  0.00  0.00    -0.001 A 
ATOM     21  C   UNL     1       8.945   7.064   6.165  0.00  0.00    -0.033 A 
ATOM     22  C   UNL     1       8.214   7.806   3.931  0.00  0.00    +0.146 C 
ATOM     23  C   UNL     1       8.497   8.248   5.361  0.00  0.00    +0.059 C 
ATOM     24  C   UNL     1      10.167   4.967   6.255  0.00  0.00    +0.013 A 
ATOM     27  C   UNL     1       8.666   6.957   7.531  0.00  0.00    +0.050 A 
ATOM     28  C   UNL     1       9.870   4.862   7.616  0.00  0.00    +0.046 A 
ATOM     29  C   UNL     1       9.124   5.855   8.251  0.00  0.00    +0.120 A 
BRANCH  29   4
ATOM      4  O   UNL     1       8.846   5.748   9.580  0.00  0.00    -0.495 OA
ATOM     30  C   UNL     1       9.045   4.471  10.185  0.00  0.00    +0.277 C 
ENDBRANCH  29   4
ENDBRANCH  12  15
ENDBRANCH   7  12
BRANCH   8  13
ATOM     13  C   UNL     1      11.518   3.983   0.841  0.00  0.00    +0.124 C 
BRANCH  13  17
ATOM      3  O   UNL     1      10.164   4.328  -1.157  0.00  0.00    -0.251 OA
ATOM     17  C   UNL     1      11.188   3.926  -0.625  0.00  0.00    +0.305 C 
BRANCH  17   2
ATOM      2  O   UNL     1      12.214   3.349  -1.302  0.00  0.00    -0.481 OA
ATOM     31  H   UNL     1      12.612   2.607  -0.799  0.00  0.00    +0.295 HD
ENDBRANCH  17   2
ENDBRANCH  13  17
ENDBRANCH   8  13
BRANCH  14  16
ATOM     16  C   UNL     1      13.578   8.217   5.095  0.00  0.00    +0.075 C 
BRANCH  16  19
ATOM     19  C   UNL     1      13.024   7.380   6.253  0.00  0.00    +0.009 C 
ATOM     25  C   UNL     1      12.266   8.217   7.277  0.00  0.00    +0.004 C 
ENDBRANCH  16  19
BRANCH  16  20
ATOM     20  C   UNL     1      14.461   9.356   5.618  0.00  0.00    +0.009 C 
ATOM     26  C   UNL     1      14.226  10.669   4.882  0.00  0.00    +0.004 C 
ENDBRANCH  16  20
ENDBRANCH  14  16
TORSDOF 9
ENDMDL
MODEL 7
REMARK VINA RESULT:      -5.2      2.663      4.647
REMARK  Name = 51136650
REMARK  12 active torsions:
REMARK  status: ('A' for Active; 'I' for Inactive)
REMARK    1  A    between atoms: O_2  and  C_17
REMARK    2  A    between atoms: O_4  and  C_29
REMARK    3  A    between atoms: O_4  and  C_30
REMARK    4  A    between atoms: C_7  and  C_12
REMARK    5  A    between atoms: C_8  and  C_13
REMARK    6  A    between atoms: C_12  and  C_15
REMARK    7  A    between atoms: C_13  and  C_17
REMARK    8  A    between atoms: C_14  and  C_16
REMARK    9  A    between atoms: C_16  and  C_19
REMARK   10  A    between atoms: C_16  and  C_20
REMARK   11  A    between atoms: C_19  and  C_25
REMARK   12  A    between atoms: C_20  and  C_26
REMARK                            x       y       z     vdW  Elec       q    Type
REMARK                         _______ _______ _______ _____ _____    ______ ____
ROOT
ATOM      1  O   UNL     1      16.559   8.004  21.635  0.00  0.00    -0.275 OA
ATOM      5  N   UNL     1      15.449   8.902  19.802  0.00  0.00    -0.301 N 
ATOM      7  C   UNL     1      13.480  10.009  18.769  0.00  0.00    +0.016 C 
ATOM      8  C   UNL     1      13.072   8.640  18.168  0.00  0.00    +0.006 C 
ATOM      9  C   UNL     1      15.002  10.047  18.999  0.00  0.00    +0.112 C 
ATOM     10  C   UNL     1      13.605   7.470  19.012  0.00  0.00    +0.023 C 
ATOM     11  C   UNL     1      15.109   7.593  19.244  0.00  0.00    +0.108 C 
ATOM     14  C   UNL     1      16.171   8.983  20.992  0.00  0.00    +0.219 C 
ENDROOT
BRANCH   7  12
ATOM     12  C   UNL     1      12.737  10.368  20.062  0.00  0.00    +0.061 C 
BRANCH  12  15
ATOM      6  N   UNL     1      13.002  12.586  19.180  0.00  0.00    -0.287 NA
ATOM     15  C   UNL     1      12.596  11.867  20.174  0.00  0.00    +0.044 C 
ATOM     18  C   UNL     1      12.011  12.440  21.414  0.00  0.00    -0.001 A 
ATOM     21  C   UNL     1      12.247  13.799  21.652  0.00  0.00    -0.033 A 
ATOM     22  C   UNL     1      12.810  14.038  19.264  0.00  0.00    +0.146 C 
ATOM     23  C   UNL     1      13.072  14.572  20.666  0.00  0.00    +0.059 C 
ATOM     24  C   UNL     1      11.271  11.679  22.320  0.00  0.00    +0.013 A 
ATOM     27  C   UNL     1      11.757  14.390  22.821  0.00  0.00    +0.050 A 
ATOM     28  C   UNL     1      10.774  12.281  23.477  0.00  0.00    +0.046 A 
ATOM     29  C   UNL     1      11.018  13.631  23.728  0.00  0.00    +0.120 A 
BRANCH  29   4
ATOM      4  O   UNL     1      10.537  14.209  24.862  0.00  0.00    -0.495 OA
ATOM     30  C   UNL     1      11.351  14.124  26.031  0.00  0.00    +0.277 C 
ENDBRANCH  29   4
ENDBRANCH  12  15
ENDBRANCH   7  12
BRANCH   8  13
ATOM     13  C   UNL     1      11.566   8.505  17.948  0.00  0.00    +0.124 C 
BRANCH  13  17
ATOM      3  O   UNL     1      11.884   9.111  15.609  0.00  0.00    -0.251 OA
ATOM     17  C   UNL     1      11.206   8.607  16.492  0.00  0.00    +0.305 C 
BRANCH  17   2
ATOM      2  O   UNL     1       9.987   8.046  16.281  0.00  0.00    -0.481 OA
ATOM     31  H   UNL     1      10.058   7.173  15.839  0.00  0.00    +0.295 HD
ENDBRANCH  17   2
ENDBRANCH  13  17
ENDBRANCH   8  13
BRANCH  14  16
ATOM     16  C   UNL     1      16.480  10.368  21.503  0.00  0.00    +0.075 C 
BRANCH  16  19
ATOM     19  C   UNL     1      15.445  10.750  22.567  0.00  0.00    +0.009 C 
ATOM     25  C   UNL     1      15.444  12.242  22.880  0.00  0.00    +0.004 C 
ENDBRANCH  16  19
BRANCH  16  20
ATOM     20  C   UNL     1      17.897  10.386  22.090  0.00  0.00    +0.009 C 
ATOM     26  C   UNL     1      18.978  10.326  21.018  0.00  0.00    +0.004 C 
ENDBRANCH  16  20
ENDBRANCH  14  16
TORSDOF 9
ENDMDL
MODEL 8
REMARK VINA RESULT:      -5.1     23.932     26.788
REMARK  Name = 51136650
REMARK  12 active torsions:
REMARK  status: ('A' for Active; 'I' for Inactive)
REMARK    1  A    between atoms: O_2  and  C_17
REMARK    2  A    between atoms: O_4  and  C_29
REMARK    3  A    between atoms: O_4  and  C_30
REMARK    4  A    between atoms: C_7  and  C_12
REMARK    5  A    between atoms: C_8  and  C_13
REMARK    6  A    between atoms: C_12  and  C_15
REMARK    7  A    between atoms: C_13  and  C_17
REMARK    8  A    between atoms: C_14  and  C_16
REMARK    9  A    between atoms: C_16  and  C_19
REMARK   10  A    between atoms: C_16  and  C_20
REMARK   11  A    between atoms: C_19  and  C_25
REMARK   12  A    between atoms: C_20  and  C_26
REMARK                            x       y       z     vdW  Elec       q    Type
REMARK                         _______ _______ _______ _____ _____    ______ ____
ROOT
ATOM      1  O   UNL     1      -9.713   9.201  17.435  0.00  0.00    -0.275 OA
ATOM      5  N   UNL     1     -11.779   8.587  18.304  0.00  0.00    -0.301 N 
ATOM      7  C   UNL     1     -13.463   8.575  20.130  0.00  0.00    +0.016 C 
ATOM      8  C   UNL     1     -13.052   7.115  20.450  0.00  0.00    +0.006 C 
ATOM      9  C   UNL     1     -13.173   8.888  18.651  0.00  0.00    +0.112 C 
ATOM     10  C   UNL     1     -11.602   6.829  20.024  0.00  0.00    +0.023 C 
ATOM     11  C   UNL     1     -11.369   7.206  18.563  0.00  0.00    +0.108 C 
ATOM     14  C   UNL     1     -10.874   9.486  17.743  0.00  0.00    +0.219 C 
ENDROOT
BRANCH   7  12
ATOM     12  C   UNL     1     -12.801   9.621  21.036  0.00  0.00    +0.061 C 
BRANCH  12  15
ATOM      6  N   UNL     1     -15.066  10.348  21.368  0.00  0.00    -0.287 NA
ATOM     15  C   UNL     1     -13.856  10.362  21.821  0.00  0.00    +0.044 C 
ATOM     18  C   UNL     1     -13.456  11.072  23.064  0.00  0.00    -0.001 A 
ATOM     21  C   UNL     1     -14.339  12.046  23.545  0.00  0.00    -0.033 A 
ATOM     22  C   UNL     1     -16.101  11.016  22.162  0.00  0.00    +0.146 C 
ATOM     23  C   UNL     1     -15.602  12.315  22.781  0.00  0.00    +0.059 C 
ATOM     24  C   UNL     1     -12.257  10.810  23.730  0.00  0.00    +0.013 A 
ATOM     27  C   UNL     1     -14.003  12.779  24.687  0.00  0.00    +0.050 A 
ATOM     28  C   UNL     1     -11.938  11.536  24.878  0.00  0.00    +0.046 A 
ATOM     29  C   UNL     1     -12.806  12.519  25.353  0.00  0.00    +0.120 A 
BRANCH  29   4
ATOM      4  O   UNL     1     -12.482  13.228  26.469  0.00  0.00    -0.495 OA
ATOM     30  C   UNL     1     -11.924  12.501  27.562  0.00  0.00    +0.277 C 
ENDBRANCH  29   4
ENDBRANCH  12  15
ENDBRANCH   7  12
BRANCH   8  13
ATOM     13  C   UNL     1     -13.269   6.737  21.915  0.00  0.00    +0.124 C 
BRANCH  13  17
ATOM      3  O   UNL     1     -14.574   4.685  21.748  0.00  0.00    -0.251 OA
ATOM     17  C   UNL     1     -13.551   5.269  22.073  0.00  0.00    +0.305 C 
BRANCH  17   2
ATOM      2  O   UNL     1     -12.482   4.656  22.644  0.00  0.00    -0.481 OA
ATOM     31  H   UNL     1     -11.973   5.268  23.217  0.00  0.00    +0.295 HD
ENDBRANCH  17   2
ENDBRANCH  13  17
ENDBRANCH   8  13
BRANCH  14  16
ATOM     16  C   UNL     1     -11.372  10.891  17.509  0.00  0.00    +0.075 C 
BRANCH  16  19
ATOM     19  C   UNL     1     -10.943  11.774  18.686  0.00  0.00    +0.009 C 
ATOM     25  C   UNL     1     -12.086  12.617  19.239  0.00  0.00    +0.004 C 
ENDBRANCH  16  19
BRANCH  16  20
ATOM     20  C   UNL     1     -10.795  11.419  16.191  0.00  0.00    +0.009 C 
ATOM     26  C   UNL     1      -9.690  12.446  16.402  0.00  0.00    +0.004 C 
ENDBRANCH  16  20
ENDBRANCH  14  16
TORSDOF 9
ENDMDL
MODEL 9
REMARK VINA RESULT:      -5.1     24.836     27.595
REMARK  Name = 51136650
REMARK  12 active torsions:
REMARK  status: ('A' for Active; 'I' for Inactive)
REMARK    1  A    between atoms: O_2  and  C_17
REMARK    2  A    between atoms: O_4  and  C_29
REMARK    3  A    between atoms: O_4  and  C_30
REMARK    4  A    between atoms: C_7  and  C_12
REMARK    5  A    between atoms: C_8  and  C_13
REMARK    6  A    between atoms: C_12  and  C_15
REMARK    7  A    between atoms: C_13  and  C_17
REMARK    8  A    between atoms: C_14  and  C_16
REMARK    9  A    between atoms: C_16  and  C_19
REMARK   10  A    between atoms: C_16  and  C_20
REMARK   11  A    between atoms: C_19  and  C_25
REMARK   12  A    between atoms: C_20  and  C_26
REMARK                            x       y       z     vdW  Elec       q    Type
REMARK                         _______ _______ _______ _____ _____    ______ ____
ROOT
ATOM      1  O   UNL     1     -12.067  11.406  22.361  0.00  0.00    -0.275 OA
ATOM      5  N   UNL     1     -12.513  10.694  20.195  0.00  0.00    -0.301 N 
ATOM      7  C   UNL     1     -12.785   8.899  18.499  0.00  0.00    +0.016 C 
ATOM      8  C   UNL     1     -11.387   9.267  17.940  0.00  0.00    +0.006 C 
ATOM      9  C   UNL     1     -13.414  10.126  19.183  0.00  0.00    +0.112 C 
ATOM     10  C   UNL     1     -10.495   9.905  19.019  0.00  0.00    +0.023 C 
ATOM     11  C   UNL     1     -11.196  11.082  19.691  0.00  0.00    +0.108 C 
ATOM     14  C   UNL     1     -12.833  10.902  21.535  0.00  0.00    +0.219 C 
ENDROOT
BRANCH   7  12
ATOM     12  C   UNL     1     -12.777   7.700  19.457  0.00  0.00    +0.061 C 
BRANCH  12  15
ATOM      6  N   UNL     1     -15.114   7.611  18.914  0.00  0.00    -0.287 NA
ATOM     15  C   UNL     1     -14.193   7.272  19.755  0.00  0.00    +0.044 C 
ATOM     18  C   UNL     1     -14.461   6.496  20.993  0.00  0.00    -0.001 A 
ATOM     21  C   UNL     1     -15.789   6.453  21.435  0.00  0.00    -0.033 A 
ATOM     22  C   UNL     1     -16.481   7.144  19.172  0.00  0.00    +0.146 C 
ATOM     23  C   UNL     1     -16.834   7.192  20.653  0.00  0.00    +0.059 C 
ATOM     24  C   UNL     1     -13.454   5.845  21.707  0.00  0.00    +0.013 A 
ATOM     27  C   UNL     1     -16.101   5.773  22.616  0.00  0.00    +0.050 A 
ATOM     28  C   UNL     1     -13.778   5.156  22.877  0.00  0.00    +0.046 A 
ATOM     29  C   UNL     1     -15.096   5.123  23.332  0.00  0.00    +0.120 A 
BRANCH  29   4
ATOM      4  O   UNL     1     -15.402   4.455  24.478  0.00  0.00    -0.495 OA
ATOM     30  C   UNL     1     -16.707   4.658  25.019  0.00  0.00    +0.277 C 
ENDBRANCH  29   4
ENDBRANCH  12  15
ENDBRANCH   7  12
BRANCH   8  13
ATOM     13  C   UNL     1     -10.674   8.086  17.279  0.00  0.00    +0.124 C 
BRANCH  13  17
ATOM      3  O   UNL     1     -10.847   9.262  15.151  0.00  0.00    -0.251 OA
ATOM     17  C   UNL     1     -10.601   8.247  15.786  0.00  0.00    +0.305 C 
BRANCH  17   2
ATOM      2  O   UNL     1     -10.212   7.077  15.218  0.00  0.00    -0.481 OA
ATOM     31  H   UNL     1      -9.314   7.139  14.830  0.00  0.00    +0.295 HD
ENDBRANCH  17   2
ENDBRANCH  13  17
ENDBRANCH   8  13
BRANCH  14  16
ATOM     16  C   UNL     1     -14.210  10.472  21.977  0.00  0.00    +0.075 C 
BRANCH  16  19
ATOM     19  C   UNL     1     -14.073   9.425  23.088  0.00  0.00    +0.009 C 
ATOM     25  C   UNL     1     -15.359   9.235  23.883  0.00  0.00    +0.004 C 
ENDBRANCH  16  19
BRANCH  16  20
ATOM     20  C   UNL     1     -14.987  11.697  22.475  0.00  0.00    +0.009 C 
ATOM     26  C   UNL     1     -15.502  12.569  21.337  0.00  0.00    +0.004 C 
ENDBRANCH  16  20
ENDBRANCH  14  16
TORSDOF 9
ENDMDL
MODEL 10
REMARK VINA RESULT:      -5.1     12.272     16.845
REMARK  Name = 51136650
REMARK  12 active torsions:
REMARK  status: ('A' for Active; 'I' for Inactive)
REMARK    1  A    between atoms: O_2  and  C_17
REMARK    2  A    between atoms: O_4  and  C_29
REMARK    3  A    between atoms: O_4  and  C_30
REMARK    4  A    between atoms: C_7  and  C_12
REMARK    5  A    between atoms: C_8  and  C_13
REMARK    6  A    between atoms: C_12  and  C_15
REMARK    7  A    between atoms: C_13  and  C_17
REMARK    8  A    between atoms: C_14  and  C_16
REMARK    9  A    between atoms: C_16  and  C_19
REMARK   10  A    between atoms: C_16  and  C_20
REMARK   11  A    between atoms: C_19  and  C_25
REMARK   12  A    between atoms: C_20  and  C_26
REMARK                            x       y       z     vdW  Elec       q    Type
REMARK                         _______ _______ _______ _____ _____    ______ ____
ROOT
ATOM      1  O   UNL     1       8.315  10.216   5.373  0.00  0.00    -0.275 OA
ATOM      5  N   UNL     1       9.878   8.928   6.512  0.00  0.00    -0.301 N 
ATOM      7  C   UNL     1      11.088   6.791   6.891  0.00  0.00    +0.016 C 
ATOM      8  C   UNL     1      10.190   6.546   8.132  0.00  0.00    +0.006 C 
ATOM      9  C   UNL     1      11.202   8.302   6.619  0.00  0.00    +0.112 C 
ATOM     10  C   UNL     1       8.835   7.261   7.999  0.00  0.00    +0.023 C 
ATOM     11  C   UNL     1       9.018   8.743   7.681  0.00  0.00    +0.108 C 
ATOM     14  C   UNL     1       9.424   9.677   5.428  0.00  0.00    +0.219 C 
ENDROOT
BRANCH   7  12
ATOM     12  C   UNL     1      10.619   6.056   5.629  0.00  0.00    +0.061 C 
BRANCH  12  15
ATOM      6  N   UNL     1      12.628   7.036   4.748  0.00  0.00    -0.287 NA
ATOM     15  C   UNL     1      11.611   6.274   4.512  0.00  0.00    +0.044 C 
ATOM     18  C   UNL     1      11.370   5.614   3.202  0.00  0.00    -0.001 A 
ATOM     21  C   UNL     1      12.063   6.128   2.100  0.00  0.00    -0.033 A 
ATOM     22  C   UNL     1      13.622   7.198   3.682  0.00  0.00    +0.146 C 
ATOM     23  C   UNL     1      12.978   7.299   2.306  0.00  0.00    +0.059 C 
ATOM     24  C   UNL     1      10.488   4.543   3.049  0.00  0.00    +0.013 A 
ATOM     27  C   UNL     1      11.850   5.578   0.833  0.00  0.00    +0.050 A 
ATOM     28  C   UNL     1      10.294   3.990   1.782  0.00  0.00    +0.046 A 
ATOM     29  C   UNL     1      10.970   4.508   0.677  0.00  0.00    +0.120 A 
BRANCH  29   4
ATOM      4  O   UNL     1      10.768   3.968  -0.556  0.00  0.00    -0.495 OA
ATOM     30  C   UNL     1      11.925   3.552  -1.280  0.00  0.00    +0.277 C 
ENDBRANCH  29   4
ENDBRANCH  12  15
ENDBRANCH   7  12
BRANCH   8  13
ATOM     13  C   UNL     1       9.990   5.064   8.444  0.00  0.00    +0.124 C 
BRANCH  13  17
ATOM      3  O   UNL     1      10.549   4.837  10.806  0.00  0.00    -0.251 OA
ATOM     17  C   UNL     1       9.722   4.837   9.907  0.00  0.00    +0.305 C 
BRANCH  17   2
ATOM      2  O   UNL     1       8.395   4.624  10.101  0.00  0.00    -0.481 OA
ATOM     31  H   UNL     1       8.206   3.691  10.337  0.00  0.00    +0.295 HD
ENDBRANCH  17   2
ENDBRANCH  13  17
ENDBRANCH   8  13
BRANCH  14  16
ATOM     16  C   UNL     1      10.368   9.818   4.260  0.00  0.00    +0.075 C 
BRANCH  16  19
ATOM     19  C   UNL     1       9.651   9.374   2.981  0.00  0.00    +0.009 C 
ATOM     25  C   UNL     1       8.829   8.105   3.175  0.00  0.00    +0.004 C 
ENDBRANCH  16  19
BRANCH  16  20
ATOM     20  C   UNL     1      10.822  11.279   4.152  0.00  0.00    +0.009 C 
ATOM     26  C   UNL     1      11.533  11.769   5.406  0.00  0.00    +0.004 C 
ENDBRANCH  16  20
ENDBRANCH  14  16
TORSDOF 9
ENDMDL
