MODEL 1
REMARK VINA RESULT:      -6.2      0.000      0.000
REMARK  Name = 51137970
REMARK  8 active torsions:
REMARK  status: ('A' for Active; 'I' for Inactive)
REMARK    1  A    between atoms: N_4  and  C_21
REMARK    2  A    between atoms: C_5  and  C_7
REMARK    3  A    between atoms: C_6  and  C_16
REMARK    4  A    between atoms: C_7  and  C_12
REMARK    5  A    between atoms: C_12  and  C_17
REMARK    6  A    between atoms: C_12  and  C_18
REMARK    7  A    between atoms: C_21  and  C_22
REMARK    8  A    between atoms: C_22  and  C_23
REMARK                            x       y       z     vdW  Elec       q    Type
REMARK                         _______ _______ _______ _____ _____    ______ ____
ROOT
ATOM      2  N   UNL     1      14.154   9.372  18.952  0.00  0.00    -0.299 NA
ATOM      3  N   UNL     1      10.738  10.500  22.496  0.00  0.00    -0.360 N 
ATOM      5  C   UNL     1      13.365   8.149  19.147  0.00  0.00    +0.085 C 
ATOM      6  C   UNL     1      13.374  10.549  18.598  0.00  0.00    +0.145 C 
ATOM      8  C   UNL     1      12.370   8.174  20.312  0.00  0.00    -0.021 A 
ATOM      9  C   UNL     1      11.915   9.348  20.978  0.00  0.00    +0.008 A 
ATOM     10  C   UNL     1      13.071  11.412  19.821  0.00  0.00    +0.065 C 
ATOM     11  C   UNL     1      12.176  10.753  20.817  0.00  0.00    -0.020 A 
ATOM     13  C   UNL     1      10.991   9.234  22.024  0.00  0.00    +0.047 A 
ATOM     14  C   UNL     1      11.783   6.952  20.729  0.00  0.00    +0.006 A 
ATOM     15  C   UNL     1      11.440  11.421  21.775  0.00  0.00    +0.087 A 
ATOM     19  C   UNL     1      10.459   8.017  22.449  0.00  0.00    +0.026 A 
ATOM     20  C   UNL     1      10.863   6.873  21.772  0.00  0.00    +0.002 A 
ATOM     24  H   UNL     1      14.750   9.555  19.759  0.00  0.00    +0.123 HD
ATOM     25  H   UNL     1      10.109  10.717  23.256  0.00  0.00    +0.165 HD
ENDROOT
BRANCH   6  16
ATOM      1  O   UNL     1      15.260  11.898  18.031  0.00  0.00    -0.274 OA
ATOM      4  N   UNL     1      13.742  11.325  16.362  0.00  0.00    -0.314 N 
ATOM     16  C   UNL     1      14.241  11.325  17.654  0.00  0.00    +0.230 C 
ATOM     26  H   UNL     1      12.889  10.815  16.152  0.00  0.00    +0.149 HD
BRANCH   4  21
ATOM     21  C   UNL     1      14.379  12.020  15.268  0.00  0.00    +0.104 C 
BRANCH  21  22
ATOM     22  C   UNL     1      15.401  11.151  14.545  0.00  0.00    +0.015 C 
ATOM     23  C   UNL     1      16.825  11.671  14.692  0.00  0.00    +0.005 C 
ENDBRANCH  21  22
ENDBRANCH   4  21
ENDBRANCH   6  16
BRANCH   5   7
ATOM      7  C   UNL     1      14.411   7.029  19.288  0.00  0.00    +0.026 C 
BRANCH   7  12
ATOM     12  C   UNL     1      15.648   7.464  20.081  0.00  0.00    -0.015 C 
ATOM     17  C   UNL     1      16.854   6.638  19.626  0.00  0.00    +0.007 C 
ATOM     18  C   UNL     1      15.462   7.318  21.591  0.00  0.00    +0.007 C 
ENDBRANCH   7  12
ENDBRANCH   5   7
TORSDOF 5
ENDMDL
MODEL 2
REMARK VINA RESULT:      -6.2     25.212     27.540
REMARK  Name = 51137970
REMARK  8 active torsions:
REMARK  status: ('A' for Active; 'I' for Inactive)
REMARK    1  A    between atoms: N_4  and  C_21
REMARK    2  A    between atoms: C_5  and  C_7
REMARK    3  A    between atoms: C_6  and  C_16
REMARK    4  A    between atoms: C_7  and  C_12
REMARK    5  A    between atoms: C_12  and  C_17
REMARK    6  A    between atoms: C_12  and  C_18
REMARK    7  A    between atoms: C_21  and  C_22
REMARK    8  A    between atoms: C_22  and  C_23
REMARK                            x       y       z     vdW  Elec       q    Type
REMARK                         _______ _______ _______ _____ _____    ______ ____
ROOT
ATOM      2  N   UNL     1      -4.564 -10.377  14.919  0.00  0.00    -0.299 NA
ATOM      3  N   UNL     1      -8.349  -9.532  18.154  0.00  0.00    -0.360 N 
ATOM      5  C   UNL     1      -4.266 -11.196  16.102  0.00  0.00    +0.085 C 
ATOM      6  C   UNL     1      -5.862 -10.634  14.313  0.00  0.00    +0.145 C 
ATOM      8  C   UNL     1      -5.178 -10.976  17.314  0.00  0.00    -0.021 A 
ATOM      9  C   UNL     1      -6.446 -10.328  17.280  0.00  0.00    +0.008 A 
ATOM     10  C   UNL     1      -6.911  -9.628  14.784  0.00  0.00    +0.065 C 
ATOM     11  C   UNL     1      -7.237  -9.733  16.237  0.00  0.00    -0.020 A 
ATOM     13  C   UNL     1      -7.189 -10.203  18.460  0.00  0.00    +0.047 A 
ATOM     14  C   UNL     1      -4.786 -11.518  18.564  0.00  0.00    +0.006 A 
ATOM     15  C   UNL     1      -8.391  -9.250  16.820  0.00  0.00    +0.087 A 
ATOM     19  C   UNL     1      -6.764 -10.704  19.691  0.00  0.00    +0.026 A 
ATOM     20  C   UNL     1      -5.550 -11.378  19.721  0.00  0.00    +0.002 A 
ATOM     24  H   UNL     1      -4.441  -9.385  15.121  0.00  0.00    +0.123 HD
ATOM     25  H   UNL     1      -9.072  -9.298  18.819  0.00  0.00    +0.165 HD
ENDROOT
BRANCH   6  16
ATOM      1  O   UNL     1      -6.471  -9.896  12.126  0.00  0.00    -0.274 OA
ATOM      4  N   UNL     1      -4.459 -11.031  12.413  0.00  0.00    -0.314 N 
ATOM     16  C   UNL     1      -5.648 -10.464  12.840  0.00  0.00    +0.230 C 
ATOM     26  H   UNL     1      -3.843 -11.477  13.087  0.00  0.00    +0.149 HD
BRANCH   4  21
ATOM     21  C   UNL     1      -4.029 -11.023  11.034  0.00  0.00    +0.104 C 
BRANCH  21  22
ATOM     22  C   UNL     1      -3.142  -9.828  10.710  0.00  0.00    +0.015 C 
ATOM     23  C   UNL     1      -1.826  -9.846  11.476  0.00  0.00    +0.005 C 
ENDBRANCH  21  22
ENDBRANCH   4  21
ENDBRANCH   6  16
BRANCH   5   7
ATOM      7  C   UNL     1      -2.788 -10.904  16.415  0.00  0.00    +0.026 C 
BRANCH   7  12
ATOM     12  C   UNL     1      -1.954 -10.629  15.159  0.00  0.00    -0.015 C 
ATOM     17  C   UNL     1      -1.504 -11.959  14.552  0.00  0.00    +0.007 C 
ATOM     18  C   UNL     1      -0.735  -9.751  15.443  0.00  0.00    +0.007 C 
ENDBRANCH   7  12
ENDBRANCH   5   7
TORSDOF 5
ENDMDL
MODEL 3
REMARK VINA RESULT:      -6.0      2.336      5.137
REMARK  Name = 51137970
REMARK  8 active torsions:
REMARK  status: ('A' for Active; 'I' for Inactive)
REMARK    1  A    between atoms: N_4  and  C_21
REMARK    2  A    between atoms: C_5  and  C_7
REMARK    3  A    between atoms: C_6  and  C_16
REMARK    4  A    between atoms: C_7  and  C_12
REMARK    5  A    between atoms: C_12  and  C_17
REMARK    6  A    between atoms: C_12  and  C_18
REMARK    7  A    between atoms: C_21  and  C_22
REMARK    8  A    between atoms: C_22  and  C_23
REMARK                            x       y       z     vdW  Elec       q    Type
REMARK                         _______ _______ _______ _____ _____    ______ ____
ROOT
ATOM      2  N   UNL     1      14.980   8.703  20.155  0.00  0.00    -0.299 NA
ATOM      3  N   UNL     1      10.450   7.526  22.053  0.00  0.00    -0.360 N 
ATOM      5  C   UNL     1      14.673   9.754  21.135  0.00  0.00    +0.085 C 
ATOM      6  C   UNL     1      14.950   7.348  20.688  0.00  0.00    +0.145 C 
ATOM      8  C   UNL     1      13.260   9.727  21.725  0.00  0.00    -0.021 A 
ATOM      9  C   UNL     1      12.368   8.616  21.670  0.00  0.00    +0.008 A 
ATOM     10  C   UNL     1      13.612   6.665  20.413  0.00  0.00    +0.065 C 
ATOM     11  C   UNL     1      12.459   7.288  21.126  0.00  0.00    -0.020 A 
ATOM     13  C   UNL     1      11.104   8.716  22.263  0.00  0.00    +0.047 A 
ATOM     14  C   UNL     1      12.807  10.856  22.455  0.00  0.00    +0.006 A 
ATOM     15  C   UNL     1      11.256   6.659  21.376  0.00  0.00    +0.087 A 
ATOM     19  C   UNL     1      10.660   9.854  22.938  0.00  0.00    +0.026 A 
ATOM     20  C   UNL     1      11.542  10.922  23.035  0.00  0.00    +0.002 A 
ATOM     24  H   UNL     1      14.385   8.788  19.331  0.00  0.00    +0.123 HD
ATOM     25  H   UNL     1       9.513   7.318  22.370  0.00  0.00    +0.165 HD
ENDROOT
BRANCH   6  16
ATOM      1  O   UNL     1      15.819   6.027  18.900  0.00  0.00    -0.274 OA
ATOM      4  N   UNL     1      17.247   6.674  20.621  0.00  0.00    -0.314 N 
ATOM     16  C   UNL     1      16.034   6.616  19.956  0.00  0.00    +0.230 C 
ATOM     26  H   UNL     1      17.321   7.192  21.491  0.00  0.00    +0.149 HD
BRANCH   4  21
ATOM     21  C   UNL     1      18.446   6.030  20.136  0.00  0.00    +0.104 C 
BRANCH  21  22
ATOM     22  C   UNL     1      19.707   6.587  20.785  0.00  0.00    +0.015 C 
ATOM     23  C   UNL     1      19.592   6.694  22.299  0.00  0.00    +0.005 C 
ENDBRANCH  21  22
ENDBRANCH   4  21
ENDBRANCH   6  16
BRANCH   5   7
ATOM      7  C   UNL     1      14.981  11.071  20.401  0.00  0.00    +0.026 C 
BRANCH   7  12
ATOM     12  C   UNL     1      14.187  11.230  19.101  0.00  0.00    -0.015 C 
ATOM     17  C   UNL     1      15.162  11.365  17.929  0.00  0.00    +0.007 C 
ATOM     18  C   UNL     1      13.244  12.434  19.130  0.00  0.00    +0.007 C 
ENDBRANCH   7  12
ENDBRANCH   5   7
TORSDOF 5
ENDMDL
MODEL 4
REMARK VINA RESULT:      -5.8     26.328     28.558
REMARK  Name = 51137970
REMARK  8 active torsions:
REMARK  status: ('A' for Active; 'I' for Inactive)
REMARK    1  A    between atoms: N_4  and  C_21
REMARK    2  A    between atoms: C_5  and  C_7
REMARK    3  A    between atoms: C_6  and  C_16
REMARK    4  A    between atoms: C_7  and  C_12
REMARK    5  A    between atoms: C_12  and  C_17
REMARK    6  A    between atoms: C_12  and  C_18
REMARK    7  A    between atoms: C_21  and  C_22
REMARK    8  A    between atoms: C_22  and  C_23
REMARK                            x       y       z     vdW  Elec       q    Type
REMARK                         _______ _______ _______ _____ _____    ______ ____
ROOT
ATOM      2  N   UNL     1      -6.643 -10.969  16.555  0.00  0.00    -0.299 NA
ATOM      3  N   UNL     1      -3.550 -10.367  12.608  0.00  0.00    -0.360 N 
ATOM      5  C   UNL     1      -5.298 -10.814  17.123  0.00  0.00    +0.085 C 
ATOM      6  C   UNL     1      -7.069  -9.874  15.694  0.00  0.00    +0.145 C 
ATOM      8  C   UNL     1      -4.143 -10.798  16.116  0.00  0.00    -0.021 A 
ATOM      9  C   UNL     1      -4.280 -10.582  14.714  0.00  0.00    +0.008 A 
ATOM     10  C   UNL     1      -6.837 -10.196  14.219  0.00  0.00    +0.065 C 
ATOM     11  C   UNL     1      -5.397 -10.321  13.847  0.00  0.00    -0.020 A 
ATOM     13  C   UNL     1      -3.140 -10.579  13.902  0.00  0.00    +0.047 A 
ATOM     14  C   UNL     1      -2.817 -10.932  16.602  0.00  0.00    +0.006 A 
ATOM     15  C   UNL     1      -4.904 -10.206  12.564  0.00  0.00    +0.087 A 
ATOM     19  C   UNL     1      -1.846 -10.757  14.394  0.00  0.00    +0.026 A 
ATOM     20  C   UNL     1      -1.703 -10.922  15.766  0.00  0.00    +0.002 A 
ATOM     24  H   UNL     1      -6.739 -11.867  16.082  0.00  0.00    +0.123 HD
ATOM     25  H   UNL     1      -2.935 -10.321  11.808  0.00  0.00    +0.165 HD
ENDROOT
BRANCH   6  16
ATOM      1  O   UNL     1      -9.171 -10.558  16.593  0.00  0.00    -0.274 OA
ATOM      4  N   UNL     1      -9.066  -8.604  15.332  0.00  0.00    -0.314 N 
ATOM     16  C   UNL     1      -8.540  -9.732  15.939  0.00  0.00    +0.230 C 
ATOM     26  H   UNL     1      -8.456  -7.979  14.814  0.00  0.00    +0.149 HD
BRANCH   4  21
ATOM     21  C   UNL     1     -10.465  -8.250  15.398  0.00  0.00    +0.104 C 
BRANCH  21  22
ATOM     22  C   UNL     1     -10.789  -7.386  16.611  0.00  0.00    +0.015 C 
ATOM     23  C   UNL     1     -11.350  -6.023  16.230  0.00  0.00    +0.005 C 
ENDBRANCH  21  22
ENDBRANCH   4  21
ENDBRANCH   6  16
BRANCH   5   7
ATOM      7  C   UNL     1      -5.174 -11.958  18.145  0.00  0.00    +0.026 C 
BRANCH   7  12
ATOM     12  C   UNL     1      -5.919 -11.675  19.453  0.00  0.00    -0.015 C 
ATOM     17  C   UNL     1      -7.224 -12.474  19.473  0.00  0.00    +0.007 C 
ATOM     18  C   UNL     1      -6.221 -10.189  19.648  0.00  0.00    +0.007 C 
ENDBRANCH   7  12
ENDBRANCH   5   7
TORSDOF 5
ENDMDL
MODEL 5
REMARK VINA RESULT:      -5.8     26.945     28.544
REMARK  Name = 51137970
REMARK  8 active torsions:
REMARK  status: ('A' for Active; 'I' for Inactive)
REMARK    1  A    between atoms: N_4  and  C_21
REMARK    2  A    between atoms: C_5  and  C_7
REMARK    3  A    between atoms: C_6  and  C_16
REMARK    4  A    between atoms: C_7  and  C_12
REMARK    5  A    between atoms: C_12  and  C_17
REMARK    6  A    between atoms: C_12  and  C_18
REMARK    7  A    between atoms: C_21  and  C_22
REMARK    8  A    between atoms: C_22  and  C_23
REMARK                            x       y       z     vdW  Elec       q    Type
REMARK                         _______ _______ _______ _____ _____    ______ ____
ROOT
ATOM      2  N   UNL     1      -6.526  -9.292  13.441  0.00  0.00    -0.299 NA
ATOM      3  N   UNL     1      -2.980 -11.217  16.480  0.00  0.00    -0.360 N 
ATOM      5  C   UNL     1      -5.572  -9.975  12.557  0.00  0.00    +0.085 C 
ATOM      6  C   UNL     1      -7.101 -10.133  14.481  0.00  0.00    +0.145 C 
ATOM      8  C   UNL     1      -4.293 -10.492  13.224  0.00  0.00    -0.021 A 
ATOM      9  C   UNL     1      -4.112 -10.667  14.627  0.00  0.00    +0.008 A 
ATOM     10  C   UNL     1      -6.361  -9.973  15.807  0.00  0.00    +0.065 C 
ATOM     11  C   UNL     1      -4.952 -10.464  15.776  0.00  0.00    -0.020 A 
ATOM     13  C   UNL     1      -2.894 -11.162  15.109  0.00  0.00    +0.047 A 
ATOM     14  C   UNL     1      -3.217 -10.908  12.399  0.00  0.00    +0.006 A 
ATOM     15  C   UNL     1      -4.214 -10.805  16.891  0.00  0.00    +0.087 A 
ATOM     19  C   UNL     1      -1.830 -11.523  14.282  0.00  0.00    +0.026 A 
ATOM     20  C   UNL     1      -2.018 -11.398  12.912  0.00  0.00    +0.002 A 
ATOM     24  H   UNL     1      -6.115  -8.447  13.837  0.00  0.00    +0.123 HD
ATOM     25  H   UNL     1      -2.241 -11.533  17.092  0.00  0.00    +0.165 HD
ENDROOT
BRANCH   6  16
ATOM      1  O   UNL     1      -9.439 -10.130  14.001  0.00  0.00    -0.274 OA
ATOM      4  N   UNL     1      -8.605  -8.614  15.559  0.00  0.00    -0.314 N 
ATOM     16  C   UNL     1      -8.509  -9.648  14.643  0.00  0.00    +0.230 C 
ATOM     26  H   UNL     1      -7.773  -8.289  16.041  0.00  0.00    +0.149 HD
BRANCH   4  21
ATOM     21  C   UNL     1      -9.850  -7.955  15.880  0.00  0.00    +0.104 C 
BRANCH  21  22
ATOM     22  C   UNL     1     -10.133  -7.947  17.377  0.00  0.00    +0.015 C 
ATOM     23  C   UNL     1     -10.230  -9.349  17.965  0.00  0.00    +0.005 C 
ENDBRANCH  21  22
ENDBRANCH   4  21
ENDBRANCH   6  16
BRANCH   5   7
ATOM      7  C   UNL     1      -5.284  -8.960  11.437  0.00  0.00    +0.026 C 
BRANCH   7  12
ATOM     12  C   UNL     1      -5.529  -9.530  10.036  0.00  0.00    -0.015 C 
ATOM     17  C   UNL     1      -4.365  -9.139   9.123  0.00  0.00    +0.007 C 
ATOM     18  C   UNL     1      -6.847  -9.051   9.428  0.00  0.00    +0.007 C 
ENDBRANCH   7  12
ENDBRANCH   5   7
TORSDOF 5
ENDMDL
MODEL 6
REMARK VINA RESULT:      -5.7     13.853     17.455
REMARK  Name = 51137970
REMARK  8 active torsions:
REMARK  status: ('A' for Active; 'I' for Inactive)
REMARK    1  A    between atoms: N_4  and  C_21
REMARK    2  A    between atoms: C_5  and  C_7
REMARK    3  A    between atoms: C_6  and  C_16
REMARK    4  A    between atoms: C_7  and  C_12
REMARK    5  A    between atoms: C_12  and  C_17
REMARK    6  A    between atoms: C_12  and  C_18
REMARK    7  A    between atoms: C_21  and  C_22
REMARK    8  A    between atoms: C_22  and  C_23
REMARK                            x       y       z     vdW  Elec       q    Type
REMARK                         _______ _______ _______ _____ _____    ______ ____
ROOT
ATOM      2  N   UNL     1      10.117   5.732   3.873  0.00  0.00    -0.299 NA
ATOM      3  N   UNL     1       7.199   9.665   2.634  0.00  0.00    -0.360 N 
ATOM      5  C   UNL     1      10.520   6.115   2.513  0.00  0.00    +0.085 C 
ATOM      6  C   UNL     1      10.203   6.802   4.856  0.00  0.00    +0.145 C 
ATOM      8  C   UNL     1       9.653   7.178   1.832  0.00  0.00    -0.021 A 
ATOM      9  C   UNL     1       8.736   8.041   2.499  0.00  0.00    +0.008 A 
ATOM     10  C   UNL     1       8.851   7.480   5.069  0.00  0.00    +0.065 C 
ATOM     11  C   UNL     1       8.350   8.218   3.873  0.00  0.00    -0.020 A 
ATOM     13  C   UNL     1       8.011   8.982   1.759  0.00  0.00    +0.047 A 
ATOM     14  C   UNL     1       9.811   7.391   0.438  0.00  0.00    +0.006 A 
ATOM     15  C   UNL     1       7.399   9.217   3.907  0.00  0.00    +0.087 A 
ATOM     19  C   UNL     1       8.148   9.146   0.381  0.00  0.00    +0.026 A 
ATOM     20  C   UNL     1       9.073   8.340  -0.268  0.00  0.00    +0.002 A 
ATOM     24  H   UNL     1       9.190   5.307   3.872  0.00  0.00    +0.123 HD
ATOM     25  H   UNL     1       6.561  10.402   2.373  0.00  0.00    +0.165 HD
ENDROOT
BRANCH   6  16
ATOM      1  O   UNL     1      11.749   6.274   6.596  0.00  0.00    -0.274 OA
ATOM      4  N   UNL     1       9.614   5.348   6.665  0.00  0.00    -0.314 N 
ATOM     16  C   UNL     1      10.622   6.132   6.129  0.00  0.00    +0.230 C 
ATOM     26  H   UNL     1       8.712   5.300   6.201  0.00  0.00    +0.149 HD
BRANCH   4  21
ATOM     21  C   UNL     1       9.771   4.579   7.878  0.00  0.00    +0.104 C 
BRANCH  21  22
ATOM     22  C   UNL     1       9.391   5.373   9.122  0.00  0.00    +0.015 C 
ATOM     23  C   UNL     1       8.988   4.482  10.289  0.00  0.00    +0.005 C 
ENDBRANCH  21  22
ENDBRANCH   4  21
ENDBRANCH   6  16
BRANCH   5   7
ATOM      7  C   UNL     1      10.554   4.790   1.730  0.00  0.00    +0.026 C 
BRANCH   7  12
ATOM     12  C   UNL     1      11.917   4.508   1.091  0.00  0.00    -0.015 C 
ATOM     17  C   UNL     1      11.723   4.208  -0.398  0.00  0.00    +0.007 C 
ATOM     18  C   UNL     1      12.653   3.347   1.760  0.00  0.00    +0.007 C 
ENDBRANCH   7  12
ENDBRANCH   5   7
TORSDOF 5
ENDMDL
MODEL 7
REMARK VINA RESULT:      -5.7     27.008     28.354
REMARK  Name = 51137970
REMARK  8 active torsions:
REMARK  status: ('A' for Active; 'I' for Inactive)
REMARK    1  A    between atoms: N_4  and  C_21
REMARK    2  A    between atoms: C_5  and  C_7
REMARK    3  A    between atoms: C_6  and  C_16
REMARK    4  A    between atoms: C_7  and  C_12
REMARK    5  A    between atoms: C_12  and  C_17
REMARK    6  A    between atoms: C_12  and  C_18
REMARK    7  A    between atoms: C_21  and  C_22
REMARK    8  A    between atoms: C_22  and  C_23
REMARK                            x       y       z     vdW  Elec       q    Type
REMARK                         _______ _______ _______ _____ _____    ______ ____
ROOT
ATOM      2  N   UNL     1      -7.247 -10.210  14.249  0.00  0.00    -0.299 NA
ATOM      3  N   UNL     1      -3.028 -11.658  16.617  0.00  0.00    -0.360 N 
ATOM      5  C   UNL     1      -7.457  -9.892  15.668  0.00  0.00    +0.085 C 
ATOM      6  C   UNL     1      -6.060  -9.606  13.660  0.00  0.00    +0.145 C 
ATOM      8  C   UNL     1      -6.386 -10.405  16.635  0.00  0.00    -0.021 A 
ATOM      9  C   UNL     1      -5.083 -10.845  16.259  0.00  0.00    +0.008 A 
ATOM     10  C   UNL     1      -4.883 -10.578  13.646  0.00  0.00    +0.065 C 
ATOM     11  C   UNL     1      -4.385 -10.944  15.005  0.00  0.00    -0.020 A 
ATOM     13  C   UNL     1      -4.190 -11.279  17.245  0.00  0.00    +0.047 A 
ATOM     14  C   UNL     1      -6.659 -10.379  18.026  0.00  0.00    +0.006 A 
ATOM     15  C   UNL     1      -3.132 -11.456  15.272  0.00  0.00    +0.087 A 
ATOM     19  C   UNL     1      -4.494 -11.289  18.607  0.00  0.00    +0.026 A 
ATOM     20  C   UNL     1      -5.745 -10.817  18.983  0.00  0.00    +0.002 A 
ATOM     24  H   UNL     1      -7.262 -11.218  14.095  0.00  0.00    +0.123 HD
ATOM     25  H   UNL     1      -2.209 -12.019  17.087  0.00  0.00    +0.165 HD
ENDROOT
BRANCH   6  16
ATOM      1  O   UNL     1      -7.598  -9.407  11.846  0.00  0.00    -0.274 OA
ATOM      4  N   UNL     1      -5.362  -8.863  11.494  0.00  0.00    -0.314 N 
ATOM     16  C   UNL     1      -6.444  -9.281  12.249  0.00  0.00    +0.230 C 
ATOM     26  H   UNL     1      -4.445  -8.789  11.925  0.00  0.00    +0.149 HD
BRANCH   4  21
ATOM     21  C   UNL     1      -5.461  -8.511  10.096  0.00  0.00    +0.104 C 
BRANCH  21  22
ATOM     22  C   UNL     1      -4.209  -8.885   9.313  0.00  0.00    +0.015 C 
ATOM     23  C   UNL     1      -3.045  -9.273  10.215  0.00  0.00    +0.005 C 
ENDBRANCH  21  22
ENDBRANCH   4  21
ENDBRANCH   6  16
BRANCH   5   7
ATOM      7  C   UNL     1      -8.856 -10.449  15.988  0.00  0.00    +0.026 C 
BRANCH   7  12
ATOM     12  C   UNL     1      -9.939  -9.365  16.013  0.00  0.00    -0.015 C 
ATOM     17  C   UNL     1      -9.485  -8.221  16.923  0.00  0.00    +0.007 C 
ATOM     18  C   UNL     1     -11.292  -9.896  16.486  0.00  0.00    +0.007 C 
ENDBRANCH   7  12
ENDBRANCH   5   7
TORSDOF 5
ENDMDL
MODEL 8
REMARK VINA RESULT:      -5.7     26.317     28.613
REMARK  Name = 51137970
REMARK  8 active torsions:
REMARK  status: ('A' for Active; 'I' for Inactive)
REMARK    1  A    between atoms: N_4  and  C_21
REMARK    2  A    between atoms: C_5  and  C_7
REMARK    3  A    between atoms: C_6  and  C_16
REMARK    4  A    between atoms: C_7  and  C_12
REMARK    5  A    between atoms: C_12  and  C_17
REMARK    6  A    between atoms: C_12  and  C_18
REMARK    7  A    between atoms: C_21  and  C_22
REMARK    8  A    between atoms: C_22  and  C_23
REMARK                            x       y       z     vdW  Elec       q    Type
REMARK                         _______ _______ _______ _____ _____    ______ ____
ROOT
ATOM      2  N   UNL     1      -6.117  -9.477  14.845  0.00  0.00    -0.299 NA
ATOM      3  N   UNL     1      -1.479 -11.404  15.378  0.00  0.00    -0.360 N 
ATOM      5  C   UNL     1      -5.848 -10.216  13.605  0.00  0.00    +0.085 C 
ATOM      6  C   UNL     1      -5.994 -10.268  16.062  0.00  0.00    +0.145 C 
ATOM      8  C   UNL     1      -4.420 -10.748  13.438  0.00  0.00    -0.021 A 
ATOM      9  C   UNL     1      -3.467 -10.883  14.489  0.00  0.00    +0.008 A 
ATOM     10  C   UNL     1      -4.626 -10.086  16.715  0.00  0.00    +0.065 C 
ATOM     11  C   UNL     1      -3.493 -10.618  15.902  0.00  0.00    -0.020 A 
ATOM     13  C   UNL     1      -2.196 -11.396  14.206  0.00  0.00    +0.047 A 
ATOM     14  C   UNL     1      -4.016 -11.220  12.164  0.00  0.00    +0.006 A 
ATOM     15  C   UNL     1      -2.250 -10.944  16.405  0.00  0.00    +0.087 A 
ATOM     19  C   UNL     1      -1.802 -11.814  12.934  0.00  0.00    +0.026 A 
ATOM     20  C   UNL     1      -2.743 -11.729  11.916  0.00  0.00    +0.002 A 
ATOM     24  H   UNL     1      -5.549  -8.632  14.897  0.00  0.00    +0.123 HD
ATOM     25  H   UNL     1      -0.524 -11.722  15.468  0.00  0.00    +0.165 HD
ENDROOT
BRANCH   6  16
ATOM      1  O   UNL     1      -7.031  -9.962  18.190  0.00  0.00    -0.274 OA
ATOM      4  N   UNL     1      -8.019  -9.013  16.307  0.00  0.00    -0.314 N 
ATOM     16  C   UNL     1      -7.051  -9.737  16.982  0.00  0.00    +0.230 C 
ATOM     26  H   UNL     1      -7.942  -8.882  15.303  0.00  0.00    +0.149 HD
BRANCH   4  21
ATOM     21  C   UNL     1      -9.159  -8.414  16.962  0.00  0.00    +0.104 C 
BRANCH  21  22
ATOM     22  C   UNL     1     -10.401  -9.293  16.885  0.00  0.00    +0.015 C 
ATOM     23  C   UNL     1     -11.234  -9.248  18.159  0.00  0.00    +0.005 C 
ENDBRANCH  21  22
ENDBRANCH   4  21
ENDBRANCH   6  16
BRANCH   5   7
ATOM      7  C   UNL     1      -6.250  -9.246  12.479  0.00  0.00    +0.026 C 
BRANCH   7  12
ATOM     12  C   UNL     1      -7.519  -9.683  11.740  0.00  0.00    -0.015 C 
ATOM     17  C   UNL     1      -8.661  -9.838  12.748  0.00  0.00    +0.007 C 
ATOM     18  C   UNL     1      -7.330 -10.988  10.968  0.00  0.00    +0.007 C 
ENDBRANCH   7  12
ENDBRANCH   5   7
TORSDOF 5
ENDMDL
MODEL 9
REMARK VINA RESULT:      -5.6     27.189     30.011
REMARK  Name = 51137970
REMARK  8 active torsions:
REMARK  status: ('A' for Active; 'I' for Inactive)
REMARK    1  A    between atoms: N_4  and  C_21
REMARK    2  A    between atoms: C_5  and  C_7
REMARK    3  A    between atoms: C_6  and  C_16
REMARK    4  A    between atoms: C_7  and  C_12
REMARK    5  A    between atoms: C_12  and  C_17
REMARK    6  A    between atoms: C_12  and  C_18
REMARK    7  A    between atoms: C_21  and  C_22
REMARK    8  A    between atoms: C_22  and  C_23
REMARK                            x       y       z     vdW  Elec       q    Type
REMARK                         _______ _______ _______ _____ _____    ______ ____
ROOT
ATOM      2  N   UNL     1      -8.140 -10.781  18.226  0.00  0.00    -0.299 NA
ATOM      3  N   UNL     1      -3.206 -11.827  18.486  0.00  0.00    -0.360 N 
ATOM      5  C   UNL     1      -7.636 -10.669  16.851  0.00  0.00    +0.085 C 
ATOM      6  C   UNL     1      -7.891 -12.067  18.861  0.00  0.00    +0.145 C 
ATOM      8  C   UNL     1      -6.116 -10.762  16.685  0.00  0.00    -0.021 A 
ATOM      9  C   UNL     1      -5.213 -11.271  17.663  0.00  0.00    +0.008 A 
ATOM     10  C   UNL     1      -6.643 -12.027  19.741  0.00  0.00    +0.065 C 
ATOM     11  C   UNL     1      -5.375 -11.823  18.981  0.00  0.00    -0.020 A 
ATOM     13  C   UNL     1      -3.843 -11.314  17.381  0.00  0.00    +0.047 A 
ATOM     14  C   UNL     1      -5.545 -10.388  15.442  0.00  0.00    +0.006 A 
ATOM     15  C   UNL     1      -4.117 -12.141  19.451  0.00  0.00    +0.087 A 
ATOM     19  C   UNL     1      -3.295 -10.899  16.167  0.00  0.00    +0.026 A 
ATOM     20  C   UNL     1      -4.175 -10.445  15.193  0.00  0.00    +0.002 A 
ATOM     24  H   UNL     1      -7.799 -10.013  18.803  0.00  0.00    +0.123 HD
ATOM     25  H   UNL     1      -2.208 -11.966  18.564  0.00  0.00    +0.165 HD
ENDROOT
BRANCH   6  16
ATOM      1  O   UNL     1      -9.185 -13.319  20.429  0.00  0.00    -0.274 OA
ATOM      4  N   UNL     1     -10.043 -11.320  19.600  0.00  0.00    -0.314 N 
ATOM     16  C   UNL     1      -9.091 -12.318  19.723  0.00  0.00    +0.230 C 
ATOM     26  H   UNL     1      -9.867 -10.528  18.989  0.00  0.00    +0.149 HD
BRANCH   4  21
ATOM     21  C   UNL     1     -11.301 -11.336  20.309  0.00  0.00    +0.104 C 
BRANCH  21  22
ATOM     22  C   UNL     1     -12.040 -10.007  20.211  0.00  0.00    +0.015 C 
ATOM     23  C   UNL     1     -12.681  -9.788  18.848  0.00  0.00    +0.005 C 
ENDBRANCH  21  22
ENDBRANCH   4  21
ENDBRANCH   6  16
BRANCH   5   7
ATOM      7  C   UNL     1      -8.205  -9.335  16.336  0.00  0.00    +0.026 C 
BRANCH   7  12
ATOM     12  C   UNL     1      -9.686  -9.144  16.680  0.00  0.00    -0.015 C 
ATOM     17  C   UNL     1     -10.533  -9.441  15.440  0.00  0.00    +0.007 C 
ATOM     18  C   UNL     1      -9.995  -7.738  17.193  0.00  0.00    +0.007 C 
ENDBRANCH   7  12
ENDBRANCH   5   7
TORSDOF 5
ENDMDL
MODEL 10
REMARK VINA RESULT:      -5.6     26.968     28.242
REMARK  Name = 51137970
REMARK  8 active torsions:
REMARK  status: ('A' for Active; 'I' for Inactive)
REMARK    1  A    between atoms: N_4  and  C_21
REMARK    2  A    between atoms: C_5  and  C_7
REMARK    3  A    between atoms: C_6  and  C_16
REMARK    4  A    between atoms: C_7  and  C_12
REMARK    5  A    between atoms: C_12  and  C_17
REMARK    6  A    between atoms: C_12  and  C_18
REMARK    7  A    between atoms: C_21  and  C_22
REMARK    8  A    between atoms: C_22  and  C_23
REMARK                            x       y       z     vdW  Elec       q    Type
REMARK                         _______ _______ _______ _____ _____    ______ ____
ROOT
ATOM      2  N   UNL     1      -3.479 -11.361  14.338  0.00  0.00    -0.299 NA
ATOM      3  N   UNL     1      -6.902  -9.042  11.437  0.00  0.00    -0.360 N 
ATOM      5  C   UNL     1      -2.733 -10.831  13.188  0.00  0.00    +0.085 C 
ATOM      6  C   UNL     1      -4.235 -10.365  15.083  0.00  0.00    +0.145 C 
ATOM      8  C   UNL     1      -3.580 -10.235  12.059  0.00  0.00    -0.021 A 
ATOM      9  C   UNL     1      -4.947  -9.852  12.173  0.00  0.00    +0.008 A 
ATOM     10  C   UNL     1      -5.700 -10.332  14.650  0.00  0.00    +0.065 C 
ATOM     11  C   UNL     1      -5.904  -9.868  13.246  0.00  0.00    -0.020 A 
ATOM     13  C   UNL     1      -5.605  -9.304  11.065  0.00  0.00    +0.047 A 
ATOM     14  C   UNL     1      -2.956  -9.962  10.815  0.00  0.00    +0.006 A 
ATOM     15  C   UNL     1      -7.091  -9.372  12.747  0.00  0.00    +0.087 A 
ATOM     19  C   UNL     1      -4.985  -9.086   9.834  0.00  0.00    +0.026 A 
ATOM     20  C   UNL     1      -3.640  -9.414   9.731  0.00  0.00    +0.002 A 
ATOM     24  H   UNL     1      -4.073 -12.141  14.059  0.00  0.00    +0.123 HD
ATOM     25  H   UNL     1      -7.607  -8.646  10.832  0.00  0.00    +0.165 HD
ENDROOT
BRANCH   6  16
ATOM      1  O   UNL     1      -3.100 -11.165  17.024  0.00  0.00    -0.274 OA
ATOM      4  N   UNL     1      -5.391 -10.764  17.142  0.00  0.00    -0.314 N 
ATOM     16  C   UNL     1      -4.157 -10.802  16.514  0.00  0.00    +0.230 C 
ATOM     26  H   UNL     1      -6.207 -10.444  16.630  0.00  0.00    +0.149 HD
BRANCH   4  21
ATOM     21  C   UNL     1      -5.590 -11.158  18.518  0.00  0.00    +0.104 C 
BRANCH  21  22
ATOM     22  C   UNL     1      -6.835 -10.526  19.128  0.00  0.00    +0.015 C 
ATOM     23  C   UNL     1      -7.884 -10.167  18.085  0.00  0.00    +0.005 C 
ENDBRANCH  21  22
ENDBRANCH   4  21
ENDBRANCH   6  16
BRANCH   5   7
ATOM      7  C   UNL     1      -1.862 -12.008  12.714  0.00  0.00    +0.026 C 
BRANCH   7  12
ATOM     12  C   UNL     1      -2.566 -13.362  12.843  0.00  0.00    -0.015 C 
ATOM     17  C   UNL     1      -1.566 -14.404  13.351  0.00  0.00    +0.007 C 
ATOM     18  C   UNL     1      -3.179 -13.835  11.524  0.00  0.00    +0.007 C 
ENDBRANCH   7  12
ENDBRANCH   5   7
TORSDOF 5
ENDMDL
