MODEL 1
REMARK VINA RESULT:      -6.4      0.000      0.000
REMARK  Name = 75536178
REMARK  11 active torsions:
REMARK  status: ('A' for Active; 'I' for Inactive)
REMARK    1  A    between atoms: O_2  and  C_10
REMARK    2  A    between atoms: N_5  and  C_12
REMARK    3  A    between atoms: N_6  and  C_23
REMARK    4  A    between atoms: N_7  and  C_33
REMARK    5  A    between atoms: C_9  and  C_10
REMARK    6  A    between atoms: C_10  and  C_15
REMARK    7  A    between atoms: C_12  and  C_14
REMARK    8  A    between atoms: C_14  and  C_17
REMARK    9  A    between atoms: C_17  and  C_20
REMARK   10  A    between atoms: C_29  and  C_30
REMARK   11  A    between atoms: C_32  and  C_34
REMARK                            x       y       z     vdW  Elec       q    Type
REMARK                         _______ _______ _______ _____ _____    ______ ____
ROOT
ATOM     10  C   UNL     1      11.382   4.329  -1.407  0.00  0.00    +0.167 C 
ENDROOT
BRANCH  10   9
ATOM      1  O   UNL     1      11.266   2.487  -3.688  0.00  0.00    -0.369 OA
ATOM      3  O   UNL     1      13.948   4.579  -4.903  0.00  0.00    -0.273 OA
ATOM      5  N   UNL     1      13.441   3.965  -2.715  0.00  0.00    -0.292 N 
ATOM      9  C   UNL     1      12.474   3.334  -1.808  0.00  0.00    +0.135 C 
ATOM     11  C   UNL     1      11.875   2.095  -2.464  0.00  0.00    +0.185 C 
ATOM     13  C   UNL     1      13.275   3.930  -4.099  0.00  0.00    +0.242 C 
ATOM     16  C   UNL     1      12.231   2.944  -4.609  0.00  0.00    +0.255 C 
BRANCH   5  12
ATOM     12  C   UNL     1      14.486   4.788  -2.121  0.00  0.00    +0.108 C 
BRANCH  12  14
ATOM     14  C   UNL     1      14.947   4.263  -0.763  0.00  0.00    +0.024 C 
BRANCH  14  17
ATOM     17  C   UNL     1      15.687   5.295   0.099  0.00  0.00    +0.036 C 
BRANCH  17  20
ATOM     20  C   UNL     1      14.774   6.172   0.918  0.00  0.00    -0.047 A 
ATOM     24  C   UNL     1      14.803   6.101   2.311  0.00  0.00    +0.003 A 
ATOM     25  C   UNL     1      13.899   7.053   0.282  0.00  0.00    +0.003 A 
ATOM     26  C   UNL     1      13.958   6.912   3.069  0.00  0.00    +0.000 A 
ATOM     27  C   UNL     1      13.054   7.864   1.040  0.00  0.00    +0.000 A 
ATOM     28  C   UNL     1      13.083   7.793   2.433  0.00  0.00    +0.000 A 
ENDBRANCH  17  20
ENDBRANCH  14  17
ENDBRANCH  12  14
ENDBRANCH   5  12
ENDBRANCH  10   9
BRANCH  10  15
ATOM     15  C   UNL     1      11.256   4.448   0.090  0.00  0.00    -0.017 A 
ATOM     18  C   UNL     1      12.064   3.673   0.922  0.00  0.00    +0.008 A 
ATOM     19  C   UNL     1      10.332   5.334   0.645  0.00  0.00    +0.008 A 
ATOM     21  C   UNL     1      11.949   3.783   2.307  0.00  0.00    +0.023 A 
ATOM     22  C   UNL     1      10.216   5.444   2.031  0.00  0.00    +0.023 A 
ATOM     23  C   UNL     1      11.025   4.669   2.862  0.00  0.00    +0.034 A 
BRANCH  23   6
ATOM      4  O   UNL     1      10.510   7.072   4.578  0.00  0.00    -0.268 OA
ATOM      6  N   UNL     1      10.909   4.779   4.248  0.00  0.00    -0.280 N 
ATOM     29  C   UNL     1      10.667   5.933   5.005  0.00  0.00    +0.266 C 
ATOM     36  H   UNL     1      11.022   3.905   4.758  0.00  0.00    +0.155 HD
BRANCH  29  30
ATOM      7  N   UNL     1      11.519   6.070   7.387  0.00  0.00    -0.262 N 
ATOM      8  N   UNL     1      11.188   5.773   8.655  0.00  0.00    -0.176 NA
ATOM     30  C   UNL     1      10.568   5.724   6.472  0.00  0.00    +0.124 A 
ATOM     31  C   UNL     1       9.543   5.161   7.193  0.00  0.00    +0.057 A 
ATOM     32  C   UNL     1       9.979   5.218   8.530  0.00  0.00    +0.061 A 
ATOM     33  C   UNL     1      12.792   6.699   7.119  0.00  0.00    +0.173 C 
ATOM     34  C   UNL     1       9.263   4.747   9.727  0.00  0.00    +0.067 C 
ENDBRANCH  29  30
ENDBRANCH  23   6
ENDBRANCH  10  15
BRANCH  10   2
ATOM      2  O   UNL     1      11.681   5.605  -1.963  0.00  0.00    -0.385 OA
ATOM     35  H   UNL     1      12.257   5.485  -2.736  0.00  0.00    +0.210 HD
ENDBRANCH  10   2
TORSDOF 9
ENDMDL
MODEL 2
REMARK VINA RESULT:      -6.1     24.162     27.283
REMARK  Name = 75536178
REMARK  11 active torsions:
REMARK  status: ('A' for Active; 'I' for Inactive)
REMARK    1  A    between atoms: O_2  and  C_10
REMARK    2  A    between atoms: N_5  and  C_12
REMARK    3  A    between atoms: N_6  and  C_23
REMARK    4  A    between atoms: N_7  and  C_33
REMARK    5  A    between atoms: C_9  and  C_10
REMARK    6  A    between atoms: C_10  and  C_15
REMARK    7  A    between atoms: C_12  and  C_14
REMARK    8  A    between atoms: C_14  and  C_17
REMARK    9  A    between atoms: C_17  and  C_20
REMARK   10  A    between atoms: C_29  and  C_30
REMARK   11  A    between atoms: C_32  and  C_34
REMARK                            x       y       z     vdW  Elec       q    Type
REMARK                         _______ _______ _______ _____ _____    ______ ____
ROOT
ATOM     10  C   UNL     1      -5.724 -11.894  16.001  0.00  0.00    +0.167 C 
ENDROOT
BRANCH  10   9
ATOM      1  O   UNL     1      -6.690 -11.249  18.695  0.00  0.00    -0.369 OA
ATOM      3  O   UNL     1      -3.355 -12.282  19.620  0.00  0.00    -0.273 OA
ATOM      5  N   UNL     1      -4.073 -11.193  17.692  0.00  0.00    -0.292 N 
ATOM      9  C   UNL     1      -5.214 -10.751  16.882  0.00  0.00    +0.135 C 
ATOM     11  C   UNL     1      -6.320 -10.219  17.786  0.00  0.00    +0.185 C 
ATOM     13  C   UNL     1      -4.246 -11.739  18.963  0.00  0.00    +0.242 C 
ATOM     16  C   UNL     1      -5.629 -11.553  19.574  0.00  0.00    +0.255 C 
BRANCH   5  12
ATOM     12  C   UNL     1      -2.762 -11.213  17.056  0.00  0.00    +0.108 C 
BRANCH  12  14
ATOM     14  C   UNL     1      -2.671 -10.261  15.866  0.00  0.00    +0.024 C 
BRANCH  14  17
ATOM     17  C   UNL     1      -1.602 -10.637  14.831  0.00  0.00    +0.036 C 
BRANCH  17  20
ATOM     20  C   UNL     1      -2.167 -11.162  13.535  0.00  0.00    -0.047 A 
ATOM     24  C   UNL     1      -2.407 -10.289  12.473  0.00  0.00    +0.003 A 
ATOM     25  C   UNL     1      -2.451 -12.521  13.398  0.00  0.00    +0.003 A 
ATOM     26  C   UNL     1      -2.930 -10.775  11.275  0.00  0.00    +0.000 A 
ATOM     27  C   UNL     1      -2.974 -13.007  12.200  0.00  0.00    +0.000 A 
ATOM     28  C   UNL     1      -3.214 -12.134  11.138  0.00  0.00    +0.000 A 
ENDBRANCH  17  20
ENDBRANCH  14  17
ENDBRANCH  12  14
ENDBRANCH   5  12
ENDBRANCH  10   9
BRANCH  10  15
ATOM     15  C   UNL     1      -6.002 -11.434  14.592  0.00  0.00    -0.017 A 
ATOM     18  C   UNL     1      -6.383 -12.357  13.619  0.00  0.00    +0.008 A 
ATOM     19  C   UNL     1      -5.881 -10.084  14.263  0.00  0.00    +0.008 A 
ATOM     21  C   UNL     1      -6.641 -11.932  12.316  0.00  0.00    +0.023 A 
ATOM     22  C   UNL     1      -6.140  -9.658  12.959  0.00  0.00    +0.023 A 
ATOM     23  C   UNL     1      -6.520 -10.582  11.986  0.00  0.00    +0.034 A 
BRANCH  23   6
ATOM      4  O   UNL     1      -5.258  -8.389  10.379  0.00  0.00    -0.268 OA
ATOM      6  N   UNL     1      -6.778 -10.156  10.683  0.00  0.00    -0.280 N 
ATOM     29  C   UNL     1      -6.157  -9.119   9.974  0.00  0.00    +0.266 C 
ATOM     36  H   UNL     1      -7.516 -10.668  10.204  0.00  0.00    +0.155 HD
BRANCH  29  30
ATOM      7  N   UNL     1      -6.154  -9.569   7.481  0.00  0.00    -0.262 N 
ATOM      8  N   UNL     1      -6.757  -9.212   6.334  0.00  0.00    -0.176 NA
ATOM     30  C   UNL     1      -6.635  -8.923   8.582  0.00  0.00    +0.124 A 
ATOM     31  C   UNL     1      -7.622  -8.084   8.123  0.00  0.00    +0.057 A 
ATOM     32  C   UNL     1      -7.653  -8.305   6.733  0.00  0.00    +0.061 A 
ATOM     33  C   UNL     1      -5.101 -10.558   7.447  0.00  0.00    +0.173 C 
ATOM     34  C   UNL     1      -8.532  -7.661   5.743  0.00  0.00    +0.067 C 
ENDBRANCH  29  30
ENDBRANCH  23   6
ENDBRANCH  10  15
BRANCH  10   2
ATOM      2  O   UNL     1      -4.757 -12.938  15.977  0.00  0.00    -0.385 OA
ATOM     35  H   UNL     1      -5.208 -13.780  15.795  0.00  0.00    +0.210 HD
ENDBRANCH  10   2
TORSDOF 9
ENDMDL
MODEL 3
REMARK VINA RESULT:      -6.0     24.353     28.776
REMARK  Name = 75536178
REMARK  11 active torsions:
REMARK  status: ('A' for Active; 'I' for Inactive)
REMARK    1  A    between atoms: O_2  and  C_10
REMARK    2  A    between atoms: N_5  and  C_12
REMARK    3  A    between atoms: N_6  and  C_23
REMARK    4  A    between atoms: N_7  and  C_33
REMARK    5  A    between atoms: C_9  and  C_10
REMARK    6  A    between atoms: C_10  and  C_15
REMARK    7  A    between atoms: C_12  and  C_14
REMARK    8  A    between atoms: C_14  and  C_17
REMARK    9  A    between atoms: C_17  and  C_20
REMARK   10  A    between atoms: C_29  and  C_30
REMARK   11  A    between atoms: C_32  and  C_34
REMARK                            x       y       z     vdW  Elec       q    Type
REMARK                         _______ _______ _______ _____ _____    ______ ____
ROOT
ATOM     10  C   UNL     1      -3.448 -10.445  16.354  0.00  0.00    +0.167 C 
ENDROOT
BRANCH  10   9
ATOM      1  O   UNL     1      -1.217 -11.285  14.643  0.00  0.00    -0.369 OA
ATOM      3  O   UNL     1      -3.220 -14.272  14.312  0.00  0.00    -0.273 OA
ATOM      5  N   UNL     1      -3.909 -12.061  14.549  0.00  0.00    -0.292 N 
ATOM      9  C   UNL     1      -3.519 -10.676  14.842  0.00  0.00    +0.135 C 
ATOM     11  C   UNL     1      -2.187 -10.357  14.173  0.00  0.00    +0.185 C 
ATOM     13  C   UNL     1      -2.961 -13.069  14.388  0.00  0.00    +0.242 C 
ATOM     16  C   UNL     1      -1.522 -12.595  14.217  0.00  0.00    +0.255 C 
BRANCH   5  12
ATOM     12  C   UNL     1      -5.327 -12.389  14.611  0.00  0.00    +0.108 C 
BRANCH  12  14
ATOM     14  C   UNL     1      -6.025 -12.242  13.261  0.00  0.00    +0.024 C 
BRANCH  14  17
ATOM     17  C   UNL     1      -6.415 -10.801  12.901  0.00  0.00    +0.036 C 
BRANCH  17  20
ATOM     20  C   UNL     1      -5.550 -10.186  11.829  0.00  0.00    -0.047 A 
ATOM     24  C   UNL     1      -5.753  -8.861  11.444  0.00  0.00    +0.003 A 
ATOM     25  C   UNL     1      -4.547 -10.944  11.223  0.00  0.00    +0.003 A 
ATOM     26  C   UNL     1      -4.953  -8.293  10.452  0.00  0.00    +0.000 A 
ATOM     27  C   UNL     1      -3.748 -10.376  10.231  0.00  0.00    +0.000 A 
ATOM     28  C   UNL     1      -3.951  -9.050   9.845  0.00  0.00    +0.000 A 
ENDBRANCH  17  20
ENDBRANCH  14  17
ENDBRANCH  12  14
ENDBRANCH   5  12
ENDBRANCH  10   9
BRANCH  10  15
ATOM     15  C   UNL     1      -4.818 -10.412  16.980  0.00  0.00    -0.017 A 
ATOM     18  C   UNL     1      -5.823  -9.623  16.419  0.00  0.00    +0.008 A 
ATOM     19  C   UNL     1      -5.084 -11.170  18.121  0.00  0.00    +0.008 A 
ATOM     21  C   UNL     1      -7.091  -9.591  16.997  0.00  0.00    +0.023 A 
ATOM     22  C   UNL     1      -6.353 -11.139  18.699  0.00  0.00    +0.023 A 
ATOM     23  C   UNL     1      -7.356 -10.349  18.137  0.00  0.00    +0.034 A 
BRANCH  23   6
ATOM      4  O   UNL     1      -9.950 -11.506  17.181  0.00  0.00    -0.268 OA
ATOM      6  N   UNL     1      -8.626 -10.318  18.716  0.00  0.00    -0.280 N 
ATOM     29  C   UNL     1      -9.812 -10.878  18.225  0.00  0.00    +0.266 C 
ATOM     36  H   UNL     1      -8.680  -9.819  19.601  0.00  0.00    +0.155 HD
BRANCH  29  30
ATOM      7  N   UNL     1     -11.370 -11.522  20.116  0.00  0.00    -0.262 N 
ATOM      8  N   UNL     1     -12.495 -11.143  20.745  0.00  0.00    -0.176 NA
ATOM     30  C   UNL     1     -11.007 -10.701  19.090  0.00  0.00    +0.124 A 
ATOM     31  C   UNL     1     -11.962  -9.714  19.044  0.00  0.00    +0.057 A 
ATOM     32  C   UNL     1     -12.852 -10.037  20.086  0.00  0.00    +0.061 A 
ATOM     33  C   UNL     1     -10.679 -12.711  20.562  0.00  0.00    +0.173 C 
ATOM     34  C   UNL     1     -14.067  -9.307  20.485  0.00  0.00    +0.067 C 
ENDBRANCH  29  30
ENDBRANCH  23   6
ENDBRANCH  10  15
BRANCH  10   2
ATOM      2  O   UNL     1      -2.676 -11.481  16.953  0.00  0.00    -0.385 OA
ATOM     35  H   UNL     1      -3.199 -11.893  17.661  0.00  0.00    +0.210 HD
ENDBRANCH  10   2
TORSDOF 9
ENDMDL
MODEL 4
REMARK VINA RESULT:      -5.9     23.424     26.567
REMARK  Name = 75536178
REMARK  11 active torsions:
REMARK  status: ('A' for Active; 'I' for Inactive)
REMARK    1  A    between atoms: O_2  and  C_10
REMARK    2  A    between atoms: N_5  and  C_12
REMARK    3  A    between atoms: N_6  and  C_23
REMARK    4  A    between atoms: N_7  and  C_33
REMARK    5  A    between atoms: C_9  and  C_10
REMARK    6  A    between atoms: C_10  and  C_15
REMARK    7  A    between atoms: C_12  and  C_14
REMARK    8  A    between atoms: C_14  and  C_17
REMARK    9  A    between atoms: C_17  and  C_20
REMARK   10  A    between atoms: C_29  and  C_30
REMARK   11  A    between atoms: C_32  and  C_34
REMARK                            x       y       z     vdW  Elec       q    Type
REMARK                         _______ _______ _______ _____ _____    ______ ____
ROOT
ATOM     10  C   UNL     1      -2.342 -11.140  11.541  0.00  0.00    +0.167 C 
ENDROOT
BRANCH  10   9
ATOM      1  O   UNL     1      -1.130 -12.944  13.513  0.00  0.00    -0.369 OA
ATOM      3  O   UNL     1      -2.393 -10.481  15.833  0.00  0.00    -0.273 OA
ATOM      5  N   UNL     1      -3.301 -11.195  13.812  0.00  0.00    -0.292 N 
ATOM      9  C   UNL     1      -3.103 -11.968  12.580  0.00  0.00    +0.135 C 
ATOM     11  C   UNL     1      -2.369 -13.267  12.892  0.00  0.00    +0.185 C 
ATOM     13  C   UNL     1      -2.376 -11.230  14.853  0.00  0.00    +0.242 C 
ATOM     16  C   UNL     1      -1.338 -12.343  14.771  0.00  0.00    +0.255 C 
BRANCH   5  12
ATOM     12  C   UNL     1      -4.405 -10.244  13.841  0.00  0.00    +0.108 C 
BRANCH  12  14
ATOM     14  C   UNL     1      -5.539 -10.688  14.761  0.00  0.00    +0.024 C 
BRANCH  14  17
ATOM     17  C   UNL     1      -5.877  -9.693  15.879  0.00  0.00    +0.036 C 
BRANCH  17  20
ATOM     20  C   UNL     1      -5.881 -10.304  17.258  0.00  0.00    -0.047 A 
ATOM     24  C   UNL     1      -4.794 -11.065  17.687  0.00  0.00    +0.003 A 
ATOM     25  C   UNL     1      -6.973 -10.109  18.104  0.00  0.00    +0.003 A 
ATOM     26  C   UNL     1      -4.798 -11.631  18.962  0.00  0.00    +0.000 A 
ATOM     27  C   UNL     1      -6.977 -10.674  19.379  0.00  0.00    +0.000 A 
ATOM     28  C   UNL     1      -5.890 -11.436  19.808  0.00  0.00    +0.000 A 
ENDBRANCH  17  20
ENDBRANCH  14  17
ENDBRANCH  12  14
ENDBRANCH   5  12
ENDBRANCH  10   9
BRANCH  10  15
ATOM     15  C   UNL     1      -3.250 -10.648  10.443  0.00  0.00    -0.017 A 
ATOM     18  C   UNL     1      -3.359  -9.281  10.188  0.00  0.00    +0.008 A 
ATOM     19  C   UNL     1      -3.981 -11.560   9.681  0.00  0.00    +0.008 A 
ATOM     21  C   UNL     1      -4.199  -8.826   9.172  0.00  0.00    +0.023 A 
ATOM     22  C   UNL     1      -4.822 -11.104   8.664  0.00  0.00    +0.023 A 
ATOM     23  C   UNL     1      -4.931  -9.737   8.410  0.00  0.00    +0.034 A 
BRANCH  23   6
ATOM      4  O   UNL     1      -7.922  -9.596   8.287  0.00  0.00    -0.268 OA
ATOM      6  N   UNL     1      -5.771  -9.281   7.394  0.00  0.00    -0.280 N 
ATOM     29  C   UNL     1      -7.171  -9.237   7.386  0.00  0.00    +0.266 C 
ATOM     36  H   UNL     1      -5.292  -8.949   6.560  0.00  0.00    +0.155 HD
BRANCH  29  30
ATOM      7  N   UNL     1      -8.539  -7.532   6.106  0.00  0.00    -0.262 N 
ATOM      8  N   UNL     1      -8.979  -7.229   4.873  0.00  0.00    -0.176 NA
ATOM     30  C   UNL     1      -7.784  -8.667   6.159  0.00  0.00    +0.124 A 
ATOM     31  C   UNL     1      -7.726  -9.140   4.871  0.00  0.00    +0.057 A 
ATOM     32  C   UNL     1      -8.479  -8.215   4.122  0.00  0.00    +0.061 A 
ATOM     33  C   UNL     1      -8.889  -6.670   7.211  0.00  0.00    +0.173 C 
ATOM     34  C   UNL     1      -8.746  -8.240   2.674  0.00  0.00    +0.067 C 
ENDBRANCH  29  30
ENDBRANCH  23   6
ENDBRANCH  10  15
BRANCH  10   2
ATOM      2  O   UNL     1      -1.726 -10.029  12.182  0.00  0.00    -0.385 OA
ATOM     35  H   UNL     1      -1.592  -9.323  11.527  0.00  0.00    +0.210 HD
ENDBRANCH  10   2
TORSDOF 9
ENDMDL
MODEL 5
REMARK VINA RESULT:      -5.7      4.219      8.680
REMARK  Name = 75536178
REMARK  11 active torsions:
REMARK  status: ('A' for Active; 'I' for Inactive)
REMARK    1  A    between atoms: O_2  and  C_10
REMARK    2  A    between atoms: N_5  and  C_12
REMARK    3  A    between atoms: N_6  and  C_23
REMARK    4  A    between atoms: N_7  and  C_33
REMARK    5  A    between atoms: C_9  and  C_10
REMARK    6  A    between atoms: C_10  and  C_15
REMARK    7  A    between atoms: C_12  and  C_14
REMARK    8  A    between atoms: C_14  and  C_17
REMARK    9  A    between atoms: C_17  and  C_20
REMARK   10  A    between atoms: C_29  and  C_30
REMARK   11  A    between atoms: C_32  and  C_34
REMARK                            x       y       z     vdW  Elec       q    Type
REMARK                         _______ _______ _______ _____ _____    ______ ____
ROOT
ATOM     10  C   UNL     1      11.855   7.745   5.722  0.00  0.00    +0.167 C 
ENDROOT
BRANCH  10   9
ATOM      1  O   UNL     1      10.186   7.093   8.046  0.00  0.00    -0.369 OA
ATOM      3  O   UNL     1       7.682   6.562   5.497  0.00  0.00    -0.273 OA
ATOM      5  N   UNL     1       9.977   6.179   5.403  0.00  0.00    -0.292 N 
ATOM      9  C   UNL     1      11.281   6.364   6.050  0.00  0.00    +0.135 C 
ATOM     11  C   UNL     1      11.149   6.167   7.556  0.00  0.00    +0.185 C 
ATOM     13  C   UNL     1       8.788   6.530   6.041  0.00  0.00    +0.242 C 
ATOM     16  C   UNL     1       8.903   6.804   7.536  0.00  0.00    +0.255 C 
BRANCH   5  12
ATOM     12  C   UNL     1       9.970   5.788   4.000  0.00  0.00    +0.108 C 
BRANCH  12  14
ATOM     14  C   UNL     1      10.926   4.635   3.705  0.00  0.00    +0.024 C 
BRANCH  14  17
ATOM     17  C   UNL     1      10.975   4.211   2.231  0.00  0.00    +0.036 C 
BRANCH  17  20
ATOM     20  C   UNL     1      12.329   4.388   1.591  0.00  0.00    -0.047 A 
ATOM     24  C   UNL     1      12.593   5.518   0.817  0.00  0.00    +0.003 A 
ATOM     25  C   UNL     1      13.317   3.420   1.771  0.00  0.00    +0.003 A 
ATOM     26  C   UNL     1      13.845   5.682   0.225  0.00  0.00    +0.000 A 
ATOM     27  C   UNL     1      14.569   3.583   1.179  0.00  0.00    +0.000 A 
ATOM     28  C   UNL     1      14.833   4.713   0.405  0.00  0.00    +0.000 A 
ENDBRANCH  17  20
ENDBRANCH  14  17
ENDBRANCH  12  14
ENDBRANCH   5  12
ENDBRANCH  10   9
BRANCH  10  15
ATOM     15  C   UNL     1      13.276   7.657   5.227  0.00  0.00    -0.017 A 
ATOM     18  C   UNL     1      14.335   7.921   6.096  0.00  0.00    +0.008 A 
ATOM     19  C   UNL     1      13.533   7.311   3.900  0.00  0.00    +0.008 A 
ATOM     21  C   UNL     1      15.650   7.839   5.638  0.00  0.00    +0.023 A 
ATOM     22  C   UNL     1      14.849   7.229   3.442  0.00  0.00    +0.023 A 
ATOM     23  C   UNL     1      15.907   7.493   4.312  0.00  0.00    +0.034 A 
BRANCH  23   6
ATOM      4  O   UNL     1      17.805   9.656   3.476  0.00  0.00    -0.268 OA
ATOM      6  N   UNL     1      17.223   7.411   3.854  0.00  0.00    -0.280 N 
ATOM     29  C   UNL     1      18.071   8.459   3.474  0.00  0.00    +0.266 C 
ATOM     36  H   UNL     1      17.594   6.466   3.789  0.00  0.00    +0.155 HD
BRANCH  29  30
ATOM      7  N   UNL     1      20.472   7.769   3.896  0.00  0.00    -0.262 N 
ATOM      8  N   UNL     1      21.608   7.426   3.266  0.00  0.00    -0.176 NA
ATOM     30  C   UNL     1      19.437   8.053   3.054  0.00  0.00    +0.124 A 
ATOM     31  C   UNL     1      19.931   7.884   1.783  0.00  0.00    +0.057 A 
ATOM     32  C   UNL     1      21.271   7.498   1.975  0.00  0.00    +0.061 A 
ATOM     33  C   UNL     1      20.450   7.805   5.341  0.00  0.00    +0.173 C 
ATOM     34  C   UNL     1      22.271   7.187   0.940  0.00  0.00    +0.067 C 
ENDBRANCH  29  30
ENDBRANCH  23   6
ENDBRANCH  10  15
BRANCH  10   2
ATOM      2  O   UNL     1      11.044   8.369   4.733  0.00  0.00    -0.385 OA
ATOM     35  H   UNL     1      10.704   7.688   4.129  0.00  0.00    +0.210 HD
ENDBRANCH  10   2
TORSDOF 9
ENDMDL
MODEL 6
REMARK VINA RESULT:      -5.7      2.035      2.973
REMARK  Name = 75536178
REMARK  11 active torsions:
REMARK  status: ('A' for Active; 'I' for Inactive)
REMARK    1  A    between atoms: O_2  and  C_10
REMARK    2  A    between atoms: N_5  and  C_12
REMARK    3  A    between atoms: N_6  and  C_23
REMARK    4  A    between atoms: N_7  and  C_33
REMARK    5  A    between atoms: C_9  and  C_10
REMARK    6  A    between atoms: C_10  and  C_15
REMARK    7  A    between atoms: C_12  and  C_14
REMARK    8  A    between atoms: C_14  and  C_17
REMARK    9  A    between atoms: C_17  and  C_20
REMARK   10  A    between atoms: C_29  and  C_30
REMARK   11  A    between atoms: C_32  and  C_34
REMARK                            x       y       z     vdW  Elec       q    Type
REMARK                         _______ _______ _______ _____ _____    ______ ____
ROOT
ATOM     10  C   UNL     1      10.405   6.316  -2.348  0.00  0.00    +0.167 C 
ENDROOT
BRANCH  10   9
ATOM      1  O   UNL     1       8.500   6.571  -4.565  0.00  0.00    -0.369 OA
ATOM      3  O   UNL     1      11.056   4.741  -6.343  0.00  0.00    -0.273 OA
ATOM      5  N   UNL     1      10.428   4.588  -4.107  0.00  0.00    -0.292 N 
ATOM      9  C   UNL     1       9.643   5.164  -3.008  0.00  0.00    +0.135 C 
ATOM     11  C   UNL     1       8.286   5.626  -3.523  0.00  0.00    +0.185 C 
ATOM     13  C   UNL     1      10.311   5.059  -5.413  0.00  0.00    +0.242 C 
ATOM     16  C   UNL     1       9.114   5.963  -5.680  0.00  0.00    +0.255 C 
BRANCH   5  12
ATOM     12  C   UNL     1      11.469   3.629  -3.761  0.00  0.00    +0.108 C 
BRANCH  12  14
ATOM     14  C   UNL     1      11.207   2.930  -2.430  0.00  0.00    +0.024 C 
BRANCH  14  17
ATOM     17  C   UNL     1      12.459   2.347  -1.761  0.00  0.00    +0.036 C 
BRANCH  17  20
ATOM     20  C   UNL     1      13.008   3.202  -0.647  0.00  0.00    -0.047 A 
ATOM     24  C   UNL     1      12.793   2.839   0.683  0.00  0.00    +0.003 A 
ATOM     25  C   UNL     1      13.731   4.357  -0.946  0.00  0.00    +0.003 A 
ATOM     26  C   UNL     1      13.300   3.630   1.713  0.00  0.00    +0.000 A 
ATOM     27  C   UNL     1      14.238   5.149   0.084  0.00  0.00    +0.000 A 
ATOM     28  C   UNL     1      14.023   4.786   1.414  0.00  0.00    +0.000 A 
ENDBRANCH  17  20
ENDBRANCH  14  17
ENDBRANCH  12  14
ENDBRANCH   5  12
ENDBRANCH  10   9
BRANCH  10  15
ATOM     15  C   UNL     1      10.440   6.178  -0.848  0.00  0.00    -0.017 A 
ATOM     18  C   UNL     1       9.815   5.092  -0.233  0.00  0.00    +0.008 A 
ATOM     19  C   UNL     1      11.096   7.134  -0.073  0.00  0.00    +0.008 A 
ATOM     21  C   UNL     1       9.847   4.963   1.155  0.00  0.00    +0.023 A 
ATOM     22  C   UNL     1      11.129   7.005   1.316  0.00  0.00    +0.023 A 
ATOM     23  C   UNL     1      10.504   5.919   1.930  0.00  0.00    +0.034 A 
BRANCH  23   6
ATOM      4  O   UNL     1       8.929   7.344   4.045  0.00  0.00    -0.268 OA
ATOM      6  N   UNL     1      10.536   5.790   3.319  0.00  0.00    -0.280 N 
ATOM     29  C   UNL     1       9.775   6.484   4.268  0.00  0.00    +0.266 C 
ATOM     36  H   UNL     1      11.204   5.107   3.669  0.00  0.00    +0.155 HD
BRANCH  29  30
ATOM      7  N   UNL     1      10.880   6.726   6.535  0.00  0.00    -0.262 N 
ATOM      8  N   UNL     1      10.917   6.186   7.764  0.00  0.00    -0.176 NA
ATOM     30  C   UNL     1      10.017   6.102   5.683  0.00  0.00    +0.124 A 
ATOM     31  C   UNL     1       9.449   5.081   6.406  0.00  0.00    +0.057 A 
ATOM     32  C   UNL     1      10.041   5.182   7.680  0.00  0.00    +0.061 A 
ATOM     33  C   UNL     1      11.719   7.866   6.239  0.00  0.00    +0.173 C 
ATOM     34  C   UNL     1       9.792   4.327   8.853  0.00  0.00    +0.067 C 
ENDBRANCH  29  30
ENDBRANCH  23   6
ENDBRANCH  10  15
BRANCH  10   2
ATOM      2  O   UNL     1      11.736   6.352  -2.854  0.00  0.00    -0.385 OA
ATOM     35  H   UNL     1      12.326   6.692  -2.160  0.00  0.00    +0.210 HD
ENDBRANCH  10   2
TORSDOF 9
ENDMDL
MODEL 7
REMARK VINA RESULT:      -5.7     24.213     26.971
REMARK  Name = 75536178
REMARK  11 active torsions:
REMARK  status: ('A' for Active; 'I' for Inactive)
REMARK    1  A    between atoms: O_2  and  C_10
REMARK    2  A    between atoms: N_5  and  C_12
REMARK    3  A    between atoms: N_6  and  C_23
REMARK    4  A    between atoms: N_7  and  C_33
REMARK    5  A    between atoms: C_9  and  C_10
REMARK    6  A    between atoms: C_10  and  C_15
REMARK    7  A    between atoms: C_12  and  C_14
REMARK    8  A    between atoms: C_14  and  C_17
REMARK    9  A    between atoms: C_17  and  C_20
REMARK   10  A    between atoms: C_29  and  C_30
REMARK   11  A    between atoms: C_32  and  C_34
REMARK                            x       y       z     vdW  Elec       q    Type
REMARK                         _______ _______ _______ _____ _____    ______ ____
ROOT
ATOM     10  C   UNL     1      19.038  -4.955  27.224  0.00  0.00    +0.167 C 
ENDROOT
BRANCH  10   9
ATOM      1  O   UNL     1      20.055  -7.634  27.857  0.00  0.00    -0.369 OA
ATOM      3  O   UNL     1      16.827  -8.639  26.587  0.00  0.00    -0.273 OA
ATOM      5  N   UNL     1      18.178  -6.864  25.921  0.00  0.00    -0.292 N 
ATOM      9  C   UNL     1      19.366  -6.050  26.205  0.00  0.00    +0.135 C 
ATOM     11  C   UNL     1      20.502  -6.938  26.699  0.00  0.00    +0.185 C 
ATOM     13  C   UNL     1      17.885  -8.011  26.658  0.00  0.00    +0.242 C 
ATOM     16  C   UNL     1      19.016  -8.532  27.537  0.00  0.00    +0.255 C 
BRANCH   5  12
ATOM     12  C   UNL     1      17.213  -6.339  24.964  0.00  0.00    +0.108 C 
BRANCH  12  14
ATOM     14  C   UNL     1      17.879  -5.668  23.765  0.00  0.00    +0.024 C 
BRANCH  14  17
ATOM     17  C   UNL     1      16.977  -4.686  23.005  0.00  0.00    +0.036 C 
BRANCH  17  20
ATOM     20  C   UNL     1      17.057  -3.268  23.511  0.00  0.00    -0.047 A 
ATOM     24  C   UNL     1      17.649  -2.278  22.726  0.00  0.00    +0.003 A 
ATOM     25  C   UNL     1      16.541  -2.947  24.767  0.00  0.00    +0.003 A 
ATOM     26  C   UNL     1      17.723  -0.967  23.195  0.00  0.00    +0.000 A 
ATOM     27  C   UNL     1      16.615  -1.635  25.236  0.00  0.00    +0.000 A 
ATOM     28  C   UNL     1      17.206  -0.645  24.451  0.00  0.00    +0.000 A 
ENDBRANCH  17  20
ENDBRANCH  14  17
ENDBRANCH  12  14
ENDBRANCH   5  12
ENDBRANCH  10   9
BRANCH  10  15
ATOM     15  C   UNL     1      19.574  -3.613  26.796  0.00  0.00    -0.017 A 
ATOM     18  C   UNL     1      20.106  -3.450  25.516  0.00  0.00    +0.008 A 
ATOM     19  C   UNL     1      19.539  -2.533  27.678  0.00  0.00    +0.008 A 
ATOM     21  C   UNL     1      20.602  -2.209  25.119  0.00  0.00    +0.023 A 
ATOM     22  C   UNL     1      20.035  -1.291  27.281  0.00  0.00    +0.023 A 
ATOM     23  C   UNL     1      20.567  -1.129  26.001  0.00  0.00    +0.034 A 
BRANCH  23   6
ATOM      4  O   UNL     1      23.386  -0.234  25.518  0.00  0.00    -0.268 OA
ATOM      6  N   UNL     1      21.063   0.113  25.604  0.00  0.00    -0.280 N 
ATOM     29  C   UNL     1      22.398   0.481  25.392  0.00  0.00    +0.266 C 
ATOM     36  H   UNL     1      20.355   0.830  25.461  0.00  0.00    +0.155 HD
BRANCH  29  30
ATOM      7  N   UNL     1      22.898   2.939  25.753  0.00  0.00    -0.262 N 
ATOM      8  N   UNL     1      23.042   4.103  25.099  0.00  0.00    -0.176 NA
ATOM     30  C   UNL     1      22.609   1.881  24.941  0.00  0.00    +0.124 A 
ATOM     31  C   UNL     1      22.561   2.390  23.666  0.00  0.00    +0.057 A 
ATOM     32  C   UNL     1      22.835   3.762  23.824  0.00  0.00    +0.061 A 
ATOM     33  C   UNL     1      23.053   2.912  27.190  0.00  0.00    +0.173 C 
ATOM     34  C   UNL     1      22.908   4.788  22.770  0.00  0.00    +0.067 C 
ENDBRANCH  29  30
ENDBRANCH  23   6
ENDBRANCH  10  15
BRANCH  10   2
ATOM      2  O   UNL     1      17.626  -4.872  27.389  0.00  0.00    -0.385 OA
ATOM     35  H   UNL     1      17.364  -5.436  28.136  0.00  0.00    +0.210 HD
ENDBRANCH  10   2
TORSDOF 9
ENDMDL
MODEL 8
REMARK VINA RESULT:      -5.6     25.766     31.181
REMARK  Name = 75536178
REMARK  11 active torsions:
REMARK  status: ('A' for Active; 'I' for Inactive)
REMARK    1  A    between atoms: O_2  and  C_10
REMARK    2  A    between atoms: N_5  and  C_12
REMARK    3  A    between atoms: N_6  and  C_23
REMARK    4  A    between atoms: N_7  and  C_33
REMARK    5  A    between atoms: C_9  and  C_10
REMARK    6  A    between atoms: C_10  and  C_15
REMARK    7  A    between atoms: C_12  and  C_14
REMARK    8  A    between atoms: C_14  and  C_17
REMARK    9  A    between atoms: C_17  and  C_20
REMARK   10  A    between atoms: C_29  and  C_30
REMARK   11  A    between atoms: C_32  and  C_34
REMARK                            x       y       z     vdW  Elec       q    Type
REMARK                         _______ _______ _______ _____ _____    ______ ____
ROOT
ATOM     10  C   UNL     1      -9.608 -11.433  19.843  0.00  0.00    +0.167 C 
ENDROOT
BRANCH  10   9
ATOM      1  O   UNL     1     -11.922 -12.708  21.120  0.00  0.00    -0.369 OA
ATOM      3  O   UNL     1     -13.372  -9.431  20.670  0.00  0.00    -0.273 OA
ATOM      5  N   UNL     1     -11.854 -10.563  19.316  0.00  0.00    -0.292 N 
ATOM      9  C   UNL     1     -10.955 -11.714  19.173  0.00  0.00    +0.135 C 
ATOM     11  C   UNL     1     -11.609 -12.962  19.755  0.00  0.00    +0.185 C 
ATOM     13  C   UNL     1     -12.721 -10.443  20.401  0.00  0.00    +0.242 C 
ATOM     16  C   UNL     1     -12.907 -11.705  21.234  0.00  0.00    +0.255 C 
BRANCH   5  12
ATOM     12  C   UNL     1     -11.684  -9.455  18.385  0.00  0.00    +0.108 C 
BRANCH  12  14
ATOM     14  C   UNL     1     -12.499  -9.631  17.106  0.00  0.00    +0.024 C 
BRANCH  14  17
ATOM     17  C   UNL     1     -13.554  -8.542  16.870  0.00  0.00    +0.036 C 
BRANCH  17  20
ATOM     20  C   UNL     1     -13.089  -7.429  15.965  0.00  0.00    -0.047 A 
ATOM     24  C   UNL     1     -11.776  -6.965  16.047  0.00  0.00    +0.003 A 
ATOM     25  C   UNL     1     -13.973  -6.863  15.045  0.00  0.00    +0.003 A 
ATOM     26  C   UNL     1     -11.346  -5.935  15.210  0.00  0.00    +0.000 A 
ATOM     27  C   UNL     1     -13.543  -5.833  14.208  0.00  0.00    +0.000 A 
ATOM     28  C   UNL     1     -12.230  -5.368  14.291  0.00  0.00    +0.000 A 
ENDBRANCH  17  20
ENDBRANCH  14  17
ENDBRANCH  12  14
ENDBRANCH   5  12
ENDBRANCH  10   9
BRANCH  10  15
ATOM     15  C   UNL     1      -8.513 -11.215  18.830  0.00  0.00    -0.017 A 
ATOM     18  C   UNL     1      -8.751 -11.474  17.480  0.00  0.00    +0.008 A 
ATOM     19  C   UNL     1      -7.263 -10.753  19.241  0.00  0.00    +0.008 A 
ATOM     21  C   UNL     1      -7.739 -11.272  16.542  0.00  0.00    +0.023 A 
ATOM     22  C   UNL     1      -6.250 -10.551  18.302  0.00  0.00    +0.023 A 
ATOM     23  C   UNL     1      -6.489 -10.810  16.953  0.00  0.00    +0.034 A 
BRANCH  23   6
ATOM      4  O   UNL     1      -4.545 -12.750  15.752  0.00  0.00    -0.268 OA
ATOM      6  N   UNL     1      -5.476 -10.608  16.014  0.00  0.00    -0.280 N 
ATOM     29  C   UNL     1      -4.590 -11.554  15.483  0.00  0.00    +0.266 C 
ATOM     36  H   UNL     1      -5.380  -9.648  15.690  0.00  0.00    +0.155 HD
BRANCH  29  30
ATOM      7  N   UNL     1      -2.365 -10.606  14.730  0.00  0.00    -0.262 N 
ATOM      8  N   UNL     1      -1.702 -10.182  13.641  0.00  0.00    -0.176 NA
ATOM     30  C   UNL     1      -3.634 -11.034  14.472  0.00  0.00    +0.124 A 
ATOM     31  C   UNL     1      -3.814 -10.879  13.119  0.00  0.00    +0.057 A 
ATOM     32  C   UNL     1      -2.592 -10.351  12.659  0.00  0.00    +0.061 A 
ATOM     33  C   UNL     1      -1.705 -10.571  16.015  0.00  0.00    +0.173 C 
ATOM     34  C   UNL     1      -2.235  -9.992  11.276  0.00  0.00    +0.067 C 
ENDBRANCH  29  30
ENDBRANCH  23   6
ENDBRANCH  10  15
BRANCH  10   2
ATOM      2  O   UNL     1      -9.725 -10.282  20.672  0.00  0.00    -0.385 OA
ATOM     35  H   UNL     1     -10.668 -10.079  20.797  0.00  0.00    +0.210 HD
ENDBRANCH  10   2
TORSDOF 9
ENDMDL
MODEL 9
REMARK VINA RESULT:      -5.6      2.716      4.314
REMARK  Name = 75536178
REMARK  11 active torsions:
REMARK  status: ('A' for Active; 'I' for Inactive)
REMARK    1  A    between atoms: O_2  and  C_10
REMARK    2  A    between atoms: N_5  and  C_12
REMARK    3  A    between atoms: N_6  and  C_23
REMARK    4  A    between atoms: N_7  and  C_33
REMARK    5  A    between atoms: C_9  and  C_10
REMARK    6  A    between atoms: C_10  and  C_15
REMARK    7  A    between atoms: C_12  and  C_14
REMARK    8  A    between atoms: C_14  and  C_17
REMARK    9  A    between atoms: C_17  and  C_20
REMARK   10  A    between atoms: C_29  and  C_30
REMARK   11  A    between atoms: C_32  and  C_34
REMARK                            x       y       z     vdW  Elec       q    Type
REMARK                         _______ _______ _______ _____ _____    ______ ____
ROOT
ATOM     10  C   UNL     1      16.273   7.438   0.135  0.00  0.00    +0.167 C 
ENDROOT
BRANCH  10   9
ATOM      1  O   UNL     1      17.351   7.978  -2.541  0.00  0.00    -0.369 OA
ATOM      3  O   UNL     1      18.721   4.661  -2.136  0.00  0.00    -0.273 OA
ATOM      5  N   UNL     1      16.704   5.521  -1.355  0.00  0.00    -0.292 N 
ATOM      9  C   UNL     1      15.872   6.714  -1.153  0.00  0.00    +0.135 C 
ATOM     11  C   UNL     1      15.982   7.637  -2.361  0.00  0.00    +0.185 C 
ATOM     13  C   UNL     1      17.897   5.576  -2.074  0.00  0.00    +0.242 C 
ATOM     16  C   UNL     1      18.113   6.844  -2.891  0.00  0.00    +0.255 C 
BRANCH   5  12
ATOM     12  C   UNL     1      16.339   4.313  -0.627  0.00  0.00    +0.108 C 
BRANCH  12  14
ATOM     14  C   UNL     1      14.839   4.035  -0.663  0.00  0.00    +0.024 C 
BRANCH  14  17
ATOM     17  C   UNL     1      14.238   3.611   0.684  0.00  0.00    +0.036 C 
BRANCH  17  20
ATOM     20  C   UNL     1      12.781   3.966   0.841  0.00  0.00    -0.047 A 
ATOM     24  C   UNL     1      12.086   4.543  -0.222  0.00  0.00    +0.003 A 
ATOM     25  C   UNL     1      12.129   3.717   2.049  0.00  0.00    +0.003 A 
ATOM     26  C   UNL     1      10.738   4.872  -0.076  0.00  0.00    +0.000 A 
ATOM     27  C   UNL     1      10.781   4.046   2.194  0.00  0.00    +0.000 A 
ATOM     28  C   UNL     1      10.086   4.624   1.132  0.00  0.00    +0.000 A 
ENDBRANCH  17  20
ENDBRANCH  14  17
ENDBRANCH  12  14
ENDBRANCH   5  12
ENDBRANCH  10   9
BRANCH  10  15
ATOM     15  C   UNL     1      15.258   7.235   1.231  0.00  0.00    -0.017 A 
ATOM     18  C   UNL     1      15.657   6.715   2.463  0.00  0.00    +0.008 A 
ATOM     19  C   UNL     1      13.921   7.566   1.014  0.00  0.00    +0.008 A 
ATOM     21  C   UNL     1      14.718   6.527   3.477  0.00  0.00    +0.023 A 
ATOM     22  C   UNL     1      12.982   7.378   2.029  0.00  0.00    +0.023 A 
ATOM     23  C   UNL     1      13.381   6.859   3.260  0.00  0.00    +0.034 A 
BRANCH  23   6
ATOM      4  O   UNL     1      12.442   8.734   5.401  0.00  0.00    -0.268 OA
ATOM      6  N   UNL     1      12.442   6.671   4.275  0.00  0.00    -0.280 N 
ATOM     29  C   UNL     1      12.037   7.586   5.256  0.00  0.00    +0.266 C 
ATOM     36  H   UNL     1      12.012   5.749   4.294  0.00  0.00    +0.155 HD
BRANCH  29  30
ATOM      7  N   UNL     1       9.655   7.365   6.092  0.00  0.00    -0.262 N 
ATOM      8  N   UNL     1       8.915   6.805   7.063  0.00  0.00    -0.176 NA
ATOM     30  C   UNL     1      10.989   7.097   6.189  0.00  0.00    +0.124 A 
ATOM     31  C   UNL     1      11.132   6.305   7.303  0.00  0.00    +0.057 A 
ATOM     32  C   UNL     1       9.822   6.158   7.800  0.00  0.00    +0.061 A 
ATOM     33  C   UNL     1       9.003   8.164   5.079  0.00  0.00    +0.173 C 
ATOM     34  C   UNL     1       9.395   5.401   8.988  0.00  0.00    +0.067 C 
ENDBRANCH  29  30
ENDBRANCH  23   6
ENDBRANCH  10  15
BRANCH  10   2
ATOM      2  O   UNL     1      17.543   6.962   0.568  0.00  0.00    -0.385 OA
ATOM     35  H   UNL     1      17.438   6.060   0.916  0.00  0.00    +0.210 HD
ENDBRANCH  10   2
TORSDOF 9
ENDMDL
MODEL 10
REMARK VINA RESULT:      -5.6     26.239     31.075
REMARK  Name = 75536178
REMARK  11 active torsions:
REMARK  status: ('A' for Active; 'I' for Inactive)
REMARK    1  A    between atoms: O_2  and  C_10
REMARK    2  A    between atoms: N_5  and  C_12
REMARK    3  A    between atoms: N_6  and  C_23
REMARK    4  A    between atoms: N_7  and  C_33
REMARK    5  A    between atoms: C_9  and  C_10
REMARK    6  A    between atoms: C_10  and  C_15
REMARK    7  A    between atoms: C_12  and  C_14
REMARK    8  A    between atoms: C_14  and  C_17
REMARK    9  A    between atoms: C_17  and  C_20
REMARK   10  A    between atoms: C_29  and  C_30
REMARK   11  A    between atoms: C_32  and  C_34
REMARK                            x       y       z     vdW  Elec       q    Type
REMARK                         _______ _______ _______ _____ _____    ______ ____
ROOT
ATOM     10  C   UNL     1      -6.011 -10.232  15.396  0.00  0.00    +0.167 C 
ENDROOT
BRANCH  10   9
ATOM      1  O   UNL     1      -4.012 -11.335  13.552  0.00  0.00    -0.369 OA
ATOM      3  O   UNL     1      -1.780 -10.613  16.298  0.00  0.00    -0.273 OA
ATOM      5  N   UNL     1      -4.004 -11.296  16.356  0.00  0.00    -0.292 N 
ATOM      9  C   UNL     1      -5.236 -11.538  15.595  0.00  0.00    +0.135 C 
ATOM     11  C   UNL     1      -4.904 -12.189  14.257  0.00  0.00    +0.185 C 
ATOM     13  C   UNL     1      -2.801 -10.992  15.721  0.00  0.00    +0.242 C 
ATOM     16  C   UNL     1      -2.772 -11.239  14.218  0.00  0.00    +0.255 C 
BRANCH   5  12
ATOM     12  C   UNL     1      -4.114 -11.205  17.805  0.00  0.00    +0.108 C 
BRANCH  12  14
ATOM     14  C   UNL     1      -4.852 -12.394  18.416  0.00  0.00    +0.024 C 
BRANCH  14  17
ATOM     17  C   UNL     1      -6.065 -12.016  19.277  0.00  0.00    +0.036 C 
BRANCH  17  20
ATOM     20  C   UNL     1      -7.314 -12.792  18.945  0.00  0.00    -0.047 A 
ATOM     24  C   UNL     1      -8.435 -12.697  19.769  0.00  0.00    +0.003 A 
ATOM     25  C   UNL     1      -7.347 -13.607  17.812  0.00  0.00    +0.003 A 
ATOM     26  C   UNL     1      -9.590 -13.416  19.462  0.00  0.00    +0.000 A 
ATOM     27  C   UNL     1      -8.503 -14.326  17.505  0.00  0.00    +0.000 A 
ATOM     28  C   UNL     1      -9.624 -14.231  18.329  0.00  0.00    +0.000 A 
ENDBRANCH  17  20
ENDBRANCH  14  17
ENDBRANCH  12  14
ENDBRANCH   5  12
ENDBRANCH  10   9
BRANCH  10  15
ATOM     15  C   UNL     1      -7.359 -10.273  16.070  0.00  0.00    -0.017 A 
ATOM     18  C   UNL     1      -8.371 -11.086  15.558  0.00  0.00    +0.008 A 
ATOM     19  C   UNL     1      -7.594  -9.500  17.207  0.00  0.00    +0.008 A 
ATOM     21  C   UNL     1      -9.617 -11.125  16.182  0.00  0.00    +0.023 A 
ATOM     22  C   UNL     1      -8.842  -9.539  17.831  0.00  0.00    +0.023 A 
ATOM     23  C   UNL     1      -9.853 -10.351  17.318  0.00  0.00    +0.034 A 
BRANCH  23   6
ATOM      4  O   UNL     1     -12.119  -8.390  17.243  0.00  0.00    -0.268 OA
ATOM      6  N   UNL     1     -11.100 -10.390  17.943  0.00  0.00    -0.280 N 
ATOM     29  C   UNL     1     -12.129  -9.442  17.875  0.00  0.00    +0.266 C 
ATOM     36  H   UNL     1     -11.264 -11.213  18.519  0.00  0.00    +0.155 HD
BRANCH  29  30
ATOM      7  N   UNL     1     -14.483 -10.350  18.107  0.00  0.00    -0.262 N 
ATOM      8  N   UNL     1     -15.460 -10.557  19.005  0.00  0.00    -0.176 NA
ATOM     30  C   UNL     1     -13.360  -9.782  18.634  0.00  0.00    +0.124 A 
ATOM     31  C   UNL     1     -13.622  -9.603  19.971  0.00  0.00    +0.057 A 
ATOM     32  C   UNL     1     -14.929 -10.099  20.142  0.00  0.00    +0.061 A 
ATOM     33  C   UNL     1     -14.698 -10.731  16.730  0.00  0.00    +0.173 C 
ATOM     34  C   UNL     1     -15.710 -10.151  21.389  0.00  0.00    +0.067 C 
ENDBRANCH  29  30
ENDBRANCH  23   6
ENDBRANCH  10  15
BRANCH  10   2
ATOM      2  O   UNL     1      -5.251  -9.148  15.918  0.00  0.00    -0.385 OA
ATOM     35  H   UNL     1      -5.510  -8.999  16.843  0.00  0.00    +0.210 HD
ENDBRANCH  10   2
TORSDOF 9
ENDMDL
