MODEL 1
REMARK VINA RESULT:      -6.7      0.000      0.000
REMARK  Name = 75368597
REMARK  4 active torsions:
REMARK  status: ('A' for Active; 'I' for Inactive)
REMARK    1  A    between atoms: N_3  and  C_9
REMARK    2  A    between atoms: N_5  and  C_19
REMARK    3  A    between atoms: C_19  and  C_21
REMARK    4  A    between atoms: C_20  and  C_22
REMARK                            x       y       z     vdW  Elec       q    Type
REMARK                         _______ _______ _______ _____ _____    ______ ____
ROOT
ATOM      1  O   UNL     1      12.448   6.966  17.597  0.00  0.00    -0.252 OA
ATOM      3  N   UNL     1      14.108  11.528  16.117  0.00  0.00    -0.296 NA
ATOM      4  N   UNL     1      13.163   9.190  17.365  0.00  0.00    -0.278 N 
ATOM      5  N   UNL     1      13.929   8.003  19.111  0.00  0.00    -0.278 N 
ATOM      8  C   UNL     1      13.928  10.142  18.144  0.00  0.00    +0.109 C 
ATOM     10  C   UNL     1      14.868  10.937  17.238  0.00  0.00    +0.108 C 
ATOM     11  C   UNL     1      13.455  10.476  15.311  0.00  0.00    +0.104 C 
ATOM     12  C   UNL     1      12.497   9.635  16.159  0.00  0.00    +0.125 C 
ATOM     13  C   UNL     1      14.626   9.277  19.190  0.00  0.00    +0.133 C 
ATOM     16  C   UNL     1      13.094   7.932  17.978  0.00  0.00    +0.306 C 
ENDROOT
BRANCH   3   9
ATOM      2  O   UNL     1      19.288  11.923  12.830  0.00  0.00    -0.276 OA
ATOM      6  N   UNL     1      17.591  12.846  14.120  0.00  0.00    -0.302 N 
ATOM      9  C   UNL     1      14.986  12.339  15.279  0.00  0.00    +0.060 C 
ATOM     14  C   UNL     1      16.143  12.901  16.115  0.00  0.00    +0.038 C 
ATOM     15  C   UNL     1      15.527  11.497  14.115  0.00  0.00    +0.038 C 
ATOM     17  C   UNL     1      17.128  13.674  15.239  0.00  0.00    +0.109 C 
ATOM     18  C   UNL     1      16.524  12.299  13.279  0.00  0.00    +0.109 C 
ATOM     20  C   UNL     1      18.925  12.593  13.799  0.00  0.00    +0.212 C 
ATOM     22  C   UNL     1      19.963  13.189  14.715  0.00  0.00    +0.109 C 
ENDBRANCH   3   9
BRANCH   5  19
ATOM     19  C   UNL     1      14.211   6.918  20.024  0.00  0.00    +0.164 C 
BRANCH  19  21
ATOM      7  N   UNL     1      16.191   6.042  18.923  0.00  0.00    -0.258 NA
ATOM     21  C   UNL     1      15.672   6.573  20.053  0.00  0.00    +0.059 A 
ATOM     23  C   UNL     1      16.403   6.811  21.205  0.00  0.00    +0.025 A 
ATOM     24  C   UNL     1      17.754   6.482  21.198  0.00  0.00    +0.003 A 
ATOM     25  C   UNL     1      17.507   5.734  18.954  0.00  0.00    +0.111 A 
ATOM     26  C   UNL     1      18.325   5.933  20.055  0.00  0.00    +0.020 A 
ENDBRANCH  19  21
ENDBRANCH   5  19
TORSDOF 3
ENDMDL
MODEL 2
REMARK VINA RESULT:      -6.6      4.881      8.456
REMARK  Name = 75368597
REMARK  4 active torsions:
REMARK  status: ('A' for Active; 'I' for Inactive)
REMARK    1  A    between atoms: N_3  and  C_9
REMARK    2  A    between atoms: N_5  and  C_19
REMARK    3  A    between atoms: C_19  and  C_21
REMARK    4  A    between atoms: C_20  and  C_22
REMARK                            x       y       z     vdW  Elec       q    Type
REMARK                         _______ _______ _______ _____ _____    ______ ____
ROOT
ATOM      1  O   UNL     1      21.040   6.334  23.536  0.00  0.00    -0.252 OA
ATOM      3  N   UNL     1      17.411   7.342  20.133  0.00  0.00    -0.296 NA
ATOM      4  N   UNL     1      19.694   6.696  21.646  0.00  0.00    -0.278 N 
ATOM      5  N   UNL     1      21.006   4.874  21.684  0.00  0.00    -0.278 N 
ATOM      8  C   UNL     1      19.528   6.102  20.335  0.00  0.00    +0.109 C 
ATOM     10  C   UNL     1      18.047   6.018  19.973  0.00  0.00    +0.108 C 
ATOM     11  C   UNL     1      17.528   7.817  21.527  0.00  0.00    +0.104 C 
ATOM     12  C   UNL     1      18.992   7.924  21.961  0.00  0.00    +0.125 C 
ATOM     13  C   UNL     1      20.237   4.755  20.456  0.00  0.00    +0.133 C 
ATOM     16  C   UNL     1      20.634   6.012  22.427  0.00  0.00    +0.306 C 
ENDROOT
BRANCH   3   9
ATOM      2  O   UNL     1      11.756   9.716  20.561  0.00  0.00    -0.276 OA
ATOM      6  N   UNL     1      13.231   7.958  20.199  0.00  0.00    -0.302 N 
ATOM      9  C   UNL     1      16.008   7.285  19.732  0.00  0.00    +0.060 C 
ATOM     14  C   UNL     1      15.179   6.575  20.810  0.00  0.00    +0.038 C 
ATOM     15  C   UNL     1      15.472   8.702  19.491  0.00  0.00    +0.038 C 
ATOM     17  C   UNL     1      13.693   6.589  20.457  0.00  0.00    +0.109 C 
ATOM     18  C   UNL     1      13.980   8.674  19.163  0.00  0.00    +0.109 C 
ATOM     20  C   UNL     1      12.147   8.576  20.823  0.00  0.00    +0.212 C 
ATOM     22  C   UNL     1      11.430   7.775  21.879  0.00  0.00    +0.109 C 
ENDBRANCH   3   9
BRANCH   5  19
ATOM     19  C   UNL     1      21.920   3.842  22.118  0.00  0.00    +0.164 C 
BRANCH  19  21
ATOM      7  N   UNL     1      23.676   4.953  20.859  0.00  0.00    -0.258 NA
ATOM     21  C   UNL     1      23.143   3.773  21.249  0.00  0.00    +0.059 A 
ATOM     23  C   UNL     1      23.657   2.535  20.897  0.00  0.00    +0.025 A 
ATOM     24  C   UNL     1      24.790   2.507  20.093  0.00  0.00    +0.003 A 
ATOM     25  C   UNL     1      24.777   4.884  20.078  0.00  0.00    +0.111 A 
ATOM     26  C   UNL     1      25.368   3.699  19.671  0.00  0.00    +0.020 A 
ENDBRANCH  19  21
ENDBRANCH   5  19
TORSDOF 3
ENDMDL
MODEL 3
REMARK VINA RESULT:      -6.2     27.674     30.553
REMARK  Name = 75368597
REMARK  4 active torsions:
REMARK  status: ('A' for Active; 'I' for Inactive)
REMARK    1  A    between atoms: N_3  and  C_9
REMARK    2  A    between atoms: N_5  and  C_19
REMARK    3  A    between atoms: C_19  and  C_21
REMARK    4  A    between atoms: C_20  and  C_22
REMARK                            x       y       z     vdW  Elec       q    Type
REMARK                         _______ _______ _______ _____ _____    ______ ____
ROOT
ATOM      1  O   UNL     1      -3.442 -14.174  14.303  0.00  0.00    -0.252 OA
ATOM      3  N   UNL     1      -5.804 -11.145  17.622  0.00  0.00    -0.296 NA
ATOM      4  N   UNL     1      -4.103 -12.609  15.925  0.00  0.00    -0.278 N 
ATOM      5  N   UNL     1      -2.614 -11.966  14.370  0.00  0.00    -0.278 N 
ATOM      8  C   UNL     1      -3.717 -11.271  16.323  0.00  0.00    +0.109 C 
ATOM     10  C   UNL     1      -4.953 -10.434  16.646  0.00  0.00    +0.108 C 
ATOM     11  C   UNL     1      -6.245 -12.449  17.084  0.00  0.00    +0.104 C 
ATOM     12  C   UNL     1      -5.052 -13.342  16.735  0.00  0.00    +0.125 C 
ATOM     13  C   UNL     1      -2.890 -10.766  15.143  0.00  0.00    +0.133 C 
ATOM     16  C   UNL     1      -3.390 -13.059  14.806  0.00  0.00    +0.306 C 
ENDROOT
BRANCH   3   9
ATOM      2  O   UNL     1     -11.915 -10.468  17.667  0.00  0.00    -0.276 OA
ATOM      6  N   UNL     1      -9.748  -9.629  17.643  0.00  0.00    -0.302 N 
ATOM      9  C   UNL     1      -6.959 -10.327  17.982  0.00  0.00    +0.060 C 
ATOM     14  C   UNL     1      -7.447  -9.537  16.761  0.00  0.00    +0.038 C 
ATOM     15  C   UNL     1      -8.083 -11.216  18.529  0.00  0.00    +0.038 C 
ATOM     17  C   UNL     1      -8.714  -8.747  17.089  0.00  0.00    +0.109 C 
ATOM     18  C   UNL     1      -9.337 -10.393  18.822  0.00  0.00    +0.109 C 
ATOM     20  C   UNL     1     -11.052  -9.747  17.160  0.00  0.00    +0.212 C 
ATOM     22  C   UNL     1     -11.397  -8.930  15.941  0.00  0.00    +0.109 C 
ENDBRANCH   3   9
BRANCH   5  19
ATOM     19  C   UNL     1      -1.754 -11.949  13.209  0.00  0.00    +0.164 C 
BRANCH  19  21
ATOM      7  N   UNL     1      -3.470 -11.499  11.549  0.00  0.00    -0.258 NA
ATOM     21  C   UNL     1      -2.310 -11.089  12.110  0.00  0.00    +0.059 A 
ATOM     23  C   UNL     1      -1.627  -9.944  11.733  0.00  0.00    +0.025 A 
ATOM     24  C   UNL     1      -2.170  -9.170  10.714  0.00  0.00    +0.003 A 
ATOM     25  C   UNL     1      -3.966 -10.721  10.562  0.00  0.00    +0.111 A 
ATOM     26  C   UNL     1      -3.362  -9.559  10.112  0.00  0.00    +0.020 A 
ENDBRANCH  19  21
ENDBRANCH   5  19
TORSDOF 3
ENDMDL
MODEL 4
REMARK VINA RESULT:      -6.1     28.048     30.636
REMARK  Name = 75368597
REMARK  4 active torsions:
REMARK  status: ('A' for Active; 'I' for Inactive)
REMARK    1  A    between atoms: N_3  and  C_9
REMARK    2  A    between atoms: N_5  and  C_19
REMARK    3  A    between atoms: C_19  and  C_21
REMARK    4  A    between atoms: C_20  and  C_22
REMARK                            x       y       z     vdW  Elec       q    Type
REMARK                         _______ _______ _______ _____ _____    ______ ____
ROOT
ATOM      1  O   UNL     1      -6.511 -10.233  20.062  0.00  0.00    -0.252 OA
ATOM      3  N   UNL     1      -4.562 -12.805  16.144  0.00  0.00    -0.296 NA
ATOM      4  N   UNL     1      -5.911 -11.758  18.380  0.00  0.00    -0.278 N 
ATOM      5  N   UNL     1      -8.095 -11.455  18.812  0.00  0.00    -0.278 N 
ATOM      8  C   UNL     1      -6.586 -12.730  17.544  0.00  0.00    +0.109 C 
ATOM     10  C   UNL     1      -6.034 -12.680  16.120  0.00  0.00    +0.108 C 
ATOM     11  C   UNL     1      -3.954 -11.707  16.924  0.00  0.00    +0.104 C 
ATOM     12  C   UNL     1      -4.465 -11.695  18.366  0.00  0.00    +0.125 C 
ATOM     13  C   UNL     1      -8.061 -12.358  17.674  0.00  0.00    +0.133 C 
ATOM     16  C   UNL     1      -6.801 -11.049  19.197  0.00  0.00    +0.306 C 
ENDROOT
BRANCH   3   9
ATOM      2  O   UNL     1      -1.445  -9.879  11.726  0.00  0.00    -0.276 OA
ATOM      6  N   UNL     1      -3.033 -11.408  12.461  0.00  0.00    -0.302 N 
ATOM      9  C   UNL     1      -4.030 -12.819  14.785  0.00  0.00    +0.060 C 
ATOM     14  C   UNL     1      -4.970 -12.056  13.842  0.00  0.00    +0.038 C 
ATOM     15  C   UNL     1      -2.628 -12.195  14.762  0.00  0.00    +0.038 C 
ATOM     17  C   UNL     1      -4.386 -11.974  12.432  0.00  0.00    +0.109 C 
ATOM     18  C   UNL     1      -2.091 -12.111  13.334  0.00  0.00    +0.109 C 
ATOM     20  C   UNL     1      -2.599 -10.314  11.712  0.00  0.00    +0.212 C 
ATOM     22  C   UNL     1      -3.630  -9.642  10.840  0.00  0.00    +0.109 C 
ENDBRANCH   3   9
BRANCH   5  19
ATOM     19  C   UNL     1      -9.336 -10.945  19.349  0.00  0.00    +0.164 C 
BRANCH  19  21
ATOM      7  N   UNL     1      -9.113  -9.094  17.792  0.00  0.00    -0.258 NA
ATOM     21  C   UNL     1      -9.960  -9.920  18.446  0.00  0.00    +0.059 A 
ATOM     23  C   UNL     1     -11.339  -9.870  18.327  0.00  0.00    +0.025 A 
ATOM     24  C   UNL     1     -11.884  -8.910  17.482  0.00  0.00    +0.003 A 
ATOM     25  C   UNL     1      -9.680  -8.174  16.981  0.00  0.00    +0.111 A 
ATOM     26  C   UNL     1     -11.046  -8.042  16.792  0.00  0.00    +0.020 A 
ENDBRANCH  19  21
ENDBRANCH   5  19
TORSDOF 3
ENDMDL
MODEL 5
REMARK VINA RESULT:      -6.0     14.387     17.073
REMARK  Name = 75368597
REMARK  4 active torsions:
REMARK  status: ('A' for Active; 'I' for Inactive)
REMARK    1  A    between atoms: N_3  and  C_9
REMARK    2  A    between atoms: N_5  and  C_19
REMARK    3  A    between atoms: C_19  and  C_21
REMARK    4  A    between atoms: C_20  and  C_22
REMARK                            x       y       z     vdW  Elec       q    Type
REMARK                         _______ _______ _______ _____ _____    ______ ____
ROOT
ATOM      1  O   UNL     1      11.459   6.417  -1.563  0.00  0.00    -0.252 OA
ATOM      3  N   UNL     1       9.480   6.884   3.087  0.00  0.00    -0.296 NA
ATOM      4  N   UNL     1      10.349   6.215   0.496  0.00  0.00    -0.278 N 
ATOM      5  N   UNL     1      11.431   4.419  -0.309  0.00  0.00    -0.278 N 
ATOM      8  C   UNL     1      10.032   5.152   1.428  0.00  0.00    +0.109 C 
ATOM     10  C   UNL     1      10.227   5.629   2.866  0.00  0.00    +0.108 C 
ATOM     11  C   UNL     1       9.950   7.945   2.172  0.00  0.00    +0.104 C 
ATOM     12  C   UNL     1       9.786   7.533   0.707  0.00  0.00    +0.125 C 
ATOM     13  C   UNL     1      10.951   4.010   1.000  0.00  0.00    +0.133 C 
ATOM     16  C   UNL     1      11.119   5.766  -0.584  0.00  0.00    +0.306 C 
ENDROOT
BRANCH   3   9
ATOM      2  O   UNL     1      11.323   5.592   8.809  0.00  0.00    -0.276 OA
ATOM      6  N   UNL     1       9.961   6.692   7.281  0.00  0.00    -0.302 N 
ATOM      9  C   UNL     1       9.611   7.317   4.476  0.00  0.00    +0.060 C 
ATOM     14  C   UNL     1       8.468   6.739   5.319  0.00  0.00    +0.038 C 
ATOM     15  C   UNL     1      10.968   6.874   5.039  0.00  0.00    +0.038 C 
ATOM     17  C   UNL     1       8.638   7.099   6.795  0.00  0.00    +0.109 C 
ATOM     18  C   UNL     1      11.089   7.233   6.519  0.00  0.00    +0.109 C 
ATOM     20  C   UNL     1      10.199   5.890   8.398  0.00  0.00    +0.212 C 
ATOM     22  C   UNL     1       8.986   5.371   9.127  0.00  0.00    +0.109 C 
ENDBRANCH   3   9
BRANCH   5  19
ATOM     19  C   UNL     1      12.256   3.558  -1.126  0.00  0.00    +0.164 C 
BRANCH  19  21
ATOM      7  N   UNL     1      14.378   4.272  -2.069  0.00  0.00    -0.258 NA
ATOM     21  C   UNL     1      13.718   3.861  -0.963  0.00  0.00    +0.059 A 
ATOM     23  C   UNL     1      14.307   3.712   0.282  0.00  0.00    +0.025 A 
ATOM     24  C   UNL     1      15.662   4.002   0.399  0.00  0.00    +0.003 A 
ATOM     25  C   UNL     1      15.693   4.545  -1.916  0.00  0.00    +0.111 A 
ATOM     26  C   UNL     1      16.375   4.428  -0.716  0.00  0.00    +0.020 A 
ENDBRANCH  19  21
ENDBRANCH   5  19
TORSDOF 3
ENDMDL
MODEL 6
REMARK VINA RESULT:      -5.9     28.202     30.595
REMARK  Name = 75368597
REMARK  4 active torsions:
REMARK  status: ('A' for Active; 'I' for Inactive)
REMARK    1  A    between atoms: N_3  and  C_9
REMARK    2  A    between atoms: N_5  and  C_19
REMARK    3  A    between atoms: C_19  and  C_21
REMARK    4  A    between atoms: C_20  and  C_22
REMARK                            x       y       z     vdW  Elec       q    Type
REMARK                         _______ _______ _______ _____ _____    ______ ____
ROOT
ATOM      1  O   UNL     1      -4.848  -9.664   8.083  0.00  0.00    -0.252 OA
ATOM      3  N   UNL     1      -3.899 -10.270  13.033  0.00  0.00    -0.296 NA
ATOM      4  N   UNL     1      -4.683  -9.566  10.424  0.00  0.00    -0.278 N 
ATOM      5  N   UNL     1      -6.704  -9.281   9.487  0.00  0.00    -0.278 N 
ATOM      8  C   UNL     1      -5.553  -9.235  11.533  0.00  0.00    +0.109 C 
ATOM     10  C   UNL     1      -5.334 -10.208  12.691  0.00  0.00    +0.108 C 
ATOM     11  C   UNL     1      -3.101 -10.727  11.876  0.00  0.00    +0.104 C 
ATOM     12  C   UNL     1      -3.275  -9.796  10.673  0.00  0.00    +0.125 C 
ATOM     13  C   UNL     1      -6.951  -9.272  10.920  0.00  0.00    +0.133 C 
ATOM     16  C   UNL     1      -5.346  -9.518   9.191  0.00  0.00    +0.306 C 
ENDROOT
BRANCH   3   9
ATOM      2  O   UNL     1      -6.269 -13.147  17.922  0.00  0.00    -0.276 OA
ATOM      6  N   UNL     1      -4.514 -12.161  16.761  0.00  0.00    -0.302 N 
ATOM      9  C   UNL     1      -3.686 -11.152  14.177  0.00  0.00    +0.060 C 
ATOM     14  C   UNL     1      -3.513 -10.324  15.457  0.00  0.00    +0.038 C 
ATOM     15  C   UNL     1      -4.867 -12.120  14.321  0.00  0.00    +0.038 C 
ATOM     17  C   UNL     1      -3.385 -11.228  16.682  0.00  0.00    +0.109 C 
ATOM     18  C   UNL     1      -4.712 -12.989  15.569  0.00  0.00    +0.109 C 
ATOM     20  C   UNL     1      -5.348 -12.329  17.867  0.00  0.00    +0.212 C 
ATOM     22  C   UNL     1      -5.082 -11.437  19.053  0.00  0.00    +0.109 C 
ENDBRANCH   3   9
BRANCH   5  19
ATOM     19  C   UNL     1      -7.779  -9.205   8.524  0.00  0.00    +0.164 C 
BRANCH  19  21
ATOM      7  N   UNL     1      -9.786  -7.975   9.125  0.00  0.00    -0.258 NA
ATOM     21  C   UNL     1      -8.532  -7.909   8.624  0.00  0.00    +0.059 A 
ATOM     23  C   UNL     1      -7.922  -6.736   8.211  0.00  0.00    +0.025 A 
ATOM     24  C   UNL     1      -8.647  -5.554   8.318  0.00  0.00    +0.003 A 
ATOM     25  C   UNL     1     -10.459  -6.806   9.214  0.00  0.00    +0.111 A 
ATOM     26  C   UNL     1      -9.939  -5.581   8.829  0.00  0.00    +0.020 A 
ENDBRANCH  19  21
ENDBRANCH   5  19
TORSDOF 3
ENDMDL
MODEL 7
REMARK VINA RESULT:      -5.8     28.024     30.579
REMARK  Name = 75368597
REMARK  4 active torsions:
REMARK  status: ('A' for Active; 'I' for Inactive)
REMARK    1  A    between atoms: N_3  and  C_9
REMARK    2  A    between atoms: N_5  and  C_19
REMARK    3  A    between atoms: C_19  and  C_21
REMARK    4  A    between atoms: C_20  and  C_22
REMARK                            x       y       z     vdW  Elec       q    Type
REMARK                         _______ _______ _______ _____ _____    ______ ____
ROOT
ATOM      1  O   UNL     1      -3.654 -13.266  12.026  0.00  0.00    -0.252 OA
ATOM      3  N   UNL     1      -4.306 -11.826  16.849  0.00  0.00    -0.296 NA
ATOM      4  N   UNL     1      -3.509 -12.458  14.226  0.00  0.00    -0.278 N 
ATOM      5  N   UNL     1      -2.648 -11.204  12.573  0.00  0.00    -0.278 N 
ATOM      8  C   UNL     1      -2.873 -11.348  14.905  0.00  0.00    +0.109 C 
ATOM     10  C   UNL     1      -3.813 -10.758  15.955  0.00  0.00    +0.108 C 
ATOM     11  C   UNL     1      -5.041 -12.855  16.084  0.00  0.00    +0.104 C 
ATOM     12  C   UNL     1      -4.157 -13.490  15.008  0.00  0.00    +0.125 C 
ATOM     13  C   UNL     1      -2.498 -10.396  13.772  0.00  0.00    +0.133 C 
ATOM     16  C   UNL     1      -3.310 -12.420  12.839  0.00  0.00    +0.306 C 
ENDROOT
BRANCH   3   9
ATOM      2  O   UNL     1      -9.538 -12.157  20.061  0.00  0.00    -0.276 OA
ATOM      6  N   UNL     1      -7.760 -10.983  19.134  0.00  0.00    -0.302 N 
ATOM      9  C   UNL     1      -5.159 -11.263  17.892  0.00  0.00    +0.060 C 
ATOM     14  C   UNL     1      -6.261 -10.400  17.264  0.00  0.00    +0.038 C 
ATOM     15  C   UNL     1      -5.775 -12.390  18.733  0.00  0.00    +0.038 C 
ATOM     17  C   UNL     1      -7.224  -9.879  18.331  0.00  0.00    +0.109 C 
ATOM     18  C   UNL     1      -6.746 -11.828  19.770  0.00  0.00    +0.109 C 
ATOM     20  C   UNL     1      -9.113 -11.242  19.351  0.00  0.00    +0.212 C 
ATOM     22  C   UNL     1     -10.094 -10.329  18.659  0.00  0.00    +0.109 C 
ENDBRANCH   3   9
BRANCH   5  19
ATOM     19  C   UNL     1      -2.282 -10.710  11.265  0.00  0.00    +0.164 C 
BRANCH  19  21
ATOM      7  N   UNL     1      -3.984 -11.089   9.573  0.00  0.00    -0.258 NA
ATOM     21  C   UNL     1      -3.478 -10.234  10.490  0.00  0.00    +0.059 A 
ATOM     23  C   UNL     1      -3.994  -8.974  10.745  0.00  0.00    +0.025 A 
ATOM     24  C   UNL     1      -5.102  -8.565  10.011  0.00  0.00    +0.003 A 
ATOM     25  C   UNL     1      -5.060 -10.655   8.879  0.00  0.00    +0.111 A 
ATOM     26  C   UNL     1      -5.652  -9.416   9.059  0.00  0.00    +0.020 A 
ENDBRANCH  19  21
ENDBRANCH   5  19
TORSDOF 3
ENDMDL
MODEL 8
REMARK VINA RESULT:      -5.8     30.633     33.292
REMARK  Name = 75368597
REMARK  4 active torsions:
REMARK  status: ('A' for Active; 'I' for Inactive)
REMARK    1  A    between atoms: N_3  and  C_9
REMARK    2  A    between atoms: N_5  and  C_19
REMARK    3  A    between atoms: C_19  and  C_21
REMARK    4  A    between atoms: C_20  and  C_22
REMARK                            x       y       z     vdW  Elec       q    Type
REMARK                         _______ _______ _______ _____ _____    ______ ____
ROOT
ATOM      1  O   UNL     1     -17.344   5.769  33.773  0.00  0.00    -0.252 OA
ATOM      3  N   UNL     1     -14.081   9.369  32.306  0.00  0.00    -0.296 NA
ATOM      4  N   UNL     1     -15.537   7.218  33.386  0.00  0.00    -0.278 N 
ATOM      5  N   UNL     1     -15.137   5.008  33.439  0.00  0.00    -0.278 N 
ATOM      8  C   UNL     1     -14.097   7.107  33.274  0.00  0.00    +0.109 C 
ATOM     10  C   UNL     1     -13.581   7.989  32.139  0.00  0.00    +0.108 C 
ATOM     11  C   UNL     1     -15.558   9.400  32.292  0.00  0.00    +0.104 C 
ATOM     12  C   UNL     1     -16.146   8.531  33.407  0.00  0.00    +0.125 C 
ATOM     13  C   UNL     1     -13.863   5.610  33.081  0.00  0.00    +0.133 C 
ATOM     16  C   UNL     1     -16.156   5.974  33.564  0.00  0.00    +0.306 C 
ENDROOT
BRANCH   3   9
ATOM      2  O   UNL     1     -12.825  10.190  26.343  0.00  0.00    -0.276 OA
ATOM      6  N   UNL     1     -12.447  10.582  28.602  0.00  0.00    -0.302 N 
ATOM      9  C   UNL     1     -13.545  10.235  31.258  0.00  0.00    +0.060 C 
ATOM     14  C   UNL     1     -12.103   9.830  30.925  0.00  0.00    +0.038 C 
ATOM     15  C   UNL     1     -14.427  10.152  30.006  0.00  0.00    +0.038 C 
ATOM     17  C   UNL     1     -11.555  10.659  29.765  0.00  0.00    +0.109 C 
ATOM     18  C   UNL     1     -13.833  10.976  28.864  0.00  0.00    +0.109 C 
ATOM     20  C   UNL     1     -12.063  10.211  27.313  0.00  0.00    +0.212 C 
ATOM     22  C   UNL     1     -10.620   9.817  27.125  0.00  0.00    +0.109 C 
ENDBRANCH   3   9
BRANCH   5  19
ATOM     19  C   UNL     1     -15.317   3.575  33.498  0.00  0.00    +0.164 C 
BRANCH  19  21
ATOM      7  N   UNL     1     -14.028   2.097  32.064  0.00  0.00    -0.258 NA
ATOM     21  C   UNL     1     -15.093   2.926  32.162  0.00  0.00    +0.059 A 
ATOM     23  C   UNL     1     -15.964   3.197  31.121  0.00  0.00    +0.025 A 
ATOM     24  C   UNL     1     -15.728   2.578  29.898  0.00  0.00    +0.003 A 
ATOM     25  C   UNL     1     -13.832   1.515  30.860  0.00  0.00    +0.111 A 
ATOM     26  C   UNL     1     -14.644   1.719  29.757  0.00  0.00    +0.020 A 
ENDBRANCH  19  21
ENDBRANCH   5  19
TORSDOF 3
ENDMDL
MODEL 9
REMARK VINA RESULT:      -5.8     15.344     18.147
REMARK  Name = 75368597
REMARK  4 active torsions:
REMARK  status: ('A' for Active; 'I' for Inactive)
REMARK    1  A    between atoms: N_3  and  C_9
REMARK    2  A    between atoms: N_5  and  C_19
REMARK    3  A    between atoms: C_19  and  C_21
REMARK    4  A    between atoms: C_20  and  C_22
REMARK                            x       y       z     vdW  Elec       q    Type
REMARK                         _______ _______ _______ _____ _____    ______ ____
ROOT
ATOM      1  O   UNL     1      14.377   4.872  -1.118  0.00  0.00    -0.252 OA
ATOM      3  N   UNL     1      12.029   6.545   3.059  0.00  0.00    -0.296 NA
ATOM      4  N   UNL     1      12.902   5.613   0.552  0.00  0.00    -0.278 N 
ATOM      5  N   UNL     1      12.305   3.834  -0.681  0.00  0.00    -0.278 N 
ATOM      8  C   UNL     1      11.554   5.307   0.986  0.00  0.00    +0.109 C 
ATOM     10  C   UNL     1      11.477   5.290   2.511  0.00  0.00    +0.108 C 
ATOM     11  C   UNL     1      13.442   6.717   2.662  0.00  0.00    +0.104 C 
ATOM     12  C   UNL     1      13.595   6.741   1.139  0.00  0.00    +0.125 C 
ATOM     13  C   UNL     1      11.252   3.970   0.312  0.00  0.00    +0.133 C 
ATOM     16  C   UNL     1      13.326   4.787  -0.497  0.00  0.00    +0.306 C 
ENDROOT
BRANCH   3   9
ATOM      2  O   UNL     1       8.434   7.325   7.985  0.00  0.00    -0.276 OA
ATOM      6  N   UNL     1      10.491   7.377   6.906  0.00  0.00    -0.302 N 
ATOM      9  C   UNL     1      11.905   6.563   4.514  0.00  0.00    +0.060 C 
ATOM     14  C   UNL     1      11.962   8.007   5.030  0.00  0.00    +0.038 C 
ATOM     15  C   UNL     1      10.591   5.895   4.939  0.00  0.00    +0.038 C 
ATOM     17  C   UNL     1      11.737   8.059   6.541  0.00  0.00    +0.109 C 
ATOM     18  C   UNL     1      10.394   5.988   6.451  0.00  0.00    +0.109 C 
ATOM     20  C   UNL     1       9.457   7.932   7.660  0.00  0.00    +0.212 C 
ATOM     22  C   UNL     1       9.630   9.368   8.088  0.00  0.00    +0.109 C 
ENDBRANCH   3   9
BRANCH   5  19
ATOM     19  C   UNL     1      12.329   2.740  -1.627  0.00  0.00    +0.164 C 
BRANCH  19  21
ATOM      7  N   UNL     1      10.335   1.978  -2.787  0.00  0.00    -0.258 NA
ATOM     21  C   UNL     1      11.307   2.915  -2.714  0.00  0.00    +0.059 A 
ATOM     23  C   UNL     1      11.404   4.001  -3.568  0.00  0.00    +0.025 A 
ATOM     24  C   UNL     1      10.442   4.134  -4.562  0.00  0.00    +0.003 A 
ATOM     25  C   UNL     1       9.418   2.141  -3.766  0.00  0.00    +0.111 A 
ATOM     26  C   UNL     1       9.426   3.191  -4.670  0.00  0.00    +0.020 A 
ENDBRANCH  19  21
ENDBRANCH   5  19
TORSDOF 3
ENDMDL
MODEL 10
REMARK VINA RESULT:      -5.6     12.974     15.221
REMARK  Name = 75368597
REMARK  4 active torsions:
REMARK  status: ('A' for Active; 'I' for Inactive)
REMARK    1  A    between atoms: N_3  and  C_9
REMARK    2  A    between atoms: N_5  and  C_19
REMARK    3  A    between atoms: C_19  and  C_21
REMARK    4  A    between atoms: C_20  and  C_22
REMARK                            x       y       z     vdW  Elec       q    Type
REMARK                         _______ _______ _______ _____ _____    ______ ____
ROOT
ATOM      1  O   UNL     1      11.161   6.364   7.726  0.00  0.00    -0.252 OA
ATOM      3  N   UNL     1      10.462   4.938   2.905  0.00  0.00    -0.296 NA
ATOM      4  N   UNL     1      10.682   6.144   5.438  0.00  0.00    -0.278 N 
ATOM      5  N   UNL     1      11.733   8.004   6.130  0.00  0.00    -0.278 N 
ATOM      8  C   UNL     1      10.769   6.974   4.254  0.00  0.00    +0.109 C 
ATOM     10  C   UNL     1      11.280   6.157   3.068  0.00  0.00    +0.108 C 
ATOM     11  C   UNL     1      10.525   4.096   4.118  0.00  0.00    +0.104 C 
ATOM     12  C   UNL     1      10.028   4.854   5.352  0.00  0.00    +0.125 C 
ATOM     13  C   UNL     1      11.681   8.121   4.683  0.00  0.00    +0.133 C 
ATOM     16  C   UNL     1      11.184   6.785   6.577  0.00  0.00    +0.306 C 
ENDROOT
BRANCH   3   9
ATOM      2  O   UNL     1      14.703   4.075  -1.462  0.00  0.00    -0.276 OA
ATOM      6  N   UNL     1      12.529   3.961  -0.648  0.00  0.00    -0.302 N 
ATOM      9  C   UNL     1      10.904   4.180   1.738  0.00  0.00    +0.060 C 
ATOM     14  C   UNL     1      10.551   4.938   0.452  0.00  0.00    +0.038 C 
ATOM     15  C   UNL     1      12.417   3.931   1.814  0.00  0.00    +0.038 C 
ATOM     17  C   UNL     1      11.090   4.211  -0.780  0.00  0.00    +0.109 C 
ATOM     18  C   UNL     1      12.918   3.223   0.556  0.00  0.00    +0.109 C 
ATOM     20  C   UNL     1      13.502   4.330  -1.578  0.00  0.00    +0.212 C 
ATOM     22  C   UNL     1      13.022   5.089  -2.790  0.00  0.00    +0.109 C 
ENDBRANCH   3   9
BRANCH   5  19
ATOM     19  C   UNL     1      12.414   8.978   6.954  0.00  0.00    +0.164 C 
BRANCH  19  21
ATOM      7  N   UNL     1      14.341  10.355   6.417  0.00  0.00    -0.258 NA
ATOM     21  C   UNL     1      13.866   9.101   6.593  0.00  0.00    +0.059 A 
ATOM     23  C   UNL     1      14.633   7.955   6.462  0.00  0.00    +0.025 A 
ATOM     24  C   UNL     1      15.974   8.105   6.128  0.00  0.00    +0.003 A 
ATOM     25  C   UNL     1      15.650  10.460   6.094  0.00  0.00    +0.111 A 
ATOM     26  C   UNL     1      16.500   9.378   5.940  0.00  0.00    +0.020 A 
ENDBRANCH  19  21
ENDBRANCH   5  19
TORSDOF 3
ENDMDL
