MODEL 1
REMARK VINA RESULT:      -5.9      0.000      0.000
REMARK  Name = 38345003
REMARK  9 active torsions:
REMARK  status: ('A' for Active; 'I' for Inactive)
REMARK    1  A    between atoms: O_3  and  C_21
REMARK    2  A    between atoms: O_3  and  C_24
REMARK    3  A    between atoms: N_5  and  C_17
REMARK    4  A    between atoms: N_8  and  C_20
REMARK    5  A    between atoms: C_12  and  C_16
REMARK    6  A    between atoms: C_16  and  C_19
REMARK    7  A    between atoms: C_19  and  C_21
REMARK    8  A    between atoms: C_20  and  C_22
REMARK    9  A    between atoms: C_20  and  C_23
REMARK                            x       y       z     vdW  Elec       q    Type
REMARK                         _______ _______ _______ _____ _____    ______ ____
ROOT
ATOM      1  O   UNL     1      16.639   9.849  20.268  0.00  0.00    -0.274 OA
ATOM      2  O   UNL     1      14.591   9.308  22.777  0.00  0.00    -0.253 OA
ATOM      5  N   UNL     1      18.453   6.415  20.256  0.00  0.00    -0.296 NA
ATOM      6  N   UNL     1      15.092   7.767  21.131  0.00  0.00    -0.273 N 
ATOM      7  N   UNL     1      18.542   9.066  21.289  0.00  0.00    -0.312 N 
ATOM      8  N   UNL     1      12.863   8.309  21.620  0.00  0.00    -0.297 N 
ATOM      9  C   UNL     1      17.044   6.441  20.709  0.00  0.00    +0.088 C 
ATOM     10  C   UNL     1      16.523   7.711  21.423  0.00  0.00    +0.180 C 
ATOM     11  C   UNL     1      16.059   6.354  19.518  0.00  0.00    +0.040 C 
ATOM     12  C   UNL     1      19.467   6.742  21.295  0.00  0.00    +0.074 C 
ATOM     13  C   UNL     1      14.732   6.817  20.090  0.00  0.00    +0.112 C 
ATOM     14  C   UNL     1      19.216   8.052  22.077  0.00  0.00    +0.123 C 
ATOM     15  C   UNL     1      17.209   8.983  20.929  0.00  0.00    +0.235 C 
ATOM     17  C   UNL     1      18.756   5.126  19.609  0.00  0.00    +0.105 C 
ATOM     18  C   UNL     1      14.206   8.520  21.908  0.00  0.00    +0.303 C 
ATOM     25  H   UNL     1      19.064   9.889  21.007  0.00  0.00    +0.149 HD
ATOM     26  H   UNL     1      12.610   7.702  20.849  0.00  0.00    +0.150 HD
ENDROOT
BRANCH   8  20
ATOM     20  C   UNL     1      11.785   8.989  22.304  0.00  0.00    +0.068 C 
ATOM     22  C   UNL     1      10.568   8.079  22.411  0.00  0.00    +0.027 C 
ATOM     23  C   UNL     1      11.439  10.293  21.596  0.00  0.00    +0.027 C 
ENDBRANCH   8  20
BRANCH  12  16
ATOM     16  C   UNL     1      20.879   6.852  20.679  0.00  0.00    +0.031 C 
BRANCH  16  19
ATOM     19  C   UNL     1      21.940   6.510  21.709  0.00  0.00    +0.122 C 
BRANCH  19  21
ATOM      4  O   UNL     1      21.677   4.699  23.310  0.00  0.00    -0.251 OA
ATOM     21  C   UNL     1      21.825   5.070  22.154  0.00  0.00    +0.307 C 
BRANCH  21   3
ATOM      3  O   UNL     1      21.912   4.261  21.057  0.00  0.00    -0.468 OA
ATOM     24  C   UNL     1      22.656   3.052  21.242  0.00  0.00    +0.280 C 
ENDBRANCH  21   3
ENDBRANCH  19  21
ENDBRANCH  16  19
ENDBRANCH  12  16
TORSDOF 5
ENDMDL
MODEL 2
REMARK VINA RESULT:      -5.6     27.343     29.814
REMARK  Name = 38345003
REMARK  9 active torsions:
REMARK  status: ('A' for Active; 'I' for Inactive)
REMARK    1  A    between atoms: O_3  and  C_21
REMARK    2  A    between atoms: O_3  and  C_24
REMARK    3  A    between atoms: N_5  and  C_17
REMARK    4  A    between atoms: N_8  and  C_20
REMARK    5  A    between atoms: C_12  and  C_16
REMARK    6  A    between atoms: C_16  and  C_19
REMARK    7  A    between atoms: C_19  and  C_21
REMARK    8  A    between atoms: C_20  and  C_22
REMARK    9  A    between atoms: C_20  and  C_23
REMARK                            x       y       z     vdW  Elec       q    Type
REMARK                         _______ _______ _______ _____ _____    ______ ____
ROOT
ATOM      1  O   UNL     1      -5.599  -9.260  12.684  0.00  0.00    -0.274 OA
ATOM      2  O   UNL     1      -5.946 -11.697  10.510  0.00  0.00    -0.253 OA
ATOM      5  N   UNL     1      -2.723 -10.786  14.803  0.00  0.00    -0.296 NA
ATOM      6  N   UNL     1      -3.920 -10.894  11.275  0.00  0.00    -0.273 N 
ATOM      7  N   UNL     1      -5.553 -10.574  14.568  0.00  0.00    -0.312 N 
ATOM      8  N   UNL     1      -4.356 -11.036   8.975  0.00  0.00    -0.297 N 
ATOM      9  C   UNL     1      -2.776 -11.142  13.368  0.00  0.00    +0.088 C 
ATOM     10  C   UNL     1      -4.160 -11.223  12.679  0.00  0.00    +0.180 C 
ATOM     11  C   UNL     1      -2.076 -10.079  12.488  0.00  0.00    +0.040 C 
ATOM     12  C   UNL     1      -3.577 -11.610  15.701  0.00  0.00    +0.074 C 
ATOM     13  C   UNL     1      -2.582 -10.356  11.084  0.00  0.00    +0.112 C 
ATOM     14  C   UNL     1      -5.057 -11.741  15.272  0.00  0.00    +0.123 C 
ATOM     15  C   UNL     1      -5.170 -10.247  13.280  0.00  0.00    +0.235 C 
ATOM     17  C   UNL     1      -1.327 -10.768  15.272  0.00  0.00    +0.105 C 
ATOM     18  C   UNL     1      -4.824 -11.244  10.267  0.00  0.00    +0.303 C 
ATOM     25  H   UNL     1      -6.231  -9.978  15.032  0.00  0.00    +0.149 HD
ATOM     26  H   UNL     1      -3.453 -10.597   8.838  0.00  0.00    +0.150 HD
ENDROOT
BRANCH   8  20
ATOM     20  C   UNL     1      -5.133 -11.329   7.790  0.00  0.00    +0.068 C 
ATOM     22  C   UNL     1      -4.320 -12.175   6.819  0.00  0.00    +0.027 C 
ATOM     23  C   UNL     1      -5.612 -10.040   7.132  0.00  0.00    +0.027 C 
ENDBRANCH   8  20
BRANCH  12  16
ATOM     16  C   UNL     1      -3.577 -11.048  17.140  0.00  0.00    +0.031 C 
BRANCH  16  19
ATOM     19  C   UNL     1      -4.776 -11.561  17.915  0.00  0.00    +0.122 C 
BRANCH  19  21
ATOM      4  O   UNL     1      -3.339 -12.170  19.780  0.00  0.00    -0.251 OA
ATOM     21  C   UNL     1      -4.428 -11.794  19.367  0.00  0.00    +0.307 C 
BRANCH  21   3
ATOM      3  O   UNL     1      -5.523 -11.515  20.134  0.00  0.00    -0.468 OA
ATOM     24  C   UNL     1      -6.361 -10.460  19.651  0.00  0.00    +0.280 C 
ENDBRANCH  21   3
ENDBRANCH  19  21
ENDBRANCH  16  19
ENDBRANCH  12  16
TORSDOF 5
ENDMDL
MODEL 3
REMARK VINA RESULT:      -5.4     27.292     30.385
REMARK  Name = 38345003
REMARK  9 active torsions:
REMARK  status: ('A' for Active; 'I' for Inactive)
REMARK    1  A    between atoms: O_3  and  C_21
REMARK    2  A    between atoms: O_3  and  C_24
REMARK    3  A    between atoms: N_5  and  C_17
REMARK    4  A    between atoms: N_8  and  C_20
REMARK    5  A    between atoms: C_12  and  C_16
REMARK    6  A    between atoms: C_16  and  C_19
REMARK    7  A    between atoms: C_19  and  C_21
REMARK    8  A    between atoms: C_20  and  C_22
REMARK    9  A    between atoms: C_20  and  C_23
REMARK                            x       y       z     vdW  Elec       q    Type
REMARK                         _______ _______ _______ _____ _____    ______ ____
ROOT
ATOM      1  O   UNL     1      -8.422 -11.895  16.129  0.00  0.00    -0.274 OA
ATOM      2  O   UNL     1     -10.022  -9.312  17.374  0.00  0.00    -0.253 OA
ATOM      5  N   UNL     1      -5.131 -11.569  18.167  0.00  0.00    -0.296 NA
ATOM      6  N   UNL     1      -8.750 -10.791  18.609  0.00  0.00    -0.273 N 
ATOM      7  N   UNL     1      -6.427 -10.825  15.743  0.00  0.00    -0.312 N 
ATOM      8  N   UNL     1     -10.968 -10.330  19.216  0.00  0.00    -0.297 N 
ATOM      9  C   UNL     1      -6.380 -11.100  18.808  0.00  0.00    +0.088 C 
ATOM     10  C   UNL     1      -7.497 -10.517  17.908  0.00  0.00    +0.180 C 
ATOM     11  C   UNL     1      -7.140 -12.259  19.497  0.00  0.00    +0.040 C 
ATOM     12  C   UNL     1      -4.461 -10.586  17.273  0.00  0.00    +0.074 C 
ATOM     13  C   UNL     1      -8.542 -11.719  19.709  0.00  0.00    +0.112 C 
ATOM     14  C   UNL     1      -5.367  -9.944  16.196  0.00  0.00    +0.123 C 
ATOM     15  C   UNL     1      -7.522 -11.154  16.520  0.00  0.00    +0.235 C 
ATOM     17  C   UNL     1      -4.197 -12.079  19.185  0.00  0.00    +0.105 C 
ATOM     18  C   UNL     1      -9.924 -10.085  18.331  0.00  0.00    +0.303 C 
ATOM     25  H   UNL     1      -6.376 -11.202  14.802  0.00  0.00    +0.149 HD
ATOM     26  H   UNL     1     -10.851 -11.028  19.942  0.00  0.00    +0.150 HD
ENDROOT
BRANCH   8  20
ATOM     20  C   UNL     1     -12.268  -9.705  19.106  0.00  0.00    +0.068 C 
ATOM     22  C   UNL     1     -12.948  -9.654  20.468  0.00  0.00    +0.027 C 
ATOM     23  C   UNL     1     -13.130 -10.439  18.086  0.00  0.00    +0.027 C 
ENDBRANCH   8  20
BRANCH  12  16
ATOM     16  C   UNL     1      -3.271 -11.231  16.529  0.00  0.00    +0.031 C 
BRANCH  16  19
ATOM     19  C   UNL     1      -3.146 -10.666  15.126  0.00  0.00    +0.122 C 
BRANCH  19  21
ATOM      4  O   UNL     1      -0.781 -10.357  15.599  0.00  0.00    -0.251 OA
ATOM     21  C   UNL     1      -1.712 -10.314  14.806  0.00  0.00    +0.307 C 
BRANCH  21   3
ATOM      3  O   UNL     1      -1.630  -9.944  13.494  0.00  0.00    -0.468 OA
ATOM     24  C   UNL     1      -2.047 -10.934  12.547  0.00  0.00    +0.280 C 
ENDBRANCH  21   3
ENDBRANCH  19  21
ENDBRANCH  16  19
ENDBRANCH  12  16
TORSDOF 5
ENDMDL
MODEL 4
REMARK VINA RESULT:      -5.3     28.076     30.899
REMARK  Name = 38345003
REMARK  9 active torsions:
REMARK  status: ('A' for Active; 'I' for Inactive)
REMARK    1  A    between atoms: O_3  and  C_21
REMARK    2  A    between atoms: O_3  and  C_24
REMARK    3  A    between atoms: N_5  and  C_17
REMARK    4  A    between atoms: N_8  and  C_20
REMARK    5  A    between atoms: C_12  and  C_16
REMARK    6  A    between atoms: C_16  and  C_19
REMARK    7  A    between atoms: C_19  and  C_21
REMARK    8  A    between atoms: C_20  and  C_22
REMARK    9  A    between atoms: C_20  and  C_23
REMARK                            x       y       z     vdW  Elec       q    Type
REMARK                         _______ _______ _______ _____ _____    ______ ____
ROOT
ATOM      1  O   UNL     1     -12.352   5.798  21.795  0.00  0.00    -0.274 OA
ATOM      2  O   UNL     1     -15.399   5.081  20.802  0.00  0.00    -0.253 OA
ATOM      5  N   UNL     1     -12.297   9.556  20.817  0.00  0.00    -0.296 NA
ATOM      6  N   UNL     1     -14.796   7.016  21.910  0.00  0.00    -0.273 N 
ATOM      7  N   UNL     1     -11.701   6.926  19.903  0.00  0.00    -0.312 N 
ATOM      8  N   UNL     1     -16.548   5.678  22.712  0.00  0.00    -0.297 N 
ATOM      9  C   UNL     1     -13.600   8.970  21.203  0.00  0.00    +0.088 C 
ATOM     10  C   UNL     1     -13.860   7.477  20.887  0.00  0.00    +0.180 C 
ATOM     11  C   UNL     1     -13.800   8.980  22.737  0.00  0.00    +0.040 C 
ATOM     12  C   UNL     1     -11.905   9.367  19.394  0.00  0.00    +0.074 C 
ATOM     13  C   UNL     1     -14.928   7.994  22.979  0.00  0.00    +0.112 C 
ATOM     14  C   UNL     1     -11.974   7.912  18.875  0.00  0.00    +0.123 C 
ATOM     15  C   UNL     1     -12.583   6.639  20.930  0.00  0.00    +0.235 C 
ATOM     17  C   UNL     1     -12.247  10.979  21.194  0.00  0.00    +0.105 C 
ATOM     18  C   UNL     1     -15.572   5.865  21.740  0.00  0.00    +0.303 C 
ATOM     25  H   UNL     1     -10.833   6.402  19.857  0.00  0.00    +0.149 HD
ATOM     26  H   UNL     1     -16.597   6.318  23.497  0.00  0.00    +0.150 HD
ENDROOT
BRANCH   8  20
ATOM     20  C   UNL     1     -17.454   4.550  22.724  0.00  0.00    +0.068 C 
ATOM     22  C   UNL     1     -18.811   4.968  23.275  0.00  0.00    +0.027 C 
ATOM     23  C   UNL     1     -16.863   3.397  23.526  0.00  0.00    +0.027 C 
ENDBRANCH   8  20
BRANCH  12  16
ATOM     16  C   UNL     1     -10.464   9.864  19.143  0.00  0.00    +0.031 C 
BRANCH  16  19
ATOM     19  C   UNL     1      -9.962   9.390  17.792  0.00  0.00    +0.122 C 
BRANCH  19  21
ATOM      4  O   UNL     1      -9.560  11.645  16.977  0.00  0.00    -0.251 OA
ATOM     21  C   UNL     1      -9.977  10.512  16.780  0.00  0.00    +0.307 C 
BRANCH  21   3
ATOM      3  O   UNL     1     -10.528  10.052  15.618  0.00  0.00    -0.468 OA
ATOM     24  C   UNL     1     -10.660   8.630  15.520  0.00  0.00    +0.280 C 
ENDBRANCH  21   3
ENDBRANCH  19  21
ENDBRANCH  16  19
ENDBRANCH  12  16
TORSDOF 5
ENDMDL
MODEL 5
REMARK VINA RESULT:      -5.3     28.245     30.290
REMARK  Name = 38345003
REMARK  9 active torsions:
REMARK  status: ('A' for Active; 'I' for Inactive)
REMARK    1  A    between atoms: O_3  and  C_21
REMARK    2  A    between atoms: O_3  and  C_24
REMARK    3  A    between atoms: N_5  and  C_17
REMARK    4  A    between atoms: N_8  and  C_20
REMARK    5  A    between atoms: C_12  and  C_16
REMARK    6  A    between atoms: C_16  and  C_19
REMARK    7  A    between atoms: C_19  and  C_21
REMARK    8  A    between atoms: C_20  and  C_22
REMARK    9  A    between atoms: C_20  and  C_23
REMARK                            x       y       z     vdW  Elec       q    Type
REMARK                         _______ _______ _______ _____ _____    ______ ____
ROOT
ATOM      1  O   UNL     1      -6.327  -8.421  11.911  0.00  0.00    -0.274 OA
ATOM      2  O   UNL     1      -7.597  -9.952   9.298  0.00  0.00    -0.253 OA
ATOM      5  N   UNL     1      -3.164 -10.623  12.388  0.00  0.00    -0.296 NA
ATOM      6  N   UNL     1      -5.353  -9.491   9.591  0.00  0.00    -0.273 N 
ATOM      7  N   UNL     1      -5.888 -10.304  13.150  0.00  0.00    -0.312 N 
ATOM      8  N   UNL     1      -6.463  -8.824   7.636  0.00  0.00    -0.297 N 
ATOM      9  C   UNL     1      -3.682 -10.462  11.010  0.00  0.00    +0.088 C 
ATOM     10  C   UNL     1      -5.206 -10.280  10.813  0.00  0.00    +0.180 C 
ATOM     11  C   UNL     1      -3.148  -9.170  10.346  0.00  0.00    +0.040 C 
ATOM     12  C   UNL     1      -3.809 -11.695  13.194  0.00  0.00    +0.074 C 
ATOM     13  C   UNL     1      -4.076  -8.938   9.168  0.00  0.00    +0.112 C 
ATOM     14  C   UNL     1      -5.354 -11.650  13.241  0.00  0.00    +0.123 C 
ATOM     15  C   UNL     1      -5.866  -9.558  11.986  0.00  0.00    +0.235 C 
ATOM     17  C   UNL     1      -1.700 -10.788  12.365  0.00  0.00    +0.105 C 
ATOM     18  C   UNL     1      -6.550  -9.458   8.869  0.00  0.00    +0.303 C 
ATOM     25  H   UNL     1      -6.321  -9.897  13.973  0.00  0.00    +0.149 HD
ATOM     26  H   UNL     1      -5.594  -8.376   7.368  0.00  0.00    +0.150 HD
ENDROOT
BRANCH   8  20
ATOM     20  C   UNL     1      -7.585  -8.678   6.734  0.00  0.00    +0.068 C 
ATOM     22  C   UNL     1      -7.144  -8.925   5.297  0.00  0.00    +0.027 C 
ATOM     23  C   UNL     1      -8.221  -7.302   6.888  0.00  0.00    +0.027 C 
ENDBRANCH   8  20
BRANCH  12  16
ATOM     16  C   UNL     1      -3.315 -11.665  14.657  0.00  0.00    +0.031 C 
BRANCH  16  19
ATOM     19  C   UNL     1      -4.426 -12.074  15.606  0.00  0.00    +0.122 C 
BRANCH  19  21
ATOM      4  O   UNL     1      -5.201  -9.883  16.319  0.00  0.00    -0.251 OA
ATOM     21  C   UNL     1      -4.729 -10.976  16.599  0.00  0.00    +0.307 C 
BRANCH  21   3
ATOM      3  O   UNL     1      -4.390 -11.406  17.850  0.00  0.00    -0.468 OA
ATOM     24  C   UNL     1      -4.860 -12.712  18.201  0.00  0.00    +0.280 C 
ENDBRANCH  21   3
ENDBRANCH  19  21
ENDBRANCH  16  19
ENDBRANCH  12  16
TORSDOF 5
ENDMDL
MODEL 6
REMARK VINA RESULT:      -5.2     28.713     30.654
REMARK  Name = 38345003
REMARK  9 active torsions:
REMARK  status: ('A' for Active; 'I' for Inactive)
REMARK    1  A    between atoms: O_3  and  C_21
REMARK    2  A    between atoms: O_3  and  C_24
REMARK    3  A    between atoms: N_5  and  C_17
REMARK    4  A    between atoms: N_8  and  C_20
REMARK    5  A    between atoms: C_12  and  C_16
REMARK    6  A    between atoms: C_16  and  C_19
REMARK    7  A    between atoms: C_19  and  C_21
REMARK    8  A    between atoms: C_20  and  C_22
REMARK    9  A    between atoms: C_20  and  C_23
REMARK                            x       y       z     vdW  Elec       q    Type
REMARK                         _______ _______ _______ _____ _____    ______ ____
ROOT
ATOM      1  O   UNL     1      -5.181 -13.056  14.779  0.00  0.00    -0.274 OA
ATOM      2  O   UNL     1      -3.008 -11.185  13.178  0.00  0.00    -0.253 OA
ATOM      5  N   UNL     1      -6.583 -10.364  17.203  0.00  0.00    -0.296 NA
ATOM      6  N   UNL     1      -5.138 -10.515  13.770  0.00  0.00    -0.273 N 
ATOM      7  N   UNL     1      -4.608 -12.392  16.902  0.00  0.00    -0.312 N 
ATOM      8  N   UNL     1      -4.402 -10.330  11.551  0.00  0.00    -0.297 N 
ATOM      9  C   UNL     1      -6.107  -9.907  15.877  0.00  0.00    +0.088 C 
ATOM     10  C   UNL     1      -4.940 -10.673  15.209  0.00  0.00    +0.180 C 
ATOM     11  C   UNL     1      -7.204 -10.052  14.795  0.00  0.00    +0.040 C 
ATOM     12  C   UNL     1      -5.534 -10.498  18.249  0.00  0.00    +0.074 C 
ATOM     13  C   UNL     1      -6.453  -9.965  13.480  0.00  0.00    +0.112 C 
ATOM     14  C   UNL     1      -4.297 -11.334  17.845  0.00  0.00    +0.123 C 
ATOM     15  C   UNL     1      -4.926 -12.156  15.577  0.00  0.00    +0.235 C 
ATOM     17  C   UNL     1      -7.688  -9.508  17.669  0.00  0.00    +0.105 C 
ATOM     18  C   UNL     1      -4.100 -10.710  12.853  0.00  0.00    +0.303 C 
ATOM     25  H   UNL     1      -4.567 -13.355  17.221  0.00  0.00    +0.149 HD
ATOM     26  H   UNL     1      -5.339 -10.012  11.330  0.00  0.00    +0.150 HD
ENDROOT
BRANCH   8  20
ATOM     20  C   UNL     1      -3.472 -10.451  10.450  0.00  0.00    +0.068 C 
ATOM     22  C   UNL     1      -2.780  -9.119  10.192  0.00  0.00    +0.027 C 
ATOM     23  C   UNL     1      -4.184 -10.954   9.200  0.00  0.00    +0.027 C 
ENDBRANCH   8  20
BRANCH  12  16
ATOM     16  C   UNL     1      -6.106 -11.138  19.533  0.00  0.00    +0.031 C 
BRANCH  16  19
ATOM     19  C   UNL     1      -6.757 -12.473  19.222  0.00  0.00    +0.122 C 
BRANCH  19  21
ATOM      4  O   UNL     1      -8.513 -13.666  20.407  0.00  0.00    -0.251 OA
ATOM     21  C   UNL     1      -8.074 -12.620  19.949  0.00  0.00    +0.307 C 
BRANCH  21   3
ATOM      3  O   UNL     1      -8.685 -11.400  20.008  0.00  0.00    -0.468 OA
ATOM     24  C   UNL     1     -10.114 -11.430  20.090  0.00  0.00    +0.280 C 
ENDBRANCH  21   3
ENDBRANCH  19  21
ENDBRANCH  16  19
ENDBRANCH  12  16
TORSDOF 5
ENDMDL
MODEL 7
REMARK VINA RESULT:      -5.2     26.762     30.068
REMARK  Name = 38345003
REMARK  9 active torsions:
REMARK  status: ('A' for Active; 'I' for Inactive)
REMARK    1  A    between atoms: O_3  and  C_21
REMARK    2  A    between atoms: O_3  and  C_24
REMARK    3  A    between atoms: N_5  and  C_17
REMARK    4  A    between atoms: N_8  and  C_20
REMARK    5  A    between atoms: C_12  and  C_16
REMARK    6  A    between atoms: C_16  and  C_19
REMARK    7  A    between atoms: C_19  and  C_21
REMARK    8  A    between atoms: C_20  and  C_22
REMARK    9  A    between atoms: C_20  and  C_23
REMARK                            x       y       z     vdW  Elec       q    Type
REMARK                         _______ _______ _______ _____ _____    ______ ____
ROOT
ATOM      1  O   UNL     1     -12.708   9.651  17.132  0.00  0.00    -0.274 OA
ATOM      2  O   UNL     1      -9.507  10.337  16.867  0.00  0.00    -0.253 OA
ATOM      5  N   UNL     1     -12.953   9.539  21.006  0.00  0.00    -0.296 NA
ATOM      6  N   UNL     1     -10.935  11.293  18.410  0.00  0.00    -0.273 N 
ATOM      7  N   UNL     1     -12.503   7.964  18.677  0.00  0.00    -0.312 N 
ATOM      8  N   UNL     1      -9.621  12.637  17.006  0.00  0.00    -0.297 N 
ATOM      9  C   UNL     1     -11.944  10.444  20.412  0.00  0.00    +0.088 C 
ATOM     10  C   UNL     1     -11.289  10.038  19.070  0.00  0.00    +0.180 C 
ATOM     11  C   UNL     1     -12.557  11.814  20.032  0.00  0.00    +0.040 C 
ATOM     12  C   UNL     1     -12.526   8.124  21.174  0.00  0.00    +0.074 C 
ATOM     13  C   UNL     1     -11.548  12.429  19.080  0.00  0.00    +0.112 C 
ATOM     14  C   UNL     1     -11.935   7.455  19.911  0.00  0.00    +0.123 C 
ATOM     15  C   UNL     1     -12.230   9.227  18.181  0.00  0.00    +0.235 C 
ATOM     17  C   UNL     1     -13.450  10.095  22.277  0.00  0.00    +0.105 C 
ATOM     18  C   UNL     1      -9.983  11.350  17.387  0.00  0.00    +0.303 C 
ATOM     25  H   UNL     1     -13.113   7.359  18.137  0.00  0.00    +0.149 HD
ATOM     26  H   UNL     1     -10.096  13.430  17.421  0.00  0.00    +0.150 HD
ENDROOT
BRANCH   8  20
ATOM     20  C   UNL     1      -8.655  12.918  15.966  0.00  0.00    +0.068 C 
ATOM     22  C   UNL     1      -7.399  13.536  16.563  0.00  0.00    +0.027 C 
ATOM     23  C   UNL     1      -9.264  13.822  14.900  0.00  0.00    +0.027 C 
ENDBRANCH   8  20
BRANCH  12  16
ATOM     16  C   UNL     1     -13.703   7.238  21.640  0.00  0.00    +0.031 C 
BRANCH  16  19
ATOM     19  C   UNL     1     -13.262   5.793  21.781  0.00  0.00    +0.122 C 
BRANCH  19  21
ATOM      4  O   UNL     1     -15.327   4.518  21.629  0.00  0.00    -0.251 OA
ATOM     21  C   UNL     1     -14.388   4.928  22.298  0.00  0.00    +0.307 C 
BRANCH  21   3
ATOM      3  O   UNL     1     -14.182   4.681  23.625  0.00  0.00    -0.468 OA
ATOM     24  C   UNL     1     -15.317   4.185  24.343  0.00  0.00    +0.280 C 
ENDBRANCH  21   3
ENDBRANCH  19  21
ENDBRANCH  16  19
ENDBRANCH  12  16
TORSDOF 5
ENDMDL
MODEL 8
REMARK VINA RESULT:      -5.1     17.762     20.092
REMARK  Name = 38345003
REMARK  9 active torsions:
REMARK  status: ('A' for Active; 'I' for Inactive)
REMARK    1  A    between atoms: O_3  and  C_21
REMARK    2  A    between atoms: O_3  and  C_24
REMARK    3  A    between atoms: N_5  and  C_17
REMARK    4  A    between atoms: N_8  and  C_20
REMARK    5  A    between atoms: C_12  and  C_16
REMARK    6  A    between atoms: C_16  and  C_19
REMARK    7  A    between atoms: C_19  and  C_21
REMARK    8  A    between atoms: C_20  and  C_22
REMARK    9  A    between atoms: C_20  and  C_23
REMARK                            x       y       z     vdW  Elec       q    Type
REMARK                         _______ _______ _______ _____ _____    ______ ____
ROOT
ATOM      1  O   UNL     1      10.577   4.188   3.612  0.00  0.00    -0.274 OA
ATOM      2  O   UNL     1      13.238   4.152   1.688  0.00  0.00    -0.253 OA
ATOM      5  N   UNL     1      10.176   8.034   3.967  0.00  0.00    -0.296 NA
ATOM      6  N   UNL     1      11.460   5.606   1.448  0.00  0.00    -0.273 N 
ATOM      7  N   UNL     1      11.356   5.721   5.134  0.00  0.00    -0.312 N 
ATOM      8  N   UNL     1      12.198   4.314  -0.365  0.00  0.00    -0.297 N 
ATOM      9  C   UNL     1      10.767   7.523   2.710  0.00  0.00    +0.088 C 
ATOM     10  C   UNL     1      11.606   6.223   2.764  0.00  0.00    +0.180 C 
ATOM     11  C   UNL     1       9.676   7.121   1.688  0.00  0.00    +0.040 C 
ATOM     12  C   UNL     1      11.128   8.212   5.097  0.00  0.00    +0.074 C 
ATOM     13  C   UNL     1      10.404   6.248   0.682  0.00  0.00    +0.112 C 
ATOM     14  C   UNL     1      12.010   6.984   5.420  0.00  0.00    +0.123 C 
ATOM     15  C   UNL     1      11.125   5.262   3.850  0.00  0.00    +0.235 C 
ATOM     17  C   UNL     1       9.426   9.275   3.708  0.00  0.00    +0.105 C 
ATOM     18  C   UNL     1      12.365   4.652   0.973  0.00  0.00    +0.303 C 
ATOM     25  H   UNL     1      11.074   5.133   5.911  0.00  0.00    +0.149 HD
ATOM     26  H   UNL     1      11.420   4.706  -0.883  0.00  0.00    +0.150 HD
ENDROOT
BRANCH   8  20
ATOM     20  C   UNL     1      13.026   3.346  -1.052  0.00  0.00    +0.068 C 
ATOM     22  C   UNL     1      14.196   4.040  -1.736  0.00  0.00    +0.027 C 
ATOM     23  C   UNL     1      12.198   2.545  -2.050  0.00  0.00    +0.027 C 
ENDBRANCH   8  20
BRANCH  12  16
ATOM     16  C   UNL     1      10.384   8.584   6.398  0.00  0.00    +0.031 C 
BRANCH  16  19
ATOM     19  C   UNL     1       9.032   7.897   6.458  0.00  0.00    +0.122 C 
BRANCH  19  21
ATOM      4  O   UNL     1       8.598   7.252   8.761  0.00  0.00    -0.251 OA
ATOM     21  C   UNL     1       8.954   6.948   7.631  0.00  0.00    +0.307 C 
BRANCH  21   3
ATOM      3  O   UNL     1       9.344   5.705   7.221  0.00  0.00    -0.468 OA
ATOM     24  C   UNL     1       9.725   4.803   8.265  0.00  0.00    +0.280 C 
ENDBRANCH  21   3
ENDBRANCH  19  21
ENDBRANCH  16  19
ENDBRANCH  12  16
TORSDOF 5
ENDMDL
MODEL 9
REMARK VINA RESULT:      -5.1      3.322      7.595
REMARK  Name = 38345003
REMARK  9 active torsions:
REMARK  status: ('A' for Active; 'I' for Inactive)
REMARK    1  A    between atoms: O_3  and  C_21
REMARK    2  A    between atoms: O_3  and  C_24
REMARK    3  A    between atoms: N_5  and  C_17
REMARK    4  A    between atoms: N_8  and  C_20
REMARK    5  A    between atoms: C_12  and  C_16
REMARK    6  A    between atoms: C_16  and  C_19
REMARK    7  A    between atoms: C_19  and  C_21
REMARK    8  A    between atoms: C_20  and  C_22
REMARK    9  A    between atoms: C_20  and  C_23
REMARK                            x       y       z     vdW  Elec       q    Type
REMARK                         _______ _______ _______ _____ _____    ______ ____
ROOT
ATOM      1  O   UNL     1      15.830   9.699  22.265  0.00  0.00    -0.274 OA
ATOM      2  O   UNL     1      18.914   9.024  21.359  0.00  0.00    -0.253 OA
ATOM      5  N   UNL     1      13.977   7.999  19.305  0.00  0.00    -0.296 NA
ATOM      6  N   UNL     1      17.146   7.545  21.213  0.00  0.00    -0.273 N 
ATOM      7  N   UNL     1      15.099  10.450  20.221  0.00  0.00    -0.312 N 
ATOM      8  N   UNL     1      19.122   6.938  22.322  0.00  0.00    -0.297 N 
ATOM      9  C   UNL     1      15.272   7.418  19.722  0.00  0.00    +0.088 C 
ATOM     10  C   UNL     1      16.354   8.364  20.298  0.00  0.00    +0.180 C 
ATOM     11  C   UNL     1      15.102   6.425  20.898  0.00  0.00    +0.040 C 
ATOM     12  C   UNL     1      14.063   9.142  18.356  0.00  0.00    +0.074 C 
ATOM     13  C   UNL     1      16.500   6.267  21.466  0.00  0.00    +0.112 C 
ATOM     14  C   UNL     1      15.012  10.287  18.782  0.00  0.00    +0.123 C 
ATOM     15  C   UNL     1      15.752   9.553  21.047  0.00  0.00    +0.235 C 
ATOM     17  C   UNL     1      13.092   6.944  18.781  0.00  0.00    +0.105 C 
ATOM     18  C   UNL     1      18.434   7.916  21.614  0.00  0.00    +0.303 C 
ATOM     25  H   UNL     1      14.682  11.273  20.643  0.00  0.00    +0.149 HD
ATOM     26  H   UNL     1      18.650   6.073  22.561  0.00  0.00    +0.150 HD
ENDROOT
BRANCH   8  20
ATOM     20  C   UNL     1      20.465   7.119  22.830  0.00  0.00    +0.068 C 
ATOM     22  C   UNL     1      21.312   5.888  22.537  0.00  0.00    +0.027 C 
ATOM     23  C   UNL     1      20.435   7.427  24.322  0.00  0.00    +0.027 C 
ENDBRANCH   8  20
BRANCH  12  16
ATOM     16  C   UNL     1      12.675   9.776  18.121  0.00  0.00    +0.031 C 
BRANCH  16  19
ATOM     19  C   UNL     1      12.169   9.457  16.726  0.00  0.00    +0.122 C 
BRANCH  19  21
ATOM      4  O   UNL     1      13.735   8.744  15.008  0.00  0.00    -0.251 OA
ATOM     21  C   UNL     1      13.260   9.637  15.696  0.00  0.00    +0.307 C 
BRANCH  21   3
ATOM      3  O   UNL     1      13.622  10.953  15.662  0.00  0.00    -0.468 OA
ATOM     24  C   UNL     1      14.040  11.444  14.384  0.00  0.00    +0.280 C 
ENDBRANCH  21   3
ENDBRANCH  19  21
ENDBRANCH  16  19
ENDBRANCH  12  16
TORSDOF 5
ENDMDL
MODEL 10
REMARK VINA RESULT:      -5.1      1.768      2.138
REMARK  Name = 38345003
REMARK  9 active torsions:
REMARK  status: ('A' for Active; 'I' for Inactive)
REMARK    1  A    between atoms: O_3  and  C_21
REMARK    2  A    between atoms: O_3  and  C_24
REMARK    3  A    between atoms: N_5  and  C_17
REMARK    4  A    between atoms: N_8  and  C_20
REMARK    5  A    between atoms: C_12  and  C_16
REMARK    6  A    between atoms: C_16  and  C_19
REMARK    7  A    between atoms: C_19  and  C_21
REMARK    8  A    between atoms: C_20  and  C_22
REMARK    9  A    between atoms: C_20  and  C_23
REMARK                            x       y       z     vdW  Elec       q    Type
REMARK                         _______ _______ _______ _____ _____    ______ ____
ROOT
ATOM      1  O   UNL     1      16.655   9.891  20.266  0.00  0.00    -0.274 OA
ATOM      2  O   UNL     1      14.601   9.339  22.768  0.00  0.00    -0.253 OA
ATOM      5  N   UNL     1      18.495   6.470  20.268  0.00  0.00    -0.296 NA
ATOM      6  N   UNL     1      15.120   7.798  21.128  0.00  0.00    -0.273 N 
ATOM      7  N   UNL     1      18.560   9.124  21.296  0.00  0.00    -0.312 N 
ATOM      8  N   UNL     1      12.885   8.324  21.606  0.00  0.00    -0.297 N 
ATOM      9  C   UNL     1      17.085   6.486  20.715  0.00  0.00    +0.088 C 
ATOM     10  C   UNL     1      16.551   7.754  21.425  0.00  0.00    +0.180 C 
ATOM     11  C   UNL     1      16.104   6.390  19.521  0.00  0.00    +0.040 C 
ATOM     12  C   UNL     1      19.503   6.807  21.310  0.00  0.00    +0.074 C 
ATOM     13  C   UNL     1      14.772   6.844  20.087  0.00  0.00    +0.112 C 
ATOM     14  C   UNL     1      19.239   8.116  22.089  0.00  0.00    +0.123 C 
ATOM     15  C   UNL     1      17.229   9.031  20.931  0.00  0.00    +0.235 C 
ATOM     17  C   UNL     1      18.811   5.183  19.625  0.00  0.00    +0.105 C 
ATOM     18  C   UNL     1      14.226   8.546  21.900  0.00  0.00    +0.303 C 
ATOM     25  H   UNL     1      19.077   9.951  21.014  0.00  0.00    +0.149 HD
ATOM     26  H   UNL     1      12.640   7.714  20.836  0.00  0.00    +0.150 HD
ENDROOT
BRANCH   8  20
ATOM     20  C   UNL     1      11.799   8.997  22.285  0.00  0.00    +0.068 C 
ATOM     22  C   UNL     1      10.601   8.067  22.419  0.00  0.00    +0.027 C 
ATOM     23  C   UNL     1      11.424  10.281  21.554  0.00  0.00    +0.027 C 
ENDBRANCH   8  20
BRANCH  12  16
ATOM     16  C   UNL     1      20.916   6.927  20.700  0.00  0.00    +0.031 C 
BRANCH  16  19
ATOM     19  C   UNL     1      21.831   7.718  21.617  0.00  0.00    +0.122 C 
BRANCH  19  21
ATOM      4  O   UNL     1      22.090   9.597  20.096  0.00  0.00    -0.251 OA
ATOM     21  C   UNL     1      22.592   8.774  20.850  0.00  0.00    +0.307 C 
BRANCH  21   3
ATOM      3  O   UNL     1      23.922   8.656  21.137  0.00  0.00    -0.468 OA
ATOM     24  C   UNL     1      24.243   8.538  22.527  0.00  0.00    +0.280 C 
ENDBRANCH  21   3
ENDBRANCH  19  21
ENDBRANCH  16  19
ENDBRANCH  12  16
TORSDOF 5
ENDMDL
