MODEL 1
REMARK VINA RESULT:      -6.1      0.000      0.000
REMARK  Name = 38028384
REMARK  13 active torsions:
REMARK  status: ('A' for Active; 'I' for Inactive)
REMARK    1  A    between atoms: O_3  and  C_22
REMARK    2  A    between atoms: O_3  and  C_25
REMARK    3  A    between atoms: N_4  and  C_14
REMARK    4  A    between atoms: N_5  and  C_21
REMARK    5  A    between atoms: C_7  and  C_11
REMARK    6  A    between atoms: C_8  and  C_14
REMARK    7  A    between atoms: C_10  and  C_15
REMARK    8  A    between atoms: C_11  and  C_16
REMARK    9  A    between atoms: C_11  and  C_17
REMARK   10  A    between atoms: C_12  and  C_18
REMARK   11  A    between atoms: C_15  and  C_19
REMARK   12  A    between atoms: C_20  and  C_22
REMARK   13  A    between atoms: C_21  and  C_23
REMARK                            x       y       z     vdW  Elec       q    Type
REMARK                         _______ _______ _______ _____ _____    ______ ____
ROOT
ATOM      7  C   UNL     1      14.781   8.656  20.656  0.00  0.00    +0.000 C 
ATOM      8  C   UNL     1      14.340   7.210  20.321  0.00  0.00    +0.032 C 
ATOM      9  C   UNL     1      14.238   9.077  22.031  0.00  0.00    +0.012 C 
ATOM     10  C   UNL     1      12.700   9.007  22.097  0.00  0.00    +0.023 C 
ATOM     12  C   UNL     1      12.172   7.706  21.529  0.00  0.00    -0.073 C 
ATOM     13  C   UNL     1      12.923   6.909  20.749  0.00  0.00    -0.022 C 
ATOM     18  C   UNL     1      10.772   7.318  21.918  0.00  0.00    +0.039 C 
ENDROOT
BRANCH   7  11
ATOM     11  C   UNL     1      16.305   8.807  20.632  0.00  0.00    -0.013 C 
ATOM     16  C   UNL     1      16.724  10.090  21.344  0.00  0.00    +0.007 C 
ATOM     17  C   UNL     1      16.969   7.591  21.271  0.00  0.00    +0.007 C 
ENDBRANCH   7  11
BRANCH   8  14
ATOM     14  C   UNL     1      14.494   6.918  18.823  0.00  0.00    +0.112 C 
BRANCH  14   4
ATOM      2  O   UNL     1      12.012   7.252  17.376  0.00  0.00    -0.273 OA
ATOM      4  N   UNL     1      14.095   8.048  18.043  0.00  0.00    -0.313 N 
ATOM     20  C   UNL     1      12.874   8.127  17.374  0.00  0.00    +0.239 C 
ATOM     29  H   UNL     1      14.710   8.856  18.020  0.00  0.00    +0.149 HD
BRANCH  20  22
ATOM     22  C   UNL     1      12.713   9.434  16.628  0.00  0.00    +0.255 C 
BRANCH  22   3
ATOM      3  O   UNL     1      13.974  10.000  16.336  0.00  0.00    -0.374 OA
ATOM     25  C   UNL     1      13.891  10.981  15.307  0.00  0.00    +0.194 C 
ENDBRANCH  22   3
ENDBRANCH  20  22
ENDBRANCH  14   4
ENDBRANCH   8  14
BRANCH  10  15
ATOM     15  C   UNL     1      12.063  10.212  21.396  0.00  0.00    +0.103 C 
BRANCH  15  19
ATOM      1  O   UNL     1      10.961  12.262  22.054  0.00  0.00    -0.276 OA
ATOM      5  N   UNL     1      11.500  10.682  23.672  0.00  0.00    -0.310 N 
ATOM     19  C   UNL     1      11.443  11.180  22.378  0.00  0.00    +0.214 C 
ATOM     30  H   UNL     1      11.918   9.772  23.840  0.00  0.00    +0.149 HD
BRANCH   5  21
ATOM     21  C   UNL     1      10.983  11.397  24.815  0.00  0.00    +0.159 C 
BRANCH  21  23
ATOM      6  N   UNL     1      13.208  11.790  25.708  0.00  0.00    -0.258 NA
ATOM     23  C   UNL     1      12.004  12.326  25.407  0.00  0.00    +0.058 A 
ATOM     24  C   UNL     1      11.674  13.655  25.611  0.00  0.00    +0.025 A 
ATOM     26  C   UNL     1      12.641  14.489  26.161  0.00  0.00    +0.003 A 
ATOM     27  C   UNL     1      14.123  12.631  26.240  0.00  0.00    +0.111 A 
ATOM     28  C   UNL     1      13.892  13.975  26.484  0.00  0.00    +0.020 A 
ENDBRANCH  21  23
ENDBRANCH   5  21
ENDBRANCH  15  19
ENDBRANCH  10  15
TORSDOF 9
ENDMDL
MODEL 2
REMARK VINA RESULT:      -6.0      4.907      8.679
REMARK  Name = 38028384
REMARK  13 active torsions:
REMARK  status: ('A' for Active; 'I' for Inactive)
REMARK    1  A    between atoms: O_3  and  C_22
REMARK    2  A    between atoms: O_3  and  C_25
REMARK    3  A    between atoms: N_4  and  C_14
REMARK    4  A    between atoms: N_5  and  C_21
REMARK    5  A    between atoms: C_7  and  C_11
REMARK    6  A    between atoms: C_8  and  C_14
REMARK    7  A    between atoms: C_10  and  C_15
REMARK    8  A    between atoms: C_11  and  C_16
REMARK    9  A    between atoms: C_11  and  C_17
REMARK   10  A    between atoms: C_12  and  C_18
REMARK   11  A    between atoms: C_15  and  C_19
REMARK   12  A    between atoms: C_20  and  C_22
REMARK   13  A    between atoms: C_21  and  C_23
REMARK                            x       y       z     vdW  Elec       q    Type
REMARK                         _______ _______ _______ _____ _____    ______ ____
ROOT
ATOM      7  C   UNL     1      20.537   6.082  21.940  0.00  0.00    +0.000 C 
ATOM      8  C   UNL     1      20.718   7.325  22.845  0.00  0.00    +0.032 C 
ATOM      9  C   UNL     1      20.003   6.496  20.560  0.00  0.00    +0.012 C 
ATOM     10  C   UNL     1      18.654   7.233  20.653  0.00  0.00    +0.023 C 
ATOM     12  C   UNL     1      18.672   8.306  21.723  0.00  0.00    -0.073 C 
ATOM     13  C   UNL     1      19.610   8.340  22.686  0.00  0.00    -0.022 C 
ATOM     18  C   UNL     1      17.612   9.369  21.633  0.00  0.00    +0.039 C 
ENDROOT
BRANCH   7  11
ATOM     11  C   UNL     1      21.845   5.301  21.777  0.00  0.00    -0.013 C 
ATOM     16  C   UNL     1      21.556   3.850  21.405  0.00  0.00    +0.007 C 
ATOM     17  C   UNL     1      22.733   5.963  20.728  0.00  0.00    +0.007 C 
ENDBRANCH   7  11
BRANCH   8  14
ATOM     14  C   UNL     1      20.835   6.924  24.320  0.00  0.00    +0.112 C 
BRANCH  14   4
ATOM      2  O   UNL     1      19.921   6.953  27.064  0.00  0.00    -0.273 OA
ATOM      4  N   UNL     1      20.692   8.064  25.170  0.00  0.00    -0.313 N 
ATOM     20  C   UNL     1      20.242   7.989  26.487  0.00  0.00    +0.239 C 
ATOM     29  H   UNL     1      20.986   8.968  24.811  0.00  0.00    +0.149 HD
BRANCH  20  22
ATOM     22  C   UNL     1      20.190   9.348  27.153  0.00  0.00    +0.255 C 
BRANCH  22   3
ATOM      3  O   UNL     1      19.130   9.406  28.084  0.00  0.00    -0.374 OA
ATOM     25  C   UNL     1      18.379  10.611  27.960  0.00  0.00    +0.194 C 
ENDBRANCH  22   3
ENDBRANCH  20  22
ENDBRANCH  14   4
ENDBRANCH   8  14
BRANCH  10  15
ATOM     15  C   UNL     1      17.503   6.248  20.883  0.00  0.00    +0.103 C 
BRANCH  15  19
ATOM      1  O   UNL     1      16.707   5.618  18.687  0.00  0.00    -0.276 OA
ATOM      5  N   UNL     1      15.411   7.017  20.017  0.00  0.00    -0.310 N 
ATOM     19  C   UNL     1      16.523   6.238  19.732  0.00  0.00    +0.214 C 
ATOM     30  H   UNL     1      15.349   7.492  20.912  0.00  0.00    +0.149 HD
BRANCH   5  21
ATOM     21  C   UNL     1      14.313   7.191  19.095  0.00  0.00    +0.159 C 
BRANCH  21  23
ATOM      6  N   UNL     1      12.785   6.715  20.922  0.00  0.00    -0.258 NA
ATOM     23  C   UNL     1      13.015   7.444  19.807  0.00  0.00    +0.058 A 
ATOM     24  C   UNL     1      12.137   8.388  19.301  0.00  0.00    +0.025 A 
ATOM     26  C   UNL     1      10.943   8.598  19.983  0.00  0.00    +0.003 A 
ATOM     27  C   UNL     1      11.614   6.947  21.559  0.00  0.00    +0.111 A 
ATOM     28  C   UNL     1      10.670   7.868  21.135  0.00  0.00    +0.020 A 
ENDBRANCH  21  23
ENDBRANCH   5  21
ENDBRANCH  15  19
ENDBRANCH  10  15
TORSDOF 9
ENDMDL
MODEL 3
REMARK VINA RESULT:      -5.9     26.850     29.535
REMARK  Name = 38028384
REMARK  13 active torsions:
REMARK  status: ('A' for Active; 'I' for Inactive)
REMARK    1  A    between atoms: O_3  and  C_22
REMARK    2  A    between atoms: O_3  and  C_25
REMARK    3  A    between atoms: N_4  and  C_14
REMARK    4  A    between atoms: N_5  and  C_21
REMARK    5  A    between atoms: C_7  and  C_11
REMARK    6  A    between atoms: C_8  and  C_14
REMARK    7  A    between atoms: C_10  and  C_15
REMARK    8  A    between atoms: C_11  and  C_16
REMARK    9  A    between atoms: C_11  and  C_17
REMARK   10  A    between atoms: C_12  and  C_18
REMARK   11  A    between atoms: C_15  and  C_19
REMARK   12  A    between atoms: C_20  and  C_22
REMARK   13  A    between atoms: C_21  and  C_23
REMARK                            x       y       z     vdW  Elec       q    Type
REMARK                         _______ _______ _______ _____ _____    ______ ____
ROOT
ATOM      7  C   UNL     1      -6.263 -10.323  15.873  0.00  0.00    +0.000 C 
ATOM      8  C   UNL     1      -6.890 -10.549  17.272  0.00  0.00    +0.032 C 
ATOM      9  C   UNL     1      -5.274 -11.450  15.540  0.00  0.00    +0.012 C 
ATOM     10  C   UNL     1      -4.136 -11.553  16.574  0.00  0.00    +0.023 C 
ATOM     12  C   UNL     1      -4.662 -11.510  17.994  0.00  0.00    -0.073 C 
ATOM     13  C   UNL     1      -5.899 -11.073  18.286  0.00  0.00    -0.022 C 
ATOM     18  C   UNL     1      -3.748 -12.028  19.070  0.00  0.00    +0.039 C 
ENDROOT
BRANCH   7  11
ATOM     11  C   UNL     1      -7.331 -10.230  14.779  0.00  0.00    -0.013 C 
ATOM     16  C   UNL     1      -6.678 -10.112  13.406  0.00  0.00    +0.007 C 
ATOM     17  C   UNL     1      -8.257 -11.441  14.836  0.00  0.00    +0.007 C 
ENDBRANCH   7  11
BRANCH   8  14
ATOM     14  C   UNL     1      -7.535  -9.264  17.803  0.00  0.00    +0.112 C 
BRANCH  14   4
ATOM      2  O   UNL     1      -9.673  -7.839  16.477  0.00  0.00    -0.273 OA
ATOM      4  N   UNL     1      -8.940  -9.443  17.995  0.00  0.00    -0.313 N 
ATOM     20  C   UNL     1      -9.908  -8.709  17.311  0.00  0.00    +0.239 C 
ATOM     29  H   UNL     1      -9.247 -10.180  18.623  0.00  0.00    +0.149 HD
BRANCH  20  22
ATOM     22  C   UNL     1     -11.314  -9.107  17.708  0.00  0.00    +0.255 C 
BRANCH  22   3
ATOM      3  O   UNL     1     -11.291 -10.218  18.578  0.00  0.00    -0.374 OA
ATOM     25  C   UNL     1     -12.117 -10.015  19.721  0.00  0.00    +0.194 C 
ENDBRANCH  22   3
ENDBRANCH  20  22
ENDBRANCH  14   4
ENDBRANCH   8  14
BRANCH  10  15
ATOM     15  C   UNL     1      -3.084 -10.463  16.345  0.00  0.00    +0.103 C 
BRANCH  15  19
ATOM      1  O   UNL     1      -1.094 -11.437  15.373  0.00  0.00    -0.276 OA
ATOM      5  N   UNL     1      -2.613 -10.328  14.005  0.00  0.00    -0.310 N 
ATOM     19  C   UNL     1      -2.140 -10.811  15.217  0.00  0.00    +0.214 C 
ATOM     30  H   UNL     1      -3.492  -9.822  13.977  0.00  0.00    +0.149 HD
BRANCH   5  21
ATOM     21  C   UNL     1      -1.913 -10.513  12.756  0.00  0.00    +0.159 C 
BRANCH  21  23
ATOM      6  N   UNL     1      -3.721 -11.421  11.412  0.00  0.00    -0.258 NA
ATOM     23  C   UNL     1      -2.834 -10.414  11.574  0.00  0.00    +0.058 A 
ATOM     24  C   UNL     1      -2.735  -9.323  10.727  0.00  0.00    +0.025 A 
ATOM     26  C   UNL     1      -3.603  -9.261   9.641  0.00  0.00    +0.003 A 
ATOM     27  C   UNL     1      -4.549 -11.327  10.347  0.00  0.00    +0.111 A 
ATOM     28  C   UNL     1      -4.530 -10.278   9.441  0.00  0.00    +0.020 A 
ENDBRANCH  21  23
ENDBRANCH   5  21
ENDBRANCH  15  19
ENDBRANCH  10  15
TORSDOF 9
ENDMDL
MODEL 4
REMARK VINA RESULT:      -5.8      5.602      9.518
REMARK  Name = 38028384
REMARK  13 active torsions:
REMARK  status: ('A' for Active; 'I' for Inactive)
REMARK    1  A    between atoms: O_3  and  C_22
REMARK    2  A    between atoms: O_3  and  C_25
REMARK    3  A    between atoms: N_4  and  C_14
REMARK    4  A    between atoms: N_5  and  C_21
REMARK    5  A    between atoms: C_7  and  C_11
REMARK    6  A    between atoms: C_8  and  C_14
REMARK    7  A    between atoms: C_10  and  C_15
REMARK    8  A    between atoms: C_11  and  C_16
REMARK    9  A    between atoms: C_11  and  C_17
REMARK   10  A    between atoms: C_12  and  C_18
REMARK   11  A    between atoms: C_15  and  C_19
REMARK   12  A    between atoms: C_20  and  C_22
REMARK   13  A    between atoms: C_21  and  C_23
REMARK                            x       y       z     vdW  Elec       q    Type
REMARK                         _______ _______ _______ _____ _____    ______ ____
ROOT
ATOM      7  C   UNL     1      17.422   8.251  21.559  0.00  0.00    +0.000 C 
ATOM      8  C   UNL     1      16.832   7.197  20.591  0.00  0.00    +0.032 C 
ATOM      9  C   UNL     1      18.882   8.558  21.194  0.00  0.00    +0.012 C 
ATOM     10  C   UNL     1      19.772   7.302  21.240  0.00  0.00    +0.023 C 
ATOM     12  C   UNL     1      19.127   6.130  20.528  0.00  0.00    -0.073 C 
ATOM     13  C   UNL     1      17.816   6.106  20.233  0.00  0.00    -0.022 C 
ATOM     18  C   UNL     1      20.035   5.004  20.119  0.00  0.00    +0.039 C 
ENDROOT
BRANCH   7  11
ATOM     11  C   UNL     1      16.603   9.546  21.558  0.00  0.00    -0.013 C 
ATOM     16  C   UNL     1      17.451  10.712  22.057  0.00  0.00    +0.007 C 
ATOM     17  C   UNL     1      16.061   9.831  20.161  0.00  0.00    +0.007 C 
ENDBRANCH   7  11
BRANCH   8  14
ATOM     14  C   UNL     1      15.558   6.567  21.167  0.00  0.00    +0.112 C 
BRANCH  14   4
ATOM      2  O   UNL     1      13.054   8.010  21.071  0.00  0.00    -0.273 OA
ATOM      4  N   UNL     1      14.543   6.468  20.165  0.00  0.00    -0.313 N 
ATOM     20  C   UNL     1      13.359   7.204  20.196  0.00  0.00    +0.239 C 
ATOM     29  H   UNL     1      14.719   5.871  19.362  0.00  0.00    +0.149 HD
BRANCH  20  22
ATOM     22  C   UNL     1      12.467   6.903  19.011  0.00  0.00    +0.255 C 
BRANCH  22   3
ATOM      3  O   UNL     1      11.572   7.969  18.778  0.00  0.00    -0.374 OA
ATOM     25  C   UNL     1      11.915   8.707  17.609  0.00  0.00    +0.194 C 
ENDBRANCH  22   3
ENDBRANCH  20  22
ENDBRANCH  14   4
ENDBRANCH   8  14
BRANCH  10  15
ATOM     15  C   UNL     1      20.134   6.935  22.683  0.00  0.00    +0.103 C 
BRANCH  15  19
ATOM      1  O   UNL     1      22.460   7.601  22.730  0.00  0.00    -0.276 OA
ATOM      5  N   UNL     1      21.892   5.391  23.176  0.00  0.00    -0.310 N 
ATOM     19  C   UNL     1      21.620   6.714  22.858  0.00  0.00    +0.214 C 
ATOM     30  H   UNL     1      21.127   4.729  23.263  0.00  0.00    +0.149 HD
BRANCH   5  21
ATOM     21  C   UNL     1      23.229   4.893  23.399  0.00  0.00    +0.159 C 
BRANCH  21  23
ATOM      6  N   UNL     1      24.744   4.586  21.525  0.00  0.00    -0.258 NA
ATOM     23  C   UNL     1      23.723   4.069  22.244  0.00  0.00    +0.058 A 
ATOM     24  C   UNL     1      23.124   2.849  21.977  0.00  0.00    +0.025 A 
ATOM     26  C   UNL     1      23.603   2.110  20.901  0.00  0.00    +0.003 A 
ATOM     27  C   UNL     1      25.183   3.839  20.486  0.00  0.00    +0.111 A 
ATOM     28  C   UNL     1      24.653   2.608  20.137  0.00  0.00    +0.020 A 
ENDBRANCH  21  23
ENDBRANCH   5  21
ENDBRANCH  15  19
ENDBRANCH  10  15
TORSDOF 9
ENDMDL
MODEL 5
REMARK VINA RESULT:      -5.8     26.864     29.199
REMARK  Name = 38028384
REMARK  13 active torsions:
REMARK  status: ('A' for Active; 'I' for Inactive)
REMARK    1  A    between atoms: O_3  and  C_22
REMARK    2  A    between atoms: O_3  and  C_25
REMARK    3  A    between atoms: N_4  and  C_14
REMARK    4  A    between atoms: N_5  and  C_21
REMARK    5  A    between atoms: C_7  and  C_11
REMARK    6  A    between atoms: C_8  and  C_14
REMARK    7  A    between atoms: C_10  and  C_15
REMARK    8  A    between atoms: C_11  and  C_16
REMARK    9  A    between atoms: C_11  and  C_17
REMARK   10  A    between atoms: C_12  and  C_18
REMARK   11  A    between atoms: C_15  and  C_19
REMARK   12  A    between atoms: C_20  and  C_22
REMARK   13  A    between atoms: C_21  and  C_23
REMARK                            x       y       z     vdW  Elec       q    Type
REMARK                         _______ _______ _______ _____ _____    ______ ____
ROOT
ATOM      7  C   UNL     1      -5.383 -10.456  10.543  0.00  0.00    +0.000 C 
ATOM      8  C   UNL     1      -4.752  -9.532   9.472  0.00  0.00    +0.032 C 
ATOM      9  C   UNL     1      -4.884 -10.073  11.945  0.00  0.00    +0.012 C 
ATOM     10  C   UNL     1      -3.351 -10.164  12.063  0.00  0.00    +0.023 C 
ATOM     12  C   UNL     1      -2.656  -9.501  10.891  0.00  0.00    -0.073 C 
ATOM     13  C   UNL     1      -3.301  -9.214   9.747  0.00  0.00    -0.022 C 
ATOM     18  C   UNL     1      -1.211  -9.133  11.082  0.00  0.00    +0.039 C 
ENDROOT
BRANCH   7  11
ATOM     11  C   UNL     1      -6.914 -10.407  10.506  0.00  0.00    -0.013 C 
ATOM     16  C   UNL     1      -7.500 -11.177  11.686  0.00  0.00    +0.007 C 
ATOM     17  C   UNL     1      -7.400  -8.962  10.508  0.00  0.00    +0.007 C 
ENDBRANCH   7  11
BRANCH   8  14
ATOM     14  C   UNL     1      -4.886 -10.138   8.070  0.00  0.00    +0.112 C 
BRANCH  14   4
ATOM      2  O   UNL     1      -6.295 -10.917   5.669  0.00  0.00    -0.273 OA
ATOM      4  N   UNL     1      -5.687  -9.303   7.231  0.00  0.00    -0.313 N 
ATOM     20  C   UNL     1      -6.335  -9.762   6.085  0.00  0.00    +0.239 C 
ATOM     29  H   UNL     1      -5.836  -8.339   7.516  0.00  0.00    +0.149 HD
BRANCH  20  22
ATOM     22  C   UNL     1      -7.115  -8.667   5.390  0.00  0.00    +0.255 C 
BRANCH  22   3
ATOM      3  O   UNL     1      -7.854  -7.911   6.326  0.00  0.00    -0.374 OA
ATOM     25  C   UNL     1      -9.149  -8.462   6.550  0.00  0.00    +0.194 C 
ENDBRANCH  22   3
ENDBRANCH  20  22
ENDBRANCH  14   4
ENDBRANCH   8  14
BRANCH  10  15
ATOM     15  C   UNL     1      -2.896 -11.619  12.220  0.00  0.00    +0.103 C 
BRANCH  15  19
ATOM      1  O   UNL     1      -2.558 -13.157  14.056  0.00  0.00    -0.276 OA
ATOM      5  N   UNL     1      -2.692 -10.877  14.484  0.00  0.00    -0.310 N 
ATOM     19  C   UNL     1      -2.695 -12.000  13.669  0.00  0.00    +0.214 C 
ATOM     30  H   UNL     1      -2.812  -9.957  14.069  0.00  0.00    +0.149 HD
BRANCH   5  21
ATOM     21  C   UNL     1      -2.521 -10.941  15.916  0.00  0.00    +0.159 C 
BRANCH  21  23
ATOM      6  N   UNL     1      -4.813 -10.140  15.989  0.00  0.00    -0.258 NA
ATOM     23  C   UNL     1      -3.824 -10.785  16.646  0.00  0.00    +0.058 A 
ATOM     24  C   UNL     1      -3.948 -11.296  17.928  0.00  0.00    +0.025 A 
ATOM     26  C   UNL     1      -5.167 -11.135  18.577  0.00  0.00    +0.003 A 
ATOM     27  C   UNL     1      -5.984 -10.003  16.651  0.00  0.00    +0.111 A 
ATOM     28  C   UNL     1      -6.210 -10.477  17.933  0.00  0.00    +0.020 A 
ENDBRANCH  21  23
ENDBRANCH   5  21
ENDBRANCH  15  19
ENDBRANCH  10  15
TORSDOF 9
ENDMDL
MODEL 6
REMARK VINA RESULT:      -5.7     26.731     29.313
REMARK  Name = 38028384
REMARK  13 active torsions:
REMARK  status: ('A' for Active; 'I' for Inactive)
REMARK    1  A    between atoms: O_3  and  C_22
REMARK    2  A    between atoms: O_3  and  C_25
REMARK    3  A    between atoms: N_4  and  C_14
REMARK    4  A    between atoms: N_5  and  C_21
REMARK    5  A    between atoms: C_7  and  C_11
REMARK    6  A    between atoms: C_8  and  C_14
REMARK    7  A    between atoms: C_10  and  C_15
REMARK    8  A    between atoms: C_11  and  C_16
REMARK    9  A    between atoms: C_11  and  C_17
REMARK   10  A    between atoms: C_12  and  C_18
REMARK   11  A    between atoms: C_15  and  C_19
REMARK   12  A    between atoms: C_20  and  C_22
REMARK   13  A    between atoms: C_21  and  C_23
REMARK                            x       y       z     vdW  Elec       q    Type
REMARK                         _______ _______ _______ _____ _____    ______ ____
ROOT
ATOM      7  C   UNL     1      -5.764 -10.688  17.748  0.00  0.00    +0.000 C 
ATOM      8  C   UNL     1      -5.149 -11.028  16.368  0.00  0.00    +0.032 C 
ATOM      9  C   UNL     1      -7.270 -10.992  17.754  0.00  0.00    +0.012 C 
ATOM     10  C   UNL     1      -8.030 -10.201  16.673  0.00  0.00    +0.023 C 
ATOM     12  C   UNL     1      -7.330 -10.269  15.331  0.00  0.00    -0.073 C 
ATOM     13  C   UNL     1      -6.048 -10.654  15.212  0.00  0.00    -0.022 C 
ATOM     18  C   UNL     1      -8.154  -9.928  14.121  0.00  0.00    +0.039 C 
ENDROOT
BRANCH   7  11
ATOM     11  C   UNL     1      -5.075 -11.454  18.882  0.00  0.00    -0.013 C 
ATOM     16  C   UNL     1      -5.903 -11.369  20.161  0.00  0.00    +0.007 C 
ATOM     17  C   UNL     1      -4.847 -12.907  18.480  0.00  0.00    +0.007 C 
ENDBRANCH   7  11
BRANCH   8  14
ATOM     14  C   UNL     1      -3.782 -10.357  16.190  0.00  0.00    +0.112 C 
BRANCH  14   4
ATOM      2  O   UNL     1      -1.069 -10.385  15.190  0.00  0.00    -0.273 OA
ATOM      4  N   UNL     1      -3.367 -10.405  14.823  0.00  0.00    -0.313 N 
ATOM     20  C   UNL     1      -2.030 -10.415  14.426  0.00  0.00    +0.239 C 
ATOM     29  H   UNL     1      -4.083 -10.490  14.108  0.00  0.00    +0.149 HD
BRANCH  20  22
ATOM     22  C   UNL     1      -1.880 -10.470  12.921  0.00  0.00    +0.255 C 
BRANCH  22   3
ATOM      3  O   UNL     1      -2.271 -11.734  12.428  0.00  0.00    -0.374 OA
ATOM     25  C   UNL     1      -3.131 -11.621  11.297  0.00  0.00    +0.194 C 
ENDBRANCH  22   3
ENDBRANCH  20  22
ENDBRANCH  14   4
ENDBRANCH   8  14
BRANCH  10  15
ATOM     15  C   UNL     1      -8.248  -8.747  17.105  0.00  0.00    +0.103 C 
BRANCH  15  19
ATOM      1  O   UNL     1     -10.572  -9.074  17.692  0.00  0.00    -0.276 OA
ATOM      5  N   UNL     1      -9.947  -7.175  16.506  0.00  0.00    -0.310 N 
ATOM     19  C   UNL     1      -9.714  -8.381  17.151  0.00  0.00    +0.214 C 
ATOM     30  H   UNL     1      -9.169  -6.671  16.090  0.00  0.00    +0.149 HD
BRANCH   5  21
ATOM     21  C   UNL     1     -11.259  -6.581  16.394  0.00  0.00    +0.159 C 
BRANCH  21  23
ATOM      6  N   UNL     1     -12.001  -5.379  14.418  0.00  0.00    -0.258 NA
ATOM     23  C   UNL     1     -11.759  -6.585  14.979  0.00  0.00    +0.058 A 
ATOM     24  C   UNL     1     -11.946  -7.794  14.329  0.00  0.00    +0.025 A 
ATOM     26  C   UNL     1     -12.411  -7.764  13.018  0.00  0.00    +0.003 A 
ATOM     27  C   UNL     1     -12.452  -5.388  13.144  0.00  0.00    +0.111 A 
ATOM     28  C   UNL     1     -12.671  -6.542  12.408  0.00  0.00    +0.020 A 
ENDBRANCH  21  23
ENDBRANCH   5  21
ENDBRANCH  15  19
ENDBRANCH  10  15
TORSDOF 9
ENDMDL
MODEL 7
REMARK VINA RESULT:      -5.6      4.358      7.339
REMARK  Name = 38028384
REMARK  13 active torsions:
REMARK  status: ('A' for Active; 'I' for Inactive)
REMARK    1  A    between atoms: O_3  and  C_22
REMARK    2  A    between atoms: O_3  and  C_25
REMARK    3  A    between atoms: N_4  and  C_14
REMARK    4  A    between atoms: N_5  and  C_21
REMARK    5  A    between atoms: C_7  and  C_11
REMARK    6  A    between atoms: C_8  and  C_14
REMARK    7  A    between atoms: C_10  and  C_15
REMARK    8  A    between atoms: C_11  and  C_16
REMARK    9  A    between atoms: C_11  and  C_17
REMARK   10  A    between atoms: C_12  and  C_18
REMARK   11  A    between atoms: C_15  and  C_19
REMARK   12  A    between atoms: C_20  and  C_22
REMARK   13  A    between atoms: C_21  and  C_23
REMARK                            x       y       z     vdW  Elec       q    Type
REMARK                         _______ _______ _______ _____ _____    ______ ____
ROOT
ATOM      7  C   UNL     1      19.613   6.593  21.574  0.00  0.00    +0.000 C 
ATOM      8  C   UNL     1      19.959   8.015  22.081  0.00  0.00    +0.032 C 
ATOM      9  C   UNL     1      18.746   6.671  20.307  0.00  0.00    +0.012 C 
ATOM     10  C   UNL     1      17.431   7.437  20.547  0.00  0.00    +0.023 C 
ATOM     12  C   UNL     1      17.666   8.737  21.289  0.00  0.00    -0.073 C 
ATOM     13  C   UNL     1      18.806   8.984  21.956  0.00  0.00    -0.022 C 
ATOM     18  C   UNL     1      16.575   9.769  21.206  0.00  0.00    +0.039 C 
ENDROOT
BRANCH   7  11
ATOM     11  C   UNL     1      20.872   5.768  21.290  0.00  0.00    -0.013 C 
ATOM     16  C   UNL     1      20.511   4.482  20.553  0.00  0.00    +0.007 C 
ATOM     17  C   UNL     1      21.876   6.588  20.487  0.00  0.00    +0.007 C 
ENDBRANCH   7  11
BRANCH   8  14
ATOM     14  C   UNL     1      20.444   7.981  23.535  0.00  0.00    +0.112 C 
BRANCH  14   4
ATOM      2  O   UNL     1      22.074   9.958  24.874  0.00  0.00    -0.273 OA
ATOM      4  N   UNL     1      19.990   9.134  24.248  0.00  0.00    -0.313 N 
ATOM     20  C   UNL     1      20.849  10.041  24.868  0.00  0.00    +0.239 C 
ATOM     29  H   UNL     1      18.993   9.330  24.256  0.00  0.00    +0.149 HD
BRANCH  20  22
ATOM     22  C   UNL     1      20.099  11.167  25.547  0.00  0.00    +0.255 C 
BRANCH  22   3
ATOM      3  O   UNL     1      20.547  12.420  25.075  0.00  0.00    -0.374 OA
ATOM     25  C   UNL     1      20.030  12.716  23.781  0.00  0.00    +0.194 C 
ENDBRANCH  22   3
ENDBRANCH  20  22
ENDBRANCH  14   4
ENDBRANCH   8  14
BRANCH  10  15
ATOM     15  C   UNL     1      16.409   6.563  21.280  0.00  0.00    +0.103 C 
BRANCH  15  19
ATOM      1  O   UNL     1      14.789   6.592  19.484  0.00  0.00    -0.276 OA
ATOM      5  N   UNL     1      14.077   6.917  21.673  0.00  0.00    -0.310 N 
ATOM     19  C   UNL     1      15.024   6.686  20.686  0.00  0.00    +0.214 C 
ATOM     30  H   UNL     1      14.370   6.977  22.644  0.00  0.00    +0.149 HD
BRANCH   5  21
ATOM     21  C   UNL     1      12.669   7.078  21.393  0.00  0.00    +0.159 C 
BRANCH  21  23
ATOM      6  N   UNL     1      11.215   8.665  22.519  0.00  0.00    -0.258 NA
ATOM     23  C   UNL     1      12.208   8.489  21.619  0.00  0.00    +0.058 A 
ATOM     24  C   UNL     1      12.806   9.520  20.913  0.00  0.00    +0.025 A 
ATOM     26  C   UNL     1      12.356  10.815  21.144  0.00  0.00    +0.003 A 
ATOM     27  C   UNL     1      10.803   9.937  22.718  0.00  0.00    +0.111 A 
ATOM     28  C   UNL     1      11.336  11.036  22.063  0.00  0.00    +0.020 A 
ENDBRANCH  21  23
ENDBRANCH   5  21
ENDBRANCH  15  19
ENDBRANCH  10  15
TORSDOF 9
ENDMDL
MODEL 8
REMARK VINA RESULT:      -5.6      5.106      7.262
REMARK  Name = 38028384
REMARK  13 active torsions:
REMARK  status: ('A' for Active; 'I' for Inactive)
REMARK    1  A    between atoms: O_3  and  C_22
REMARK    2  A    between atoms: O_3  and  C_25
REMARK    3  A    between atoms: N_4  and  C_14
REMARK    4  A    between atoms: N_5  and  C_21
REMARK    5  A    between atoms: C_7  and  C_11
REMARK    6  A    between atoms: C_8  and  C_14
REMARK    7  A    between atoms: C_10  and  C_15
REMARK    8  A    between atoms: C_11  and  C_16
REMARK    9  A    between atoms: C_11  and  C_17
REMARK   10  A    between atoms: C_12  and  C_18
REMARK   11  A    between atoms: C_15  and  C_19
REMARK   12  A    between atoms: C_20  and  C_22
REMARK   13  A    between atoms: C_21  and  C_23
REMARK                            x       y       z     vdW  Elec       q    Type
REMARK                         _______ _______ _______ _____ _____    ______ ____
ROOT
ATOM      7  C   UNL     1      17.687   8.036  21.143  0.00  0.00    +0.000 C 
ATOM      8  C   UNL     1      17.426   7.055  19.973  0.00  0.00    +0.032 C 
ATOM      9  C   UNL     1      19.194   8.295  21.300  0.00  0.00    +0.012 C 
ATOM     10  C   UNL     1      19.985   6.999  21.562  0.00  0.00    +0.023 C 
ATOM     12  C   UNL     1      19.583   5.892  20.608  0.00  0.00    -0.073 C 
ATOM     13  C   UNL     1      18.443   5.941  19.896  0.00  0.00    -0.022 C 
ATOM     18  C   UNL     1      20.546   4.748  20.456  0.00  0.00    +0.039 C 
ENDROOT
BRANCH   7  11
ATOM     11  C   UNL     1      16.950   9.364  20.949  0.00  0.00    -0.013 C 
ATOM     16  C   UNL     1      15.809   9.491  21.954  0.00  0.00    +0.007 C 
ATOM     17  C   UNL     1      17.919  10.534  21.079  0.00  0.00    +0.007 C 
ENDBRANCH   7  11
BRANCH   8  14
ATOM     14  C   UNL     1      16.017   6.456  20.057  0.00  0.00    +0.112 C 
BRANCH  14   4
ATOM      2  O   UNL     1      13.298   7.440  20.089  0.00  0.00    -0.273 OA
ATOM      4  N   UNL     1      15.229   6.852  18.932  0.00  0.00    -0.313 N 
ATOM     20  C   UNL     1      13.919   7.317  19.037  0.00  0.00    +0.239 C 
ATOM     29  H   UNL     1      15.666   6.844  18.015  0.00  0.00    +0.149 HD
BRANCH  20  22
ATOM     22  C   UNL     1      13.325   7.666  17.689  0.00  0.00    +0.255 C 
BRANCH  22   3
ATOM      3  O   UNL     1      11.956   7.326  17.645  0.00  0.00    -0.374 OA
ATOM     25  C   UNL     1      11.147   8.431  17.251  0.00  0.00    +0.194 C 
ENDBRANCH  22   3
ENDBRANCH  20  22
ENDBRANCH  14   4
ENDBRANCH   8  14
BRANCH  10  15
ATOM     15  C   UNL     1      19.837   6.548  23.019  0.00  0.00    +0.103 C 
BRANCH  15  19
ATOM      1  O   UNL     1      21.729   7.894  23.698  0.00  0.00    -0.276 OA
ATOM      5  N   UNL     1      19.948   7.601  25.163  0.00  0.00    -0.310 N 
ATOM     19  C   UNL     1      20.629   7.420  23.967  0.00  0.00    +0.214 C 
ATOM     30  H   UNL     1      19.038   7.168  25.292  0.00  0.00    +0.149 HD
BRANCH   5  21
ATOM     21  C   UNL     1      20.469   8.390  26.255  0.00  0.00    +0.159 C 
BRANCH  21  23
ATOM      6  N   UNL     1      19.864   8.470  28.606  0.00  0.00    -0.258 NA
ATOM     23  C   UNL     1      20.293   7.703  27.579  0.00  0.00    +0.058 A 
ATOM     24  C   UNL     1      20.572   6.351  27.683  0.00  0.00    +0.025 A 
ATOM     26  C   UNL     1      20.399   5.744  28.923  0.00  0.00    +0.003 A 
ATOM     27  C   UNL     1      19.708   7.846  29.796  0.00  0.00    +0.111 A 
ATOM     28  C   UNL     1      19.959   6.500  30.004  0.00  0.00    +0.020 A 
ENDBRANCH  21  23
ENDBRANCH   5  21
ENDBRANCH  15  19
ENDBRANCH  10  15
TORSDOF 9
ENDMDL
MODEL 9
REMARK VINA RESULT:      -5.6     14.002     19.652
REMARK  Name = 38028384
REMARK  13 active torsions:
REMARK  status: ('A' for Active; 'I' for Inactive)
REMARK    1  A    between atoms: O_3  and  C_22
REMARK    2  A    between atoms: O_3  and  C_25
REMARK    3  A    between atoms: N_4  and  C_14
REMARK    4  A    between atoms: N_5  and  C_21
REMARK    5  A    between atoms: C_7  and  C_11
REMARK    6  A    between atoms: C_8  and  C_14
REMARK    7  A    between atoms: C_10  and  C_15
REMARK    8  A    between atoms: C_11  and  C_16
REMARK    9  A    between atoms: C_11  and  C_17
REMARK   10  A    between atoms: C_12  and  C_18
REMARK   11  A    between atoms: C_15  and  C_19
REMARK   12  A    between atoms: C_20  and  C_22
REMARK   13  A    between atoms: C_21  and  C_23
REMARK                            x       y       z     vdW  Elec       q    Type
REMARK                         _______ _______ _______ _____ _____    ______ ____
ROOT
ATOM      7  C   UNL     1      12.684   7.608   5.172  0.00  0.00    +0.000 C 
ATOM      8  C   UNL     1      11.590   8.608   5.622  0.00  0.00    +0.032 C 
ATOM      9  C   UNL     1      12.638   7.412   3.649  0.00  0.00    +0.012 C 
ATOM     10  C   UNL     1      11.271   6.889   3.169  0.00  0.00    +0.023 C 
ATOM     12  C   UNL     1      10.124   7.663   3.787  0.00  0.00    -0.073 C 
ATOM     13  C   UNL     1      10.288   8.437   4.874  0.00  0.00    -0.022 C 
ATOM     18  C   UNL     1       8.792   7.563   3.098  0.00  0.00    +0.039 C 
ENDROOT
BRANCH   7  11
ATOM     11  C   UNL     1      14.082   8.067   5.594  0.00  0.00    -0.013 C 
ATOM     16  C   UNL     1      15.150   7.221   4.907  0.00  0.00    +0.007 C 
ATOM     17  C   UNL     1      14.276   9.547   5.276  0.00  0.00    +0.007 C 
ENDBRANCH   7  11
BRANCH   8  14
ATOM     14  C   UNL     1      11.331   8.504   7.129  0.00  0.00    +0.112 C 
BRANCH  14   4
ATOM      2  O   UNL     1      12.091   5.870   8.050  0.00  0.00    -0.273 OA
ATOM      4  N   UNL     1      10.461   7.408   7.420  0.00  0.00    -0.313 N 
ATOM     20  C   UNL     1      10.913   6.165   7.862  0.00  0.00    +0.239 C 
ATOM     29  H   UNL     1       9.459   7.560   7.354  0.00  0.00    +0.149 HD
BRANCH  20  22
ATOM     22  C   UNL     1       9.777   5.191   8.094  0.00  0.00    +0.255 C 
BRANCH  22   3
ATOM      3  O   UNL     1       8.994   5.594   9.197  0.00  0.00    -0.374 OA
ATOM     25  C   UNL     1       9.000   4.621  10.237  0.00  0.00    +0.194 C 
ENDBRANCH  22   3
ENDBRANCH  20  22
ENDBRANCH  14   4
ENDBRANCH   8  14
BRANCH  10  15
ATOM     15  C   UNL     1      11.129   5.388   3.439  0.00  0.00    +0.103 C 
BRANCH  15  19
ATOM      1  O   UNL     1      10.457   4.568   1.264  0.00  0.00    -0.276 OA
ATOM      5  N   UNL     1      12.448   3.821   2.204  0.00  0.00    -0.310 N 
ATOM     19  C   UNL     1      11.277   4.566   2.179  0.00  0.00    +0.214 C 
ATOM     30  H   UNL     1      13.066   3.888   3.007  0.00  0.00    +0.149 HD
BRANCH   5  21
ATOM     21  C   UNL     1      12.847   2.942   1.130  0.00  0.00    +0.159 C 
BRANCH  21  23
ATOM      6  N   UNL     1      13.577   3.758  -1.039  0.00  0.00    -0.258 NA
ATOM     23  C   UNL     1      13.902   3.561   0.259  0.00  0.00    +0.058 A 
ATOM     24  C   UNL     1      15.128   3.894   0.811  0.00  0.00    +0.025 A 
ATOM     26  C   UNL     1      16.084   4.465  -0.022  0.00  0.00    +0.003 A 
ATOM     27  C   UNL     1      14.531   4.315  -1.818  0.00  0.00    +0.111 A 
ATOM     28  C   UNL     1      15.787   4.683  -1.363  0.00  0.00    +0.020 A 
ENDBRANCH  21  23
ENDBRANCH   5  21
ENDBRANCH  15  19
ENDBRANCH  10  15
TORSDOF 9
ENDMDL
MODEL 10
REMARK VINA RESULT:      -5.5     24.823     27.220
REMARK  Name = 38028384
REMARK  13 active torsions:
REMARK  status: ('A' for Active; 'I' for Inactive)
REMARK    1  A    between atoms: O_3  and  C_22
REMARK    2  A    between atoms: O_3  and  C_25
REMARK    3  A    between atoms: N_4  and  C_14
REMARK    4  A    between atoms: N_5  and  C_21
REMARK    5  A    between atoms: C_7  and  C_11
REMARK    6  A    between atoms: C_8  and  C_14
REMARK    7  A    between atoms: C_10  and  C_15
REMARK    8  A    between atoms: C_11  and  C_16
REMARK    9  A    between atoms: C_11  and  C_17
REMARK   10  A    between atoms: C_12  and  C_18
REMARK   11  A    between atoms: C_15  and  C_19
REMARK   12  A    between atoms: C_20  and  C_22
REMARK   13  A    between atoms: C_21  and  C_23
REMARK                            x       y       z     vdW  Elec       q    Type
REMARK                         _______ _______ _______ _____ _____    ______ ____
ROOT
ATOM      7  C   UNL     1     -12.226  10.145  19.209  0.00  0.00    +0.000 C 
ATOM      8  C   UNL     1     -10.858   9.522  19.582  0.00  0.00    +0.032 C 
ATOM      9  C   UNL     1     -13.270   9.834  20.292  0.00  0.00    +0.012 C 
ATOM     10  C   UNL     1     -13.463   8.320  20.500  0.00  0.00    +0.023 C 
ATOM     12  C   UNL     1     -12.137   7.594  20.609  0.00  0.00    -0.073 C 
ATOM     13  C   UNL     1     -10.982   8.152  20.207  0.00  0.00    -0.022 C 
ATOM     18  C   UNL     1     -12.164   6.228  21.235  0.00  0.00    +0.039 C 
ENDROOT
BRANCH   7  11
ATOM     11  C   UNL     1     -12.125  11.659  19.004  0.00  0.00    -0.013 C 
ATOM     16  C   UNL     1     -12.785  12.064  17.689  0.00  0.00    +0.007 C 
ATOM     17  C   UNL     1     -12.760  12.398  20.178  0.00  0.00    +0.007 C 
ENDBRANCH   7  11
BRANCH   8  14
ATOM     14  C   UNL     1      -9.933   9.445  18.362  0.00  0.00    +0.112 C 
BRANCH  14   4
ATOM      2  O   UNL     1     -10.330  10.521  15.707  0.00  0.00    -0.273 OA
ATOM      4  N   UNL     1     -10.594   8.812  17.264  0.00  0.00    -0.313 N 
ATOM     20  C   UNL     1     -10.743   9.405  16.010  0.00  0.00    +0.239 C 
ATOM     29  H   UNL     1     -10.925   7.859  17.388  0.00  0.00    +0.149 HD
BRANCH  20  22
ATOM     22  C   UNL     1     -11.480   8.510  15.037  0.00  0.00    +0.255 C 
BRANCH  22   3
ATOM      3  O   UNL     1     -10.860   8.537  13.769  0.00  0.00    -0.374 OA
ATOM     25  C   UNL     1     -10.358   7.257  13.395  0.00  0.00    +0.194 C 
ENDBRANCH  22   3
ENDBRANCH  20  22
ENDBRANCH  14   4
ENDBRANCH   8  14
BRANCH  10  15
ATOM     15  C   UNL     1     -14.330   7.717  19.390  0.00  0.00    +0.103 C 
BRANCH  15  19
ATOM      1  O   UNL     1     -16.676   8.006  19.905  0.00  0.00    -0.276 OA
ATOM      5  N   UNL     1     -15.648   5.970  20.352  0.00  0.00    -0.310 N 
ATOM     19  C   UNL     1     -15.685   7.280  19.899  0.00  0.00    +0.214 C 
ATOM     30  H   UNL     1     -14.778   5.447  20.304  0.00  0.00    +0.149 HD
BRANCH   5  21
ATOM     21  C   UNL     1     -16.801   5.290  20.895  0.00  0.00    +0.159 C 
BRANCH  21  23
ATOM      6  N   UNL     1     -17.519   3.985  22.814  0.00  0.00    -0.258 NA
ATOM     23  C   UNL     1     -16.518   4.691  22.243  0.00  0.00    +0.058 A 
ATOM     24  C   UNL     1     -15.275   4.886  22.824  0.00  0.00    +0.025 A 
ATOM     26  C   UNL     1     -15.044   4.319  24.073  0.00  0.00    +0.003 A 
ATOM     27  C   UNL     1     -17.258   3.449  24.028  0.00  0.00    +0.111 A 
ATOM     28  C   UNL     1     -16.050   3.585  24.692  0.00  0.00    +0.020 A 
ENDBRANCH  21  23
ENDBRANCH   5  21
ENDBRANCH  15  19
ENDBRANCH  10  15
TORSDOF 9
ENDMDL
