MODEL 1
REMARK VINA RESULT:      -7.6      0.000      0.000
REMARK  Name = 11879570
REMARK  8 active torsions:
REMARK  status: ('A' for Active; 'I' for Inactive)
REMARK    1  A    between atoms: O_3  and  C_18
REMARK    2  A    between atoms: O_3  and  C_21
REMARK    3  A    between atoms: N_5  and  C_14
REMARK    4  A    between atoms: N_6  and  C_15
REMARK    5  A    between atoms: N_9  and  C_20
REMARK    6  A    between atoms: N_11  and  C_29
REMARK    7  A    between atoms: N_11  and  C_36
REMARK    8  A    between atoms: N_11  and  C_37
REMARK                            x       y       z     vdW  Elec       q    Type
REMARK                         _______ _______ _______ _____ _____    ______ ____
ROOT
ATOM      1  O   UNL     1      -4.892 -10.660  17.978  0.00  0.00    -0.370 OA
ATOM      2  O   UNL     1      -6.297 -11.860  15.434  0.00  0.00    -0.370 OA
ATOM     12  C   UNL     1      -5.216 -10.932  15.632  0.00  0.00    +0.176 C 
ATOM     13  C   UNL     1      -5.565 -10.090  16.845  0.00  0.00    +0.172 C 
ATOM     14  C   UNL     1      -3.959 -11.682  16.032  0.00  0.00    +0.171 C 
ATOM     15  C   UNL     1      -7.061 -10.247  16.989  0.00  0.00    +0.131 C 
ATOM     16  C   UNL     1      -4.074 -11.757  17.551  0.00  0.00    +0.190 C 
ATOM     17  C   UNL     1      -7.296 -11.640  16.440  0.00  0.00    +0.185 C 
ENDROOT
BRANCH  15   6
ATOM      4  O   UNL     1      -9.879  -9.733  17.028  0.00  0.00    -0.252 OA
ATOM      6  N   UNL     1      -7.768  -9.254  16.217  0.00  0.00    -0.292 N 
ATOM      9  N   UNL     1      -9.554  -8.039  15.436  0.00  0.00    -0.269 N 
ATOM     19  C   UNL     1      -9.153  -9.066  16.295  0.00  0.00    +0.304 C 
ATOM     38  H   UNL     1      -7.246  -8.690  15.553  0.00  0.00    +0.151 HD
ATOM     39  H   UNL     1      -8.793  -7.483  15.062  0.00  0.00    +0.156 HD
BRANCH   9  20
ATOM     20  C   UNL     1     -10.862  -7.546  15.225  0.00  0.00    +0.042 A 
ATOM     22  C   UNL     1     -11.654  -8.014  14.173  0.00  0.00    +0.003 A 
ATOM     23  C   UNL     1     -11.323  -6.578  16.109  0.00  0.00    +0.024 A 
ATOM     26  C   UNL     1     -12.956  -7.484  14.010  0.00  0.00    -0.016 A 
ATOM     27  C   UNL     1     -12.603  -6.057  15.949  0.00  0.00    +0.002 A 
ATOM     28  C   UNL     1     -11.194  -8.991  13.276  0.00  0.00    +0.010 A 
ATOM     30  C   UNL     1     -13.415  -6.505  14.907  0.00  0.00    +0.008 A 
ATOM     32  C   UNL     1     -13.760  -7.946  12.956  0.00  0.00    +0.008 A 
ATOM     34  C   UNL     1     -12.006  -9.441  12.234  0.00  0.00    +0.001 A 
ATOM     35  C   UNL     1     -13.286  -8.919  12.074  0.00  0.00    +0.001 A 
ENDBRANCH   9  20
ENDBRANCH  15   6
BRANCH  14   5
ATOM      5  N   UNL     1      -2.739 -11.041  15.534  0.00  0.00    -0.187 N 
ATOM      7  N   UNL     1      -1.873 -10.468  16.374  0.00  0.00    -0.041 NA
ATOM      8  N   UNL     1      -1.165 -10.271  14.270  0.00  0.00    -0.071 NA
ATOM     10  N   UNL     1      -0.908  -9.997  15.594  0.00  0.00    -0.020 NA
ATOM     18  C   UNL     1      -2.307 -10.920  14.257  0.00  0.00    +0.342 A 
BRANCH  18   3
ATOM      3  O   UNL     1      -2.941 -11.380  13.194  0.00  0.00    -0.423 OA
BRANCH   3  21
ATOM     21  C   UNL     1      -3.405 -10.550  12.184  0.00  0.00    +0.134 A 
ATOM     24  C   UNL     1      -4.759 -10.291  12.096  0.00  0.00    +0.069 A 
ATOM     25  C   UNL     1      -2.499 -10.004  11.295  0.00  0.00    +0.046 A 
ATOM     29  C   UNL     1      -5.225  -9.457  11.080  0.00  0.00    +0.033 A 
ATOM     31  C   UNL     1      -2.964  -9.170  10.279  0.00  0.00    +0.005 A 
ATOM     33  C   UNL     1      -4.328  -8.896  10.171  0.00  0.00    +0.023 A 
BRANCH  29  11
ATOM     11  N   UNL     1      -6.604  -9.181  10.971  0.00  0.00    -0.336 N 
ATOM     36  C   UNL     1      -7.131  -8.524   9.791  0.00  0.00    +0.129 C 
ATOM     37  C   UNL     1      -7.512  -9.540  12.043  0.00  0.00    +0.129 C 
ENDBRANCH  29  11
ENDBRANCH   3  21
ENDBRANCH  18   3
ENDBRANCH  14   5
TORSDOF 6
ENDMDL
MODEL 2
REMARK VINA RESULT:      -7.2      3.510      8.897
REMARK  Name = 11879570
REMARK  8 active torsions:
REMARK  status: ('A' for Active; 'I' for Inactive)
REMARK    1  A    between atoms: O_3  and  C_18
REMARK    2  A    between atoms: O_3  and  C_21
REMARK    3  A    between atoms: N_5  and  C_14
REMARK    4  A    between atoms: N_6  and  C_15
REMARK    5  A    between atoms: N_9  and  C_20
REMARK    6  A    between atoms: N_11  and  C_29
REMARK    7  A    between atoms: N_11  and  C_36
REMARK    8  A    between atoms: N_11  and  C_37
REMARK                            x       y       z     vdW  Elec       q    Type
REMARK                         _______ _______ _______ _____ _____    ______ ____
ROOT
ATOM      1  O   UNL     1     -12.581  -8.179  13.470  0.00  0.00    -0.370 OA
ATOM      2  O   UNL     1     -12.295  -6.622  16.187  0.00  0.00    -0.370 OA
ATOM     12  C   UNL     1     -11.891  -6.349  14.833  0.00  0.00    +0.176 C 
ATOM     13  C   UNL     1     -11.466  -7.669  14.218  0.00  0.00    +0.172 C 
ATOM     14  C   UNL     1     -13.090  -5.910  14.015  0.00  0.00    +0.171 C 
ATOM     15  C   UNL     1     -11.181  -8.560  15.406  0.00  0.00    +0.131 C 
ATOM     16  C   UNL     1     -13.655  -7.230  13.501  0.00  0.00    +0.190 C 
ATOM     17  C   UNL     1     -12.140  -8.024  16.451  0.00  0.00    +0.185 C 
ENDROOT
BRANCH  15   6
ATOM      4  O   UNL     1      -9.120 -10.537  15.182  0.00  0.00    -0.252 OA
ATOM      6  N   UNL     1      -9.811  -8.431  15.839  0.00  0.00    -0.292 N 
ATOM      9  N   UNL     1      -7.626  -9.040  16.200  0.00  0.00    -0.269 N 
ATOM     19  C   UNL     1      -8.862  -9.450  15.692  0.00  0.00    +0.304 C 
ATOM     38  H   UNL     1      -9.526  -7.578  16.311  0.00  0.00    +0.151 HD
ATOM     39  H   UNL     1      -7.562  -8.049  16.402  0.00  0.00    +0.156 HD
BRANCH   9  20
ATOM     20  C   UNL     1      -6.418  -9.774  16.240  0.00  0.00    +0.042 A 
ATOM     22  C   UNL     1      -5.973 -10.379  17.418  0.00  0.00    +0.003 A 
ATOM     23  C   UNL     1      -5.696  -9.866  15.056  0.00  0.00    +0.024 A 
ATOM     26  C   UNL     1      -4.757 -11.102  17.397  0.00  0.00    -0.016 A 
ATOM     27  C   UNL     1      -4.500 -10.577  15.035  0.00  0.00    +0.002 A 
ATOM     28  C   UNL     1      -6.698 -10.290  18.617  0.00  0.00    +0.010 A 
ATOM     30  C   UNL     1      -4.031 -11.190  16.197  0.00  0.00    +0.008 A 
ATOM     32  C   UNL     1      -4.300 -11.713  18.575  0.00  0.00    +0.008 A 
ATOM     34  C   UNL     1      -6.230 -10.905  19.780  0.00  0.00    +0.001 A 
ATOM     35  C   UNL     1      -5.033 -11.615  19.759  0.00  0.00    +0.001 A 
ENDBRANCH   9  20
ENDBRANCH  15   6
BRANCH  14   5
ATOM      5  N   UNL     1     -12.736  -4.940  12.975  0.00  0.00    -0.187 N 
ATOM      7  N   UNL     1     -12.811  -3.627  13.208  0.00  0.00    -0.041 NA
ATOM      8  N   UNL     1     -12.110  -4.011  11.127  0.00  0.00    -0.071 NA
ATOM     10  N   UNL     1     -12.426  -3.060  12.071  0.00  0.00    -0.020 NA
ATOM     18  C   UNL     1     -12.311  -5.170  11.711  0.00  0.00    +0.342 A 
BRANCH  18   3
ATOM      3  O   UNL     1     -12.135  -6.364  11.175  0.00  0.00    -0.423 OA
BRANCH   3  21
ATOM     21  C   UNL     1     -11.983  -6.554   9.809  0.00  0.00    +0.134 A 
ATOM     24  C   UNL     1     -10.710  -6.567   9.272  0.00  0.00    +0.069 A 
ATOM     25  C   UNL     1     -13.107  -6.727   9.026  0.00  0.00    +0.046 A 
ATOM     29  C   UNL     1     -10.557  -6.759   7.898  0.00  0.00    +0.033 A 
ATOM     31  C   UNL     1     -12.954  -6.918   7.653  0.00  0.00    +0.005 A 
ATOM     33  C   UNL     1     -11.679  -6.934   7.088  0.00  0.00    +0.023 A 
BRANCH  29  11
ATOM     11  N   UNL     1      -9.266  -6.773   7.328  0.00  0.00    -0.336 N 
ATOM     36  C   UNL     1      -8.126  -6.287   8.080  0.00  0.00    +0.129 C 
ATOM     37  C   UNL     1      -9.066  -7.263   5.979  0.00  0.00    +0.129 C 
ENDBRANCH  29  11
ENDBRANCH   3  21
ENDBRANCH  18   3
ENDBRANCH  14   5
TORSDOF 6
ENDMDL
MODEL 3
REMARK VINA RESULT:      -7.1     24.090     28.316
REMARK  Name = 11879570
REMARK  8 active torsions:
REMARK  status: ('A' for Active; 'I' for Inactive)
REMARK    1  A    between atoms: O_3  and  C_18
REMARK    2  A    between atoms: O_3  and  C_21
REMARK    3  A    between atoms: N_5  and  C_14
REMARK    4  A    between atoms: N_6  and  C_15
REMARK    5  A    between atoms: N_9  and  C_20
REMARK    6  A    between atoms: N_11  and  C_29
REMARK    7  A    between atoms: N_11  and  C_36
REMARK    8  A    between atoms: N_11  and  C_37
REMARK                            x       y       z     vdW  Elec       q    Type
REMARK                         _______ _______ _______ _____ _____    ______ ____
ROOT
ATOM      1  O   UNL     1       8.795   7.554   6.247  0.00  0.00    -0.370 OA
ATOM      2  O   UNL     1      10.908   5.671   7.616  0.00  0.00    -0.370 OA
ATOM     12  C   UNL     1      11.004   6.866   6.821  0.00  0.00    +0.176 C 
ATOM     13  C   UNL     1       9.914   6.792   5.768  0.00  0.00    +0.172 C 
ATOM     14  C   UNL     1      10.645   8.075   7.663  0.00  0.00    +0.171 C 
ATOM     15  C   UNL     1       9.560   5.325   5.701  0.00  0.00    +0.131 C 
ATOM     16  C   UNL     1       9.133   8.174   7.495  0.00  0.00    +0.190 C 
ATOM     17  C   UNL     1       9.836   4.858   7.117  0.00  0.00    +0.185 C 
ENDROOT
BRANCH  15   6
ATOM      4  O   UNL     1       9.841   5.919   2.912  0.00  0.00    -0.252 OA
ATOM      6  N   UNL     1      10.392   4.628   4.750  0.00  0.00    -0.292 N 
ATOM      9  N   UNL     1      11.356   4.136   2.724  0.00  0.00    -0.269 N 
ATOM     19  C   UNL     1      10.474   4.984   3.398  0.00  0.00    +0.304 C 
ATOM     38  H   UNL     1      10.915   3.816   5.062  0.00  0.00    +0.151 HD
ATOM     39  H   UNL     1      11.924   3.553   3.329  0.00  0.00    +0.156 HD
BRANCH   9  20
ATOM     20  C   UNL     1      11.712   4.164   1.355  0.00  0.00    +0.042 A 
ATOM     22  C   UNL     1      13.045   4.072   0.949  0.00  0.00    +0.003 A 
ATOM     23  C   UNL     1      10.676   4.284   0.437  0.00  0.00    +0.024 A 
ATOM     26  C   UNL     1      13.340   4.105  -0.434  0.00  0.00    -0.016 A 
ATOM     27  C   UNL     1      10.967   4.317  -0.924  0.00  0.00    +0.002 A 
ATOM     28  C   UNL     1      14.096   3.950   1.873  0.00  0.00    +0.010 A 
ATOM     30  C   UNL     1      12.290   4.229  -1.358  0.00  0.00    +0.008 A 
ATOM     32  C   UNL     1      14.678   4.015  -0.854  0.00  0.00    +0.008 A 
ATOM     34  C   UNL     1      15.419   3.860   1.438  0.00  0.00    +0.001 A 
ATOM     35  C   UNL     1      15.709   3.893   0.078  0.00  0.00    +0.001 A 
ENDBRANCH   9  20
ENDBRANCH  15   6
BRANCH  14   5
ATOM      5  N   UNL     1      11.392   9.274   7.272  0.00  0.00    -0.187 N 
ATOM      7  N   UNL     1      10.778  10.455   7.150  0.00  0.00    -0.041 NA
ATOM      8  N   UNL     1      12.949  10.652   6.685  0.00  0.00    -0.071 NA
ATOM     10  N   UNL     1      11.738  11.297   6.789  0.00  0.00    -0.020 NA
ATOM     18  C   UNL     1      12.709   9.397   6.989  0.00  0.00    +0.342 A 
BRANCH  18   3
ATOM      3  O   UNL     1      13.587   8.411   7.019  0.00  0.00    -0.423 OA
BRANCH   3  21
ATOM     21  C   UNL     1      14.451   8.148   5.965  0.00  0.00    +0.134 A 
ATOM     24  C   UNL     1      15.778   8.516   6.078  0.00  0.00    +0.069 A 
ATOM     25  C   UNL     1      13.960   7.526   4.834  0.00  0.00    +0.046 A 
ATOM     29  C   UNL     1      16.646   8.252   5.019  0.00  0.00    +0.033 A 
ATOM     31  C   UNL     1      14.827   7.262   3.775  0.00  0.00    +0.005 A 
ATOM     33  C   UNL     1      16.171   7.624   3.866  0.00  0.00    +0.023 A 
BRANCH  29  11
ATOM     11  N   UNL     1      18.004   8.620   5.112  0.00  0.00    -0.336 N 
ATOM     36  C   UNL     1      18.429   9.624   6.068  0.00  0.00    +0.129 C 
ATOM     37  C   UNL     1      18.992   8.010   4.243  0.00  0.00    +0.129 C 
ENDBRANCH  29  11
ENDBRANCH   3  21
ENDBRANCH  18   3
ENDBRANCH  14   5
TORSDOF 6
ENDMDL
MODEL 4
REMARK VINA RESULT:      -7.1      4.126      9.759
REMARK  Name = 11879570
REMARK  8 active torsions:
REMARK  status: ('A' for Active; 'I' for Inactive)
REMARK    1  A    between atoms: O_3  and  C_18
REMARK    2  A    between atoms: O_3  and  C_21
REMARK    3  A    between atoms: N_5  and  C_14
REMARK    4  A    between atoms: N_6  and  C_15
REMARK    5  A    between atoms: N_9  and  C_20
REMARK    6  A    between atoms: N_11  and  C_29
REMARK    7  A    between atoms: N_11  and  C_36
REMARK    8  A    between atoms: N_11  and  C_37
REMARK                            x       y       z     vdW  Elec       q    Type
REMARK                         _______ _______ _______ _____ _____    ______ ____
ROOT
ATOM      1  O   UNL     1     -12.592  -9.510  14.118  0.00  0.00    -0.370 OA
ATOM      2  O   UNL     1     -11.924  -6.649  15.239  0.00  0.00    -0.370 OA
ATOM     12  C   UNL     1     -11.615  -7.338  14.014  0.00  0.00    +0.176 C 
ATOM     13  C   UNL     1     -11.373  -8.793  14.368  0.00  0.00    +0.172 C 
ATOM     14  C   UNL     1     -12.833  -7.358  13.112  0.00  0.00    +0.171 C 
ATOM     15  C   UNL     1     -11.072  -8.772  15.849  0.00  0.00    +0.131 C 
ATOM     16  C   UNL     1     -13.565  -8.621  13.551  0.00  0.00    +0.190 C 
ATOM     17  C   UNL     1     -11.880  -7.582  16.328  0.00  0.00    +0.185 C 
ENDROOT
BRANCH  15   6
ATOM      4  O   UNL     1      -9.018 -10.764  15.701  0.00  0.00    -0.252 OA
ATOM      6  N   UNL     1      -9.662  -8.578  16.094  0.00  0.00    -0.292 N 
ATOM      9  N   UNL     1      -7.441  -9.127  16.288  0.00  0.00    -0.269 N 
ATOM     19  C   UNL     1      -8.720  -9.609  15.999  0.00  0.00    +0.304 C 
ATOM     38  H   UNL     1      -9.340  -7.662  16.388  0.00  0.00    +0.151 HD
ATOM     39  H   UNL     1      -7.371  -8.116  16.322  0.00  0.00    +0.156 HD
BRANCH   9  20
ATOM     20  C   UNL     1      -6.224  -9.848  16.301  0.00  0.00    +0.042 A 
ATOM     22  C   UNL     1      -5.761 -10.470  17.463  0.00  0.00    +0.003 A 
ATOM     23  C   UNL     1      -5.514  -9.909  15.109  0.00  0.00    +0.024 A 
ATOM     26  C   UNL     1      -4.537 -11.178  17.416  0.00  0.00    -0.016 A 
ATOM     27  C   UNL     1      -4.310 -10.604  15.063  0.00  0.00    +0.002 A 
ATOM     28  C   UNL     1      -6.475 -10.412  18.671  0.00  0.00    +0.010 A 
ATOM     30  C   UNL     1      -3.822 -11.235  16.208  0.00  0.00    +0.008 A 
ATOM     32  C   UNL     1      -4.061 -11.807  18.578  0.00  0.00    +0.008 A 
ATOM     34  C   UNL     1      -5.988 -11.044  19.817  0.00  0.00    +0.001 A 
ATOM     35  C   UNL     1      -4.784 -11.740  19.770  0.00  0.00    +0.001 A 
ENDBRANCH   9  20
ENDBRANCH  15   6
BRANCH  14   5
ATOM      5  N   UNL     1     -12.480  -7.308  11.690  0.00  0.00    -0.187 N 
ATOM      7  N   UNL     1     -12.463  -8.420  10.949  0.00  0.00    -0.041 NA
ATOM      8  N   UNL     1     -11.902  -6.650   9.715  0.00  0.00    -0.071 NA
ATOM     10  N   UNL     1     -12.107  -8.011   9.737  0.00  0.00    -0.020 NA
ATOM     18  C   UNL     1     -12.140  -6.236  10.939  0.00  0.00    +0.342 A 
BRANCH  18   3
ATOM      3  O   UNL     1     -12.064  -4.994  11.380  0.00  0.00    -0.423 OA
BRANCH   3  21
ATOM     21  C   UNL     1     -13.166  -4.152  11.436  0.00  0.00    +0.134 A 
ATOM     24  C   UNL     1     -13.599  -3.535  10.279  0.00  0.00    +0.069 A 
ATOM     25  C   UNL     1     -13.799  -3.957  12.648  0.00  0.00    +0.046 A 
ATOM     29  C   UNL     1     -14.707  -2.689  10.336  0.00  0.00    +0.033 A 
ATOM     31  C   UNL     1     -14.906  -3.111  12.706  0.00  0.00    +0.005 A 
ATOM     33  C   UNL     1     -15.361  -2.477  11.550  0.00  0.00    +0.023 A 
BRANCH  29  11
ATOM     11  N   UNL     1     -15.165  -2.047   9.167  0.00  0.00    -0.336 N 
ATOM     36  C   UNL     1     -16.134  -0.972   9.250  0.00  0.00    +0.129 C 
ATOM     37  C   UNL     1     -14.681  -2.461   7.864  0.00  0.00    +0.129 C 
ENDBRANCH  29  11
ENDBRANCH   3  21
ENDBRANCH  18   3
ENDBRANCH  14   5
TORSDOF 6
ENDMDL
MODEL 5
REMARK VINA RESULT:      -7.1     19.996     24.257
REMARK  Name = 11879570
REMARK  8 active torsions:
REMARK  status: ('A' for Active; 'I' for Inactive)
REMARK    1  A    between atoms: O_3  and  C_18
REMARK    2  A    between atoms: O_3  and  C_21
REMARK    3  A    between atoms: N_5  and  C_14
REMARK    4  A    between atoms: N_6  and  C_15
REMARK    5  A    between atoms: N_9  and  C_20
REMARK    6  A    between atoms: N_11  and  C_29
REMARK    7  A    between atoms: N_11  and  C_36
REMARK    8  A    between atoms: N_11  and  C_37
REMARK                            x       y       z     vdW  Elec       q    Type
REMARK                         _______ _______ _______ _____ _____    ______ ____
ROOT
ATOM      1  O   UNL     1     -14.805   3.838  33.767  0.00  0.00    -0.370 OA
ATOM      2  O   UNL     1     -15.710   5.681  31.385  0.00  0.00    -0.370 OA
ATOM     12  C   UNL     1     -14.913   4.487  31.475  0.00  0.00    +0.176 C 
ATOM     13  C   UNL     1     -14.106   4.583  32.757  0.00  0.00    +0.172 C 
ATOM     14  C   UNL     1     -15.811   3.281  31.674  0.00  0.00    +0.171 C 
ATOM     15  C   UNL     1     -14.113   6.056  33.093  0.00  0.00    +0.131 C 
ATOM     16  C   UNL     1     -15.957   3.208  33.190  0.00  0.00    +0.190 C 
ATOM     17  C   UNL     1     -15.442   6.513  32.523  0.00  0.00    +0.185 C 
ENDROOT
BRANCH  15   6
ATOM      4  O   UNL     1     -13.153   8.685  33.706  0.00  0.00    -0.252 OA
ATOM      6  N   UNL     1     -13.011   6.742  32.462  0.00  0.00    -0.292 N 
ATOM      9  N   UNL     1     -11.515   8.434  32.043  0.00  0.00    -0.269 N 
ATOM     19  C   UNL     1     -12.604   8.032  32.823  0.00  0.00    +0.304 C 
ATOM     38  H   UNL     1     -12.531   6.287  31.691  0.00  0.00    +0.151 HD
ATOM     39  H   UNL     1     -11.086   7.689  31.506  0.00  0.00    +0.156 HD
BRANCH   9  20
ATOM     20  C   UNL     1     -10.816   9.662  32.098  0.00  0.00    +0.042 A 
ATOM     22  C   UNL     1     -11.117  10.709  31.224  0.00  0.00    +0.003 A 
ATOM     23  C   UNL     1      -9.819   9.778  33.058  0.00  0.00    +0.024 A 
ATOM     26  C   UNL     1     -10.384  11.915  31.326  0.00  0.00    -0.016 A 
ATOM     27  C   UNL     1      -9.098  10.964  33.158  0.00  0.00    +0.002 A 
ATOM     28  C   UNL     1     -12.124  10.598  30.251  0.00  0.00    +0.010 A 
ATOM     30  C   UNL     1      -9.376  12.026  32.298  0.00  0.00    +0.008 A 
ATOM     32  C   UNL     1     -10.678  12.974  30.452  0.00  0.00    +0.008 A 
ATOM     34  C   UNL     1     -12.404  11.661  29.391  0.00  0.00    +0.001 A 
ATOM     35  C   UNL     1     -11.682  12.846  29.491  0.00  0.00    +0.001 A 
ENDBRANCH   9  20
ENDBRANCH  15   6
BRANCH  14   5
ATOM      5  N   UNL     1     -15.274   2.071  31.044  0.00  0.00    -0.187 N 
ATOM      7  N   UNL     1     -14.931   1.010  31.779  0.00  0.00    -0.041 NA
ATOM      8  N   UNL     1     -14.560   0.614  29.617  0.00  0.00    -0.071 NA
ATOM     10  N   UNL     1     -14.493   0.118  30.899  0.00  0.00    -0.020 NA
ATOM     18  C   UNL     1     -15.048   1.828  29.732  0.00  0.00    +0.342 A 
BRANCH  18   3
ATOM      3  O   UNL     1     -15.283   2.680  28.751  0.00  0.00    -0.423 OA
BRANCH   3  21
ATOM     21  C   UNL     1     -16.326   2.513  27.850  0.00  0.00    +0.134 A 
ATOM     24  C   UNL     1     -16.092   2.730  26.506  0.00  0.00    +0.069 A 
ATOM     25  C   UNL     1     -17.567   2.134  28.324  0.00  0.00    +0.046 A 
ATOM     29  C   UNL     1     -17.140   2.561  25.601  0.00  0.00    +0.033 A 
ATOM     31  C   UNL     1     -18.615   1.966  27.419  0.00  0.00    +0.005 A 
ATOM     33  C   UNL     1     -18.402   2.179  26.057  0.00  0.00    +0.023 A 
BRANCH  29  11
ATOM     11  N   UNL     1     -16.924   2.779  24.224  0.00  0.00    -0.336 N 
ATOM     36  C   UNL     1     -15.931   3.737  23.779  0.00  0.00    +0.129 C 
ATOM     37  C   UNL     1     -17.702   2.058  23.236  0.00  0.00    +0.129 C 
ENDBRANCH  29  11
ENDBRANCH   3  21
ENDBRANCH  18   3
ENDBRANCH  14   5
TORSDOF 6
ENDMDL
MODEL 6
REMARK VINA RESULT:      -7.1     22.032     24.754
REMARK  Name = 11879570
REMARK  8 active torsions:
REMARK  status: ('A' for Active; 'I' for Inactive)
REMARK    1  A    between atoms: O_3  and  C_18
REMARK    2  A    between atoms: O_3  and  C_21
REMARK    3  A    between atoms: N_5  and  C_14
REMARK    4  A    between atoms: N_6  and  C_15
REMARK    5  A    between atoms: N_9  and  C_20
REMARK    6  A    between atoms: N_11  and  C_29
REMARK    7  A    between atoms: N_11  and  C_36
REMARK    8  A    between atoms: N_11  and  C_37
REMARK                            x       y       z     vdW  Elec       q    Type
REMARK                         _______ _______ _______ _____ _____    ______ ____
ROOT
ATOM      1  O   UNL     1       6.009  11.735   1.501  0.00  0.00    -0.370 OA
ATOM      2  O   UNL     1       5.066  10.997   4.408  0.00  0.00    -0.370 OA
ATOM     12  C   UNL     1       5.663  10.250   3.334  0.00  0.00    +0.176 C 
ATOM     13  C   UNL     1       5.078  10.783   2.039  0.00  0.00    +0.172 C 
ATOM     14  C   UNL     1       7.144  10.566   3.246  0.00  0.00    +0.171 C 
ATOM     15  C   UNL     1       3.804  11.476   2.464  0.00  0.00    +0.131 C 
ATOM     16  C   UNL     1       7.182  11.780   2.324  0.00  0.00    +0.190 C 
ATOM     17  C   UNL     1       4.144  11.951   3.863  0.00  0.00    +0.185 C 
ENDROOT
BRANCH  15   6
ATOM      4  O   UNL     1       1.025  12.156   2.306  0.00  0.00    -0.252 OA
ATOM      6  N   UNL     1       2.689  10.560   2.478  0.00  0.00    -0.292 N 
ATOM      9  N   UNL     1       0.499   9.872   2.433  0.00  0.00    -0.269 N 
ATOM     19  C   UNL     1       1.355  10.976   2.396  0.00  0.00    +0.304 C 
ATOM     38  H   UNL     1       2.874   9.569   2.595  0.00  0.00    +0.151 HD
ATOM     39  H   UNL     1       0.961   8.977   2.315  0.00  0.00    +0.156 HD
BRANCH   9  20
ATOM     20  C   UNL     1      -0.915   9.868   2.374  0.00  0.00    +0.042 A 
ATOM     22  C   UNL     1      -1.687   9.573   3.500  0.00  0.00    +0.003 A 
ATOM     23  C   UNL     1      -1.497  10.171   1.150  0.00  0.00    +0.024 A 
ATOM     26  C   UNL     1      -3.097   9.584   3.382  0.00  0.00    -0.016 A 
ATOM     27  C   UNL     1      -2.883  10.182   1.033  0.00  0.00    +0.002 A 
ATOM     28  C   UNL     1      -1.105   9.266   4.741  0.00  0.00    +0.010 A 
ATOM     30  C   UNL     1      -3.680   9.890   2.141  0.00  0.00    +0.008 A 
ATOM     32  C   UNL     1      -3.884   9.289   4.507  0.00  0.00    +0.008 A 
ATOM     34  C   UNL     1      -1.901   8.975   5.849  0.00  0.00    +0.001 A 
ATOM     35  C   UNL     1      -3.288   8.986   5.733  0.00  0.00    +0.001 A 
ENDBRANCH   9  20
ENDBRANCH  15   6
BRANCH  14   5
ATOM      5  N   UNL     1       7.938   9.420   2.794  0.00  0.00    -0.187 N 
ATOM      7  N   UNL     1       8.608   9.462   1.639  0.00  0.00    -0.041 NA
ATOM      8  N   UNL     1       8.906   7.494   2.643  0.00  0.00    -0.071 NA
ATOM     10  N   UNL     1       9.201   8.278   1.550  0.00  0.00    -0.020 NA
ATOM     18  C   UNL     1       8.120   8.224   3.401  0.00  0.00    +0.342 A 
BRANCH  18   3
ATOM      3  O   UNL     1       7.588   7.871   4.557  0.00  0.00    -0.423 OA
BRANCH   3  21
ATOM     21  C   UNL     1       8.333   7.777   5.724  0.00  0.00    +0.134 A 
ATOM     24  C   UNL     1       8.556   6.532   6.279  0.00  0.00    +0.069 A 
ATOM     25  C   UNL     1       8.831   8.931   6.296  0.00  0.00    +0.046 A 
ATOM     29  C   UNL     1       9.305   6.438   7.453  0.00  0.00    +0.033 A 
ATOM     31  C   UNL     1       9.579   8.838   7.469  0.00  0.00    +0.005 A 
ATOM     33  C   UNL     1       9.816   7.592   8.048  0.00  0.00    +0.023 A 
BRANCH  29  11
ATOM     11  N   UNL     1       9.543   5.177   8.038  0.00  0.00    -0.336 N 
ATOM     36  C   UNL     1       9.453   5.006   9.475  0.00  0.00    +0.129 C 
ATOM     37  C   UNL     1       9.892   4.038   7.212  0.00  0.00    +0.129 C 
ENDBRANCH  29  11
ENDBRANCH   3  21
ENDBRANCH  18   3
ENDBRANCH  14   5
TORSDOF 6
ENDMDL
MODEL 7
REMARK VINA RESULT:      -7.0     22.535     26.359
REMARK  Name = 11879570
REMARK  8 active torsions:
REMARK  status: ('A' for Active; 'I' for Inactive)
REMARK    1  A    between atoms: O_3  and  C_18
REMARK    2  A    between atoms: O_3  and  C_21
REMARK    3  A    between atoms: N_5  and  C_14
REMARK    4  A    between atoms: N_6  and  C_15
REMARK    5  A    between atoms: N_9  and  C_20
REMARK    6  A    between atoms: N_11  and  C_29
REMARK    7  A    between atoms: N_11  and  C_36
REMARK    8  A    between atoms: N_11  and  C_37
REMARK                            x       y       z     vdW  Elec       q    Type
REMARK                         _______ _______ _______ _____ _____    ______ ____
ROOT
ATOM      1  O   UNL     1     -15.268   9.097  33.840  0.00  0.00    -0.370 OA
ATOM      2  O   UNL     1     -12.479   7.849  34.580  0.00  0.00    -0.370 OA
ATOM     12  C   UNL     1     -12.964   8.617  33.464  0.00  0.00    +0.176 C 
ATOM     13  C   UNL     1     -14.387   8.165  33.195  0.00  0.00    +0.172 C 
ATOM     14  C   UNL     1     -13.090  10.076  33.857  0.00  0.00    +0.171 C 
ATOM     15  C   UNL     1     -14.480   6.810  33.859  0.00  0.00    +0.131 C 
ATOM     16  C   UNL     1     -14.501  10.156  34.429  0.00  0.00    +0.190 C 
ATOM     17  C   UNL     1     -13.506   6.947  35.013  0.00  0.00    +0.185 C 
ENDROOT
BRANCH  15   6
ATOM      4  O   UNL     1     -15.948   4.428  33.242  0.00  0.00    -0.252 OA
ATOM      6  N   UNL     1     -14.077   5.757  32.957  0.00  0.00    -0.292 N 
ATOM      9  N   UNL     1     -14.215   3.780  31.797  0.00  0.00    -0.269 N 
ATOM     19  C   UNL     1     -14.857   4.621  32.710  0.00  0.00    +0.304 C 
ATOM     38  H   UNL     1     -13.168   5.819  32.510  0.00  0.00    +0.151 HD
ATOM     39  H   UNL     1     -13.420   4.199  31.327  0.00  0.00    +0.156 HD
BRANCH   9  20
ATOM     20  C   UNL     1     -14.670   2.540  31.290  0.00  0.00    +0.042 A 
ATOM     22  C   UNL     1     -15.271   2.446  30.032  0.00  0.00    +0.003 A 
ATOM     23  C   UNL     1     -14.492   1.424  32.098  0.00  0.00    +0.024 A 
ATOM     26  C   UNL     1     -15.707   1.179  29.578  0.00  0.00    -0.016 A 
ATOM     27  C   UNL     1     -14.921   0.178  31.651  0.00  0.00    +0.002 A 
ATOM     28  C   UNL     1     -15.454   3.571  29.211  0.00  0.00    +0.010 A 
ATOM     30  C   UNL     1     -15.525   0.055  30.400  0.00  0.00    +0.008 A 
ATOM     32  C   UNL     1     -16.313   1.073  28.315  0.00  0.00    +0.008 A 
ATOM     34  C   UNL     1     -16.057   3.447  27.959  0.00  0.00    +0.001 A 
ATOM     35  C   UNL     1     -16.486   2.201  27.512  0.00  0.00    +0.001 A 
ENDBRANCH   9  20
ENDBRANCH  15   6
BRANCH  14   5
ATOM      5  N   UNL     1     -12.823  10.984  32.738  0.00  0.00    -0.187 N 
ATOM      7  N   UNL     1     -13.735  11.880  32.349  0.00  0.00    -0.041 NA
ATOM      8  N   UNL     1     -11.906  12.027  31.082  0.00  0.00    -0.071 NA
ATOM     10  N   UNL     1     -13.168  12.517  31.332  0.00  0.00    -0.020 NA
ATOM     18  C   UNL     1     -11.714  11.076  31.968  0.00  0.00    +0.342 A 
BRANCH  18   3
ATOM      3  O   UNL     1     -10.635  10.326  32.099  0.00  0.00    -0.423 OA
BRANCH   3  21
ATOM     21  C   UNL     1      -9.587  10.666  32.942  0.00  0.00    +0.134 A 
ATOM     24  C   UNL     1      -9.358   9.901  34.070  0.00  0.00    +0.069 A 
ATOM     25  C   UNL     1      -8.803  11.759  32.631  0.00  0.00    +0.046 A 
ATOM     29  C   UNL     1      -8.304  10.243  34.917  0.00  0.00    +0.033 A 
ATOM     31  C   UNL     1      -7.749  12.102  33.478  0.00  0.00    +0.005 A 
ATOM     33  C   UNL     1      -7.500  11.343  34.622  0.00  0.00    +0.023 A 
BRANCH  29  11
ATOM     11  N   UNL     1      -8.054   9.476  36.075  0.00  0.00    -0.336 N 
ATOM     36  C   UNL     1      -6.730   9.451  36.666  0.00  0.00    +0.129 C 
ATOM     37  C   UNL     1      -9.113   8.695  36.681  0.00  0.00    +0.129 C 
ENDBRANCH  29  11
ENDBRANCH   3  21
ENDBRANCH  18   3
ENDBRANCH  14   5
TORSDOF 6
ENDMDL
MODEL 8
REMARK VINA RESULT:      -7.0      4.669      6.041
REMARK  Name = 11879570
REMARK  8 active torsions:
REMARK  status: ('A' for Active; 'I' for Inactive)
REMARK    1  A    between atoms: O_3  and  C_18
REMARK    2  A    between atoms: O_3  and  C_21
REMARK    3  A    between atoms: N_5  and  C_14
REMARK    4  A    between atoms: N_6  and  C_15
REMARK    5  A    between atoms: N_9  and  C_20
REMARK    6  A    between atoms: N_11  and  C_29
REMARK    7  A    between atoms: N_11  and  C_36
REMARK    8  A    between atoms: N_11  and  C_37
REMARK                            x       y       z     vdW  Elec       q    Type
REMARK                         _______ _______ _______ _____ _____    ______ ____
ROOT
ATOM      1  O   UNL     1      -8.628 -11.909  16.743  0.00  0.00    -0.370 OA
ATOM      2  O   UNL     1      -8.576  -8.834  17.397  0.00  0.00    -0.370 OA
ATOM     12  C   UNL     1      -8.045 -10.001  18.048  0.00  0.00    +0.176 C 
ATOM     13  C   UNL     1      -9.056 -11.117  17.862  0.00  0.00    +0.172 C 
ATOM     14  C   UNL     1      -6.804 -10.479  17.319  0.00  0.00    +0.171 C 
ATOM     15  C   UNL     1     -10.346 -10.400  17.535  0.00  0.00    +0.131 C 
ATOM     16  C   UNL     1      -7.369 -11.419  16.260  0.00  0.00    +0.190 C 
ATOM     17  C   UNL     1      -9.853  -9.153  16.828  0.00  0.00    +0.185 C 
ENDROOT
BRANCH  15   6
ATOM      4  O   UNL     1     -12.554 -11.845  18.650  0.00  0.00    -0.252 OA
ATOM      6  N   UNL     1     -11.078 -10.068  18.733  0.00  0.00    -0.292 N 
ATOM      9  N   UNL     1     -12.660 -10.268  20.386  0.00  0.00    -0.269 N 
ATOM     19  C   UNL     1     -12.149 -10.831  19.212  0.00  0.00    +0.304 C 
ATOM     38  H   UNL     1     -10.835  -9.218  19.233  0.00  0.00    +0.151 HD
ATOM     39  H   UNL     1     -12.076  -9.548  20.795  0.00  0.00    +0.156 HD
BRANCH   9  20
ATOM     20  C   UNL     1     -13.737 -10.735  21.174  0.00  0.00    +0.042 A 
ATOM     22  C   UNL     1     -14.958 -10.057  21.211  0.00  0.00    +0.003 A 
ATOM     23  C   UNL     1     -13.526 -11.896  21.907  0.00  0.00    +0.024 A 
ATOM     26  C   UNL     1     -16.000 -10.572  22.018  0.00  0.00    -0.016 A 
ATOM     27  C   UNL     1     -14.551 -12.403  22.701  0.00  0.00    +0.002 A 
ATOM     28  C   UNL     1     -15.178  -8.883  20.473  0.00  0.00    +0.010 A 
ATOM     30  C   UNL     1     -15.780 -11.745  22.758  0.00  0.00    +0.008 A 
ATOM     32  C   UNL     1     -17.231  -9.898  22.064  0.00  0.00    +0.008 A 
ATOM     34  C   UNL     1     -16.408  -8.226  20.529  0.00  0.00    +0.001 A 
ATOM     35  C   UNL     1     -17.432  -8.732  21.322  0.00  0.00    +0.001 A 
ENDBRANCH   9  20
ENDBRANCH  15   6
BRANCH  14   5
ATOM      5  N   UNL     1      -5.819 -11.083  18.222  0.00  0.00    -0.187 N 
ATOM      7  N   UNL     1      -5.891 -10.890  19.542  0.00  0.00    -0.041 NA
ATOM      8  N   UNL     1      -4.147 -12.183  19.035  0.00  0.00    -0.071 NA
ATOM     10  N   UNL     1      -4.862 -11.568  20.037  0.00  0.00    -0.020 NA
ATOM     18  C   UNL     1      -4.760 -11.868  17.917  0.00  0.00    +0.342 A 
BRANCH  18   3
ATOM      3  O   UNL     1      -4.417 -12.240  16.698  0.00  0.00    -0.423 OA
BRANCH   3  21
ATOM     21  C   UNL     1      -3.519 -11.520  15.922  0.00  0.00    +0.134 A 
ATOM     24  C   UNL     1      -3.824 -11.275  14.597  0.00  0.00    +0.069 A 
ATOM     25  C   UNL     1      -2.348 -11.069  16.497  0.00  0.00    +0.046 A 
ATOM     29  C   UNL     1      -2.922 -10.552  13.817  0.00  0.00    +0.033 A 
ATOM     31  C   UNL     1      -1.445 -10.346  15.718  0.00  0.00    +0.005 A 
ATOM     33  C   UNL     1      -1.731 -10.087  14.378  0.00  0.00    +0.023 A 
BRANCH  29  11
ATOM     11  N   UNL     1      -3.212 -10.291  12.462  0.00  0.00    -0.336 N 
ATOM     36  C   UNL     1      -4.586 -10.189  12.011  0.00  0.00    +0.129 C 
ATOM     37  C   UNL     1      -2.140 -10.134  11.499  0.00  0.00    +0.129 C 
ENDBRANCH  29  11
ENDBRANCH   3  21
ENDBRANCH  18   3
ENDBRANCH  14   5
TORSDOF 6
ENDMDL
MODEL 9
REMARK VINA RESULT:      -6.9      4.817      6.200
REMARK  Name = 11879570
REMARK  8 active torsions:
REMARK  status: ('A' for Active; 'I' for Inactive)
REMARK    1  A    between atoms: O_3  and  C_18
REMARK    2  A    between atoms: O_3  and  C_21
REMARK    3  A    between atoms: N_5  and  C_14
REMARK    4  A    between atoms: N_6  and  C_15
REMARK    5  A    between atoms: N_9  and  C_20
REMARK    6  A    between atoms: N_11  and  C_29
REMARK    7  A    between atoms: N_11  and  C_36
REMARK    8  A    between atoms: N_11  and  C_37
REMARK                            x       y       z     vdW  Elec       q    Type
REMARK                         _______ _______ _______ _____ _____    ______ ____
ROOT
ATOM      1  O   UNL     1      -9.599 -10.950  15.756  0.00  0.00    -0.370 OA
ATOM      2  O   UNL     1      -8.587  -8.522  17.478  0.00  0.00    -0.370 OA
ATOM     12  C   UNL     1      -8.434  -9.949  17.579  0.00  0.00    +0.176 C 
ATOM     13  C   UNL     1      -9.744 -10.572  17.134  0.00  0.00    +0.172 C 
ATOM     14  C   UNL     1      -7.413 -10.432  16.567  0.00  0.00    +0.171 C 
ATOM     15  C   UNL     1     -10.753  -9.454  17.267  0.00  0.00    +0.131 C 
ATOM     16  C   UNL     1      -8.258 -10.685  15.323  0.00  0.00    +0.190 C 
ATOM     17  C   UNL     1      -9.909  -8.222  17.007  0.00  0.00    +0.185 C 
ENDROOT
BRANCH  15   6
ATOM      4  O   UNL     1     -13.437 -10.153  17.984  0.00  0.00    -0.252 OA
ATOM      6  N   UNL     1     -11.329  -9.424  18.590  0.00  0.00    -0.292 N 
ATOM      9  N   UNL     1     -12.928  -9.657  20.221  0.00  0.00    -0.269 N 
ATOM     19  C   UNL     1     -12.655  -9.784  18.856  0.00  0.00    +0.304 C 
ATOM     38  H   UNL     1     -10.761  -9.088  19.361  0.00  0.00    +0.151 HD
ATOM     39  H   UNL     1     -12.109  -9.526  20.803  0.00  0.00    +0.156 HD
BRANCH   9  20
ATOM     20  C   UNL     1     -14.146  -9.922  20.891  0.00  0.00    +0.042 A 
ATOM     22  C   UNL     1     -14.347 -11.116  21.589  0.00  0.00    +0.003 A 
ATOM     23  C   UNL     1     -15.130  -8.943  20.823  0.00  0.00    +0.024 A 
ATOM     26  C   UNL     1     -15.585 -11.325  22.240  0.00  0.00    -0.016 A 
ATOM     27  C   UNL     1     -16.348  -9.149  21.462  0.00  0.00    +0.002 A 
ATOM     28  C   UNL     1     -13.356 -12.108  21.661  0.00  0.00    +0.010 A 
ATOM     30  C   UNL     1     -16.576 -10.333  22.166  0.00  0.00    +0.008 A 
ATOM     32  C   UNL     1     -15.798 -12.521  22.944  0.00  0.00    +0.008 A 
ATOM     34  C   UNL     1     -13.584 -13.291  22.366  0.00  0.00    +0.001 A 
ATOM     35  C   UNL     1     -14.802 -13.497  23.006  0.00  0.00    +0.001 A 
ENDBRANCH   9  20
ENDBRANCH  15   6
BRANCH  14   5
ATOM      5  N   UNL     1      -6.651 -11.588  17.045  0.00  0.00    -0.187 N 
ATOM      7  N   UNL     1      -7.261 -12.746  17.317  0.00  0.00    -0.041 NA
ATOM      8  N   UNL     1      -5.071 -12.908  17.700  0.00  0.00    -0.071 NA
ATOM     10  N   UNL     1      -6.286 -13.553  17.719  0.00  0.00    -0.020 NA
ATOM     18  C   UNL     1      -5.322 -11.690  17.279  0.00  0.00    +0.342 A 
BRANCH  18   3
ATOM      3  O   UNL     1      -4.446 -10.717  17.108  0.00  0.00    -0.423 OA
BRANCH   3  21
ATOM     21  C   UNL     1      -3.573 -10.680  16.029  0.00  0.00    +0.134 A 
ATOM     24  C   UNL     1      -4.090 -10.659  14.748  0.00  0.00    +0.069 A 
ATOM     25  C   UNL     1      -2.213 -10.662  16.268  0.00  0.00    +0.046 A 
ATOM     29  C   UNL     1      -3.212 -10.621  13.665  0.00  0.00    +0.033 A 
ATOM     31  C   UNL     1      -1.335 -10.624  15.185  0.00  0.00    +0.005 A 
ATOM     33  C   UNL     1      -1.834 -10.604  13.883  0.00  0.00    +0.023 A 
BRANCH  29  11
ATOM     11  N   UNL     1      -3.718 -10.602  12.348  0.00  0.00    -0.336 N 
ATOM     36  C   UNL     1      -2.966 -11.203  11.264  0.00  0.00    +0.129 C 
ATOM     37  C   UNL     1      -4.990  -9.971  12.060  0.00  0.00    +0.129 C 
ENDBRANCH  29  11
ENDBRANCH   3  21
ENDBRANCH  18   3
ENDBRANCH  14   5
TORSDOF 6
ENDMDL
MODEL 10
REMARK VINA RESULT:      -6.8     22.477     25.162
REMARK  Name = 11879570
REMARK  8 active torsions:
REMARK  status: ('A' for Active; 'I' for Inactive)
REMARK    1  A    between atoms: O_3  and  C_18
REMARK    2  A    between atoms: O_3  and  C_21
REMARK    3  A    between atoms: N_5  and  C_14
REMARK    4  A    between atoms: N_6  and  C_15
REMARK    5  A    between atoms: N_9  and  C_20
REMARK    6  A    between atoms: N_11  and  C_29
REMARK    7  A    between atoms: N_11  and  C_36
REMARK    8  A    between atoms: N_11  and  C_37
REMARK                            x       y       z     vdW  Elec       q    Type
REMARK                         _______ _______ _______ _____ _____    ______ ____
ROOT
ATOM      1  O   UNL     1       6.277  11.925   1.686  0.00  0.00    -0.370 OA
ATOM      2  O   UNL     1       5.161  10.818   4.409  0.00  0.00    -0.370 OA
ATOM     12  C   UNL     1       5.831  10.216   3.287  0.00  0.00    +0.176 C 
ATOM     13  C   UNL     1       5.323  10.910   2.038  0.00  0.00    +0.172 C 
ATOM     14  C   UNL     1       7.311  10.542   3.335  0.00  0.00    +0.171 C 
ATOM     15  C   UNL     1       4.019  11.543   2.466  0.00  0.00    +0.131 C 
ATOM     16  C   UNL     1       7.396  11.864   2.581  0.00  0.00    +0.190 C 
ATOM     17  C   UNL     1       4.266  11.833   3.934  0.00  0.00    +0.185 C 
ENDROOT
BRANCH  15   6
ATOM      4  O   UNL     1       1.238  12.224   2.353  0.00  0.00    -0.252 OA
ATOM      6  N   UNL     1       2.914  10.632   2.292  0.00  0.00    -0.292 N 
ATOM      9  N   UNL     1       0.732   9.949   2.068  0.00  0.00    -0.269 N 
ATOM     19  C   UNL     1       1.578  11.048   2.246  0.00  0.00    +0.304 C 
ATOM     38  H   UNL     1       3.106   9.636   2.240  0.00  0.00    +0.151 HD
ATOM     39  H   UNL     1       1.206   9.091   1.811  0.00  0.00    +0.156 HD
BRANCH   9  20
ATOM     20  C   UNL     1      -0.679   9.947   1.972  0.00  0.00    +0.042 A 
ATOM     22  C   UNL     1      -1.323   9.912   0.733  0.00  0.00    +0.003 A 
ATOM     23  C   UNL     1      -1.393   9.981   3.164  0.00  0.00    +0.024 A 
ATOM     26  C   UNL     1      -2.737   9.911   0.698  0.00  0.00    -0.016 A 
ATOM     27  C   UNL     1      -2.784   9.981   3.130  0.00  0.00    +0.002 A 
ATOM     28  C   UNL     1      -0.606   9.878  -0.475  0.00  0.00    +0.010 A 
ATOM     30  C   UNL     1      -3.453   9.947   1.906  0.00  0.00    +0.008 A 
ATOM     32  C   UNL     1      -3.395   9.877  -0.542  0.00  0.00    +0.008 A 
ATOM     34  C   UNL     1      -1.276   9.843  -1.699  0.00  0.00    +0.001 A 
ATOM     35  C   UNL     1      -2.667   9.842  -1.733  0.00  0.00    +0.001 A 
ENDBRANCH   9  20
ENDBRANCH  15   6
BRANCH  14   5
ATOM      5  N   UNL     1       8.142   9.463   2.791  0.00  0.00    -0.187 N 
ATOM      7  N   UNL     1       8.909   9.665   1.716  0.00  0.00    -0.041 NA
ATOM      8  N   UNL     1       9.121   7.569   2.445  0.00  0.00    -0.071 NA
ATOM     10  N   UNL     1       9.508   8.499   1.507  0.00  0.00    -0.020 NA
ATOM     18  C   UNL     1       8.272   8.190   3.231  0.00  0.00    +0.342 A 
BRANCH  18   3
ATOM      3  O   UNL     1       7.643   7.680   4.273  0.00  0.00    -0.423 OA
BRANCH   3  21
ATOM     21  C   UNL     1       8.273   7.454   5.489  0.00  0.00    +0.134 A 
ATOM     24  C   UNL     1       8.630   6.164   5.830  0.00  0.00    +0.069 A 
ATOM     25  C   UNL     1       8.525   8.526   6.323  0.00  0.00    +0.046 A 
ATOM     29  C   UNL     1       9.264   5.938   7.052  0.00  0.00    +0.033 A 
ATOM     31  C   UNL     1       9.157   8.301   7.545  0.00  0.00    +0.005 A 
ATOM     33  C   UNL     1       9.527   7.007   7.910  0.00  0.00    +0.023 A 
BRANCH  29  11
ATOM     11  N   UNL     1       9.636   4.629   7.422  0.00  0.00    -0.336 N 
ATOM     36  C   UNL     1       9.723   4.257   8.821  0.00  0.00    +0.129 C 
ATOM     37  C   UNL     1       9.947   3.640   6.409  0.00  0.00    +0.129 C 
ENDBRANCH  29  11
ENDBRANCH   3  21
ENDBRANCH  18   3
ENDBRANCH  14   5
TORSDOF 6
ENDMDL
