MODEL 1
REMARK VINA RESULT:      -7.1      0.000      0.000
REMARK  Name = 11882607
REMARK  14 active torsions:
REMARK  status: ('A' for Active; 'I' for Inactive)
REMARK    1  A    between atoms: O_6  and  C_35
REMARK    2  A    between atoms: O_6  and  C_37
REMARK    3  A    between atoms: N_8  and  C_12
REMARK    4  A    between atoms: N_9  and  C_21
REMARK    5  A    between atoms: N_10  and  C_19
REMARK    6  A    between atoms: N_10  and  C_27
REMARK    7  A    between atoms: C_13  and  C_17
REMARK    8  A    between atoms: C_18  and  C_19
REMARK    9  A    between atoms: C_19  and  C_22
REMARK   10  A    between atoms: C_20  and  C_24
REMARK   11  A    between atoms: C_21  and  C_23
REMARK   12  A    between atoms: C_21  and  C_25
REMARK   13  A    between atoms: C_23  and  C_26
REMARK   14  A    between atoms: C_24  and  C_28
REMARK                            x       y       z     vdW  Elec       q    Type
REMARK                         _______ _______ _______ _____ _____    ______ ____
ROOT
ATOM      3  O   UNL     1      12.215   6.850  19.137  0.00  0.00    -0.274 OA
ATOM      7  N   UNL     1      14.303   7.051  20.146  0.00  0.00    -0.289 N 
ATOM     12  C   UNL     1      17.185   6.610  20.004  0.00  0.00    +0.077 C 
ATOM     13  C   UNL     1      15.122   7.314  21.341  0.00  0.00    +0.164 C 
ATOM     14  C   UNL     1      16.448   6.550  21.344  0.00  0.00    +0.054 C 
ATOM     15  C   UNL     1      16.251   6.203  18.866  0.00  0.00    +0.041 C 
ATOM     16  C   UNL     1      14.999   7.071  18.855  0.00  0.00    +0.110 C 
ATOM     18  C   UNL     1      12.908   6.936  20.154  0.00  0.00    +0.233 C 
ENDROOT
BRANCH  13  17
ATOM      2  O   UNL     1      16.443   9.294  21.551  0.00  0.00    -0.274 OA
ATOM      9  N   UNL     1      14.136   9.498  21.320  0.00  0.00    -0.302 N 
ATOM     17  C   UNL     1      15.327   8.800  21.410  0.00  0.00    +0.234 C 
ATOM     39  H   UNL     1      13.265   8.995  21.177  0.00  0.00    +0.150 HD
BRANCH   9  21
ATOM     21  C   UNL     1      14.058  10.940  21.382  0.00  0.00    +0.163 C 
BRANCH  21  25
ATOM      5  O   UNL     1      13.852  12.324  23.370  0.00  0.00    -0.274 OA
ATOM     11  N   UNL     1      12.636  10.379  23.255  0.00  0.00    -0.328 N 
ATOM     25  C   UNL     1      13.539  11.300  22.767  0.00  0.00    +0.231 C 
ATOM     41  H   UNL     1      12.201  10.506  24.162  0.00  0.00    +0.145 HD
ATOM     42  H   UNL     1      12.384   9.538  22.744  0.00  0.00    +0.145 HD
ENDBRANCH  21  25
BRANCH  21  23
ATOM     23  C   UNL     1      13.139  11.518  20.301  0.00  0.00    +0.067 C 
BRANCH  23  26
ATOM     26  C   UNL     1      13.533  11.089  18.909  0.00  0.00    -0.045 A 
ATOM     29  C   UNL     1      12.793  10.112  18.243  0.00  0.00    +0.007 A 
ATOM     30  C   UNL     1      14.638  11.670  18.287  0.00  0.00    +0.007 A 
ATOM     32  C   UNL     1      13.158   9.717  16.956  0.00  0.00    +0.046 A 
ATOM     33  C   UNL     1      15.003  11.275  17.001  0.00  0.00    +0.046 A 
ATOM     35  C   UNL     1      14.263  10.298  16.335  0.00  0.00    +0.120 A 
BRANCH  35   6
ATOM      6  O   UNL     1      14.618   9.912  15.079  0.00  0.00    -0.495 OA
ATOM     37  C   UNL     1      15.594  10.708  14.408  0.00  0.00    +0.277 C 
ENDBRANCH  35   6
ENDBRANCH  23  26
ENDBRANCH  21  23
ENDBRANCH   9  21
ENDBRANCH  13  17
BRANCH  12   8
ATOM      4  O   UNL     1      19.794   7.311  20.998  0.00  0.00    -0.275 OA
ATOM      8  N   UNL     1      18.357   5.768  20.024  0.00  0.00    -0.312 N 
ATOM     20  C   UNL     1      19.576   6.195  20.526  0.00  0.00    +0.218 C 
ATOM     38  H   UNL     1      18.256   4.805  19.716  0.00  0.00    +0.149 HD
BRANCH  20  24
ATOM     24  C   UNL     1      20.653   5.131  20.458  0.00  0.00    +0.138 C 
BRANCH  24  28
ATOM      1  S   UNL     1      23.148   6.282  20.883  0.00  0.00    -0.101 S 
ATOM     28  C   UNL     1      21.744   5.471  21.436  0.00  0.00    -0.001 A 
ATOM     31  C   UNL     1      21.792   5.217  22.789  0.00  0.00    +0.011 A 
ATOM     34  C   UNL     1      22.998   5.695  23.379  0.00  0.00    +0.008 A 
ATOM     36  C   UNL     1      23.825   6.295  22.456  0.00  0.00    +0.045 A 
ENDBRANCH  24  28
ENDBRANCH  20  24
ENDBRANCH  12   8
BRANCH  18  19
ATOM     19  C   UNL     1      12.236   6.907  21.505  0.00  0.00    +0.137 C 
ATOM     22  C   UNL     1      11.292   5.725  21.589  0.00  0.00    +0.034 C 
BRANCH  19  10
ATOM     10  N   UNL     1      11.516   8.162  21.643  0.00  0.00    -0.309 NA
ATOM     27  C   UNL     1      10.243   7.964  22.326  0.00  0.00    +0.101 C 
ATOM     40  H   UNL     1      11.325   8.547  20.718  0.00  0.00    +0.122 HD
ENDBRANCH  19  10
ENDBRANCH  18  19
TORSDOF 11
ENDMDL
MODEL 2
REMARK VINA RESULT:      -6.8      2.571      4.323
REMARK  Name = 11882607
REMARK  14 active torsions:
REMARK  status: ('A' for Active; 'I' for Inactive)
REMARK    1  A    between atoms: O_6  and  C_35
REMARK    2  A    between atoms: O_6  and  C_37
REMARK    3  A    between atoms: N_8  and  C_12
REMARK    4  A    between atoms: N_9  and  C_21
REMARK    5  A    between atoms: N_10  and  C_19
REMARK    6  A    between atoms: N_10  and  C_27
REMARK    7  A    between atoms: C_13  and  C_17
REMARK    8  A    between atoms: C_18  and  C_19
REMARK    9  A    between atoms: C_19  and  C_22
REMARK   10  A    between atoms: C_20  and  C_24
REMARK   11  A    between atoms: C_21  and  C_23
REMARK   12  A    between atoms: C_21  and  C_25
REMARK   13  A    between atoms: C_23  and  C_26
REMARK   14  A    between atoms: C_24  and  C_28
REMARK                            x       y       z     vdW  Elec       q    Type
REMARK                         _______ _______ _______ _____ _____    ______ ____
ROOT
ATOM      3  O   UNL     1      11.999   6.561  19.025  0.00  0.00    -0.274 OA
ATOM      7  N   UNL     1      13.802   7.154  20.373  0.00  0.00    -0.289 N 
ATOM     12  C   UNL     1      16.691   7.182  20.788  0.00  0.00    +0.077 C 
ATOM     13  C   UNL     1      14.329   7.610  21.670  0.00  0.00    +0.164 C 
ATOM     14  C   UNL     1      15.730   7.074  21.974  0.00  0.00    +0.054 C 
ATOM     15  C   UNL     1      16.063   6.569  19.538  0.00  0.00    +0.041 C 
ATOM     16  C   UNL     1      14.721   7.219  19.231  0.00  0.00    +0.110 C 
ATOM     18  C   UNL     1      12.464   6.814  20.140  0.00  0.00    +0.233 C 
ENDROOT
BRANCH  13  17
ATOM      2  O   UNL     1      13.864   9.737  20.684  0.00  0.00    -0.274 OA
ATOM      9  N   UNL     1      14.804   9.662  22.813  0.00  0.00    -0.302 N 
ATOM     17  C   UNL     1      14.291   9.111  21.651  0.00  0.00    +0.234 C 
ATOM     39  H   UNL     1      15.109   9.055  23.568  0.00  0.00    +0.150 HD
BRANCH   9  21
ATOM     21  C   UNL     1      14.901  11.087  23.036  0.00  0.00    +0.163 C 
BRANCH  21  25
ATOM      5  O   UNL     1      16.852  12.422  23.606  0.00  0.00    -0.274 OA
ATOM     11  N   UNL     1      17.152  10.509  22.371  0.00  0.00    -0.328 N 
ATOM     25  C   UNL     1      16.382  11.440  23.036  0.00  0.00    +0.231 C 
ATOM     41  H   UNL     1      18.159  10.614  22.309  0.00  0.00    +0.145 HD
ATOM     42  H   UNL     1      16.751   9.699  21.908  0.00  0.00    +0.145 HD
ENDBRANCH  21  25
BRANCH  21  23
ATOM     23  C   UNL     1      14.252  11.512  24.357  0.00  0.00    +0.067 C 
BRANCH  23  26
ATOM     26  C   UNL     1      12.950  12.250  24.157  0.00  0.00    -0.045 A 
ATOM     29  C   UNL     1      12.766  13.049  23.028  0.00  0.00    +0.007 A 
ATOM     30  C   UNL     1      11.931  12.134  25.102  0.00  0.00    +0.007 A 
ATOM     32  C   UNL     1      11.563  13.729  22.844  0.00  0.00    +0.046 A 
ATOM     33  C   UNL     1      10.728  12.814  24.918  0.00  0.00    +0.046 A 
ATOM     35  C   UNL     1      10.544  13.613  23.790  0.00  0.00    +0.120 A 
BRANCH  35   6
ATOM      6  O   UNL     1       9.369  14.277  23.609  0.00  0.00    -0.495 OA
ATOM     37  C   UNL     1       9.106  14.786  22.303  0.00  0.00    +0.277 C 
ENDBRANCH  35   6
ENDBRANCH  23  26
ENDBRANCH  21  23
ENDBRANCH   9  21
ENDBRANCH  13  17
BRANCH  12   8
ATOM      4  O   UNL     1      18.908   8.335  22.217  0.00  0.00    -0.275 OA
ATOM      8  N   UNL     1      17.951   6.545  21.089  0.00  0.00    -0.312 N 
ATOM     20  C   UNL     1      18.964   7.183  21.787  0.00  0.00    +0.218 C 
ATOM     38  H   UNL     1      18.063   5.569  20.831  0.00  0.00    +0.149 HD
BRANCH  20  24
ATOM     24  C   UNL     1      20.184   6.308  21.997  0.00  0.00    +0.138 C 
BRANCH  24  28
ATOM      1  S   UNL     1      21.991   7.687  20.396  0.00  0.00    -0.101 S 
ATOM     28  C   UNL     1      21.420   7.162  21.923  0.00  0.00    -0.001 A 
ATOM     31  C   UNL     1      22.212   7.614  22.955  0.00  0.00    +0.011 A 
ATOM     34  C   UNL     1      23.302   8.402  22.485  0.00  0.00    +0.008 A 
ATOM     36  C   UNL     1      23.302   8.522  21.113  0.00  0.00    +0.045 A 
ENDBRANCH  24  28
ENDBRANCH  20  24
ENDBRANCH  12   8
BRANCH  18  19
ATOM     19  C   UNL     1      11.559   6.747  21.345  0.00  0.00    +0.137 C 
ATOM     22  C   UNL     1      11.047   5.333  21.530  0.00  0.00    +0.034 C 
BRANCH  19  10
ATOM     10  N   UNL     1      10.466   7.672  21.101  0.00  0.00    -0.309 NA
ATOM     27  C   UNL     1      10.537   8.817  22.001  0.00  0.00    +0.101 C 
ATOM     40  H   UNL     1       9.577   7.197  21.260  0.00  0.00    +0.122 HD
ENDBRANCH  19  10
ENDBRANCH  18  19
TORSDOF 11
ENDMDL
MODEL 3
REMARK VINA RESULT:      -6.3     26.673     29.652
REMARK  Name = 11882607
REMARK  14 active torsions:
REMARK  status: ('A' for Active; 'I' for Inactive)
REMARK    1  A    between atoms: O_6  and  C_35
REMARK    2  A    between atoms: O_6  and  C_37
REMARK    3  A    between atoms: N_8  and  C_12
REMARK    4  A    between atoms: N_9  and  C_21
REMARK    5  A    between atoms: N_10  and  C_19
REMARK    6  A    between atoms: N_10  and  C_27
REMARK    7  A    between atoms: C_13  and  C_17
REMARK    8  A    between atoms: C_18  and  C_19
REMARK    9  A    between atoms: C_19  and  C_22
REMARK   10  A    between atoms: C_20  and  C_24
REMARK   11  A    between atoms: C_21  and  C_23
REMARK   12  A    between atoms: C_21  and  C_25
REMARK   13  A    between atoms: C_23  and  C_26
REMARK   14  A    between atoms: C_24  and  C_28
REMARK                            x       y       z     vdW  Elec       q    Type
REMARK                         _______ _______ _______ _____ _____    ______ ____
ROOT
ATOM      3  O   UNL     1     -17.006   5.796  21.328  0.00  0.00    -0.274 OA
ATOM      7  N   UNL     1     -15.033   7.030  21.279  0.00  0.00    -0.289 N 
ATOM     12  C   UNL     1     -13.027   8.448  19.701  0.00  0.00    +0.077 C 
ATOM     13  C   UNL     1     -13.815   7.516  21.949  0.00  0.00    +0.164 C 
ATOM     14  C   UNL     1     -12.639   7.719  20.990  0.00  0.00    +0.054 C 
ATOM     15  C   UNL     1     -14.232   7.771  19.051  0.00  0.00    +0.041 C 
ATOM     16  C   UNL     1     -15.401   7.695  20.024  0.00  0.00    +0.110 C 
ATOM     18  C   UNL     1     -15.921   6.100  21.831  0.00  0.00    +0.233 C 
ENDROOT
BRANCH  13  17
ATOM      2  O   UNL     1     -15.312   8.963  23.122  0.00  0.00    -0.274 OA
ATOM      9  N   UNL     1     -13.139   9.688  22.703  0.00  0.00    -0.302 N 
ATOM     17  C   UNL     1     -14.187   8.784  22.662  0.00  0.00    +0.234 C 
ATOM     39  H   UNL     1     -12.237   9.433  22.315  0.00  0.00    +0.150 HD
BRANCH   9  21
ATOM     21  C   UNL     1     -13.246  10.994  23.314  0.00  0.00    +0.163 C 
BRANCH  21  25
ATOM      5  O   UNL     1     -14.664  12.597  22.160  0.00  0.00    -0.274 OA
ATOM     11  N   UNL     1     -12.588  12.139  21.290  0.00  0.00    -0.328 N 
ATOM     25  C   UNL     1     -13.604  11.977  22.208  0.00  0.00    +0.231 C 
ATOM     41  H   UNL     1     -12.689  12.778  20.509  0.00  0.00    +0.145 HD
ATOM     42  H   UNL     1     -11.715  11.623  21.344  0.00  0.00    +0.145 HD
ENDBRANCH  21  25
BRANCH  21  23
ATOM     23  C   UNL     1     -11.946  11.418  24.004  0.00  0.00    +0.067 C 
BRANCH  23  26
ATOM     26  C   UNL     1     -11.879  10.977  25.447  0.00  0.00    -0.045 A 
ATOM     29  C   UNL     1     -13.045  10.897  26.208  0.00  0.00    +0.007 A 
ATOM     30  C   UNL     1     -10.650  10.648  26.018  0.00  0.00    +0.007 A 
ATOM     32  C   UNL     1     -12.982  10.488  27.539  0.00  0.00    +0.046 A 
ATOM     33  C   UNL     1     -10.587  10.240  27.350  0.00  0.00    +0.046 A 
ATOM     35  C   UNL     1     -11.753  10.160  28.111  0.00  0.00    +0.120 A 
BRANCH  35   6
ATOM      6  O   UNL     1     -11.692   9.761  29.411  0.00  0.00    -0.495 OA
ATOM     37  C   UNL     1     -12.235  10.647  30.388  0.00  0.00    +0.277 C 
ENDBRANCH  35   6
ENDBRANCH  23  26
ENDBRANCH  21  23
ENDBRANCH   9  21
ENDBRANCH  13  17
BRANCH  12   8
ATOM      4  O   UNL     1     -10.990  10.477  19.564  0.00  0.00    -0.275 OA
ATOM      8  N   UNL     1     -11.913   8.495  18.783  0.00  0.00    -0.312 N 
ATOM     20  C   UNL     1     -10.979   9.517  18.794  0.00  0.00    +0.218 C 
ATOM     38  H   UNL     1     -11.785   7.708  18.153  0.00  0.00    +0.149 HD
BRANCH  20  24
ATOM     24  C   UNL     1      -9.893   9.341  17.750  0.00  0.00    +0.138 C 
BRANCH  24  28
ATOM      1  S   UNL     1     -11.293  10.734  15.795  0.00  0.00    -0.101 S 
ATOM     28  C   UNL     1     -10.522   9.323  16.384  0.00  0.00    -0.001 A 
ATOM     31  C   UNL     1     -10.578   8.287  15.480  0.00  0.00    +0.011 A 
ATOM     34  C   UNL     1     -11.263   8.655  14.286  0.00  0.00    +0.008 A 
ATOM     36  C   UNL     1     -11.705   9.959  14.324  0.00  0.00    +0.045 A 
ENDBRANCH  24  28
ENDBRANCH  20  24
ENDBRANCH  12   8
BRANCH  18  19
ATOM     19  C   UNL     1     -15.494   5.433  23.116  0.00  0.00    +0.137 C 
ATOM     22  C   UNL     1     -15.887   3.970  23.094  0.00  0.00    +0.034 C 
BRANCH  19  10
ATOM     10  N   UNL     1     -16.161   6.138  24.197  0.00  0.00    -0.309 NA
ATOM     27  C   UNL     1     -17.067   5.253  24.920  0.00  0.00    +0.101 C 
ATOM     40  H   UNL     1     -16.709   6.909  23.813  0.00  0.00    +0.122 HD
ENDBRANCH  19  10
ENDBRANCH  18  19
TORSDOF 11
ENDMDL
MODEL 4
REMARK VINA RESULT:      -6.2      3.610      8.266
REMARK  Name = 11882607
REMARK  14 active torsions:
REMARK  status: ('A' for Active; 'I' for Inactive)
REMARK    1  A    between atoms: O_6  and  C_35
REMARK    2  A    between atoms: O_6  and  C_37
REMARK    3  A    between atoms: N_8  and  C_12
REMARK    4  A    between atoms: N_9  and  C_21
REMARK    5  A    between atoms: N_10  and  C_19
REMARK    6  A    between atoms: N_10  and  C_27
REMARK    7  A    between atoms: C_13  and  C_17
REMARK    8  A    between atoms: C_18  and  C_19
REMARK    9  A    between atoms: C_19  and  C_22
REMARK   10  A    between atoms: C_20  and  C_24
REMARK   11  A    between atoms: C_21  and  C_23
REMARK   12  A    between atoms: C_21  and  C_25
REMARK   13  A    between atoms: C_23  and  C_26
REMARK   14  A    between atoms: C_24  and  C_28
REMARK                            x       y       z     vdW  Elec       q    Type
REMARK                         _______ _______ _______ _____ _____    ______ ____
ROOT
ATOM      3  O   UNL     1      11.086   7.758  19.441  0.00  0.00    -0.274 OA
ATOM      7  N   UNL     1      12.315   9.698  19.821  0.00  0.00    -0.289 N 
ATOM     12  C   UNL     1      12.854  12.004  21.527  0.00  0.00    +0.077 C 
ATOM     13  C   UNL     1      13.233  10.742  19.335  0.00  0.00    +0.164 C 
ATOM     14  C   UNL     1      13.013  12.099  20.008  0.00  0.00    +0.054 C 
ATOM     15  C   UNL     1      11.791  10.968  21.886  0.00  0.00    +0.041 C 
ATOM     16  C   UNL     1      12.125   9.614  21.273  0.00  0.00    +0.110 C 
ATOM     18  C   UNL     1      11.746   8.708  19.011  0.00  0.00    +0.233 C 
ENDROOT
BRANCH  13  17
ATOM      2  O   UNL     1      15.608  10.964  19.470  0.00  0.00    -0.274 OA
ATOM      9  N   UNL     1      14.652   8.868  19.803  0.00  0.00    -0.302 N 
ATOM     17  C   UNL     1      14.628  10.228  19.546  0.00  0.00    +0.234 C 
ATOM     39  H   UNL     1      13.780   8.352  19.872  0.00  0.00    +0.150 HD
BRANCH   9  21
ATOM     21  C   UNL     1      15.874   8.126  20.020  0.00  0.00    +0.163 C 
BRANCH  21  25
ATOM      5  O   UNL     1      16.207   5.882  19.146  0.00  0.00    -0.274 OA
ATOM     11  N   UNL     1      14.439   6.259  20.564  0.00  0.00    -0.328 N 
ATOM     25  C   UNL     1      15.541   6.653  19.834  0.00  0.00    +0.231 C 
ATOM     41  H   UNL     1      14.117   5.297  20.543  0.00  0.00    +0.145 HD
ATOM     42  H   UNL     1      13.900   6.905  21.131  0.00  0.00    +0.145 HD
ENDBRANCH  21  25
BRANCH  21  23
ATOM     23  C   UNL     1      16.458   8.369  21.415  0.00  0.00    +0.067 C 
BRANCH  23  26
ATOM     26  C   UNL     1      17.968   8.371  21.423  0.00  0.00    -0.045 A 
ATOM     29  C   UNL     1      18.667   7.170  21.537  0.00  0.00    +0.007 A 
ATOM     30  C   UNL     1      18.664   9.575  21.318  0.00  0.00    +0.007 A 
ATOM     32  C   UNL     1      20.062   7.173  21.544  0.00  0.00    +0.046 A 
ATOM     33  C   UNL     1      20.058   9.578  21.324  0.00  0.00    +0.046 A 
ATOM     35  C   UNL     1      20.758   8.377  21.438  0.00  0.00    +0.120 A 
BRANCH  35   6
ATOM      6  O   UNL     1      22.119   8.379  21.444  0.00  0.00    -0.495 OA
ATOM     37  C   UNL     1      22.773   7.665  20.397  0.00  0.00    +0.277 C 
ENDBRANCH  35   6
ENDBRANCH  23  26
ENDBRANCH  21  23
ENDBRANCH   9  21
ENDBRANCH  13  17
BRANCH  12   8
ATOM      4  O   UNL     1      14.696  14.006  22.468  0.00  0.00    -0.275 OA
ATOM      8  N   UNL     1      12.520  13.291  22.090  0.00  0.00    -0.312 N 
ATOM     20  C   UNL     1      13.481  14.193  22.517  0.00  0.00    +0.218 C 
ATOM     38  H   UNL     1      11.541  13.561  22.108  0.00  0.00    +0.149 HD
BRANCH  20  24
ATOM     24  C   UNL     1      12.891  15.482  23.054  0.00  0.00    +0.138 C 
BRANCH  24  28
ATOM      1  S   UNL     1      13.539  15.123  25.733  0.00  0.00    -0.101 S 
ATOM     28  C   UNL     1      12.403  15.252  24.457  0.00  0.00    -0.001 A 
ATOM     31  C   UNL     1      11.107  15.121  24.904  0.00  0.00    +0.011 A 
ATOM     34  C   UNL     1      11.046  14.913  26.312  0.00  0.00    +0.008 A 
ATOM     36  C   UNL     1      12.297  14.891  26.888  0.00  0.00    +0.045 A 
ENDBRANCH  24  28
ENDBRANCH  20  24
ENDBRANCH  12   8
BRANCH  18  19
ATOM     19  C   UNL     1      11.957   8.842  17.523  0.00  0.00    +0.137 C 
ATOM     22  C   UNL     1      10.656   8.584  16.790  0.00  0.00    +0.034 C 
BRANCH  19  10
ATOM     10  N   UNL     1      12.968   7.867  17.153  0.00  0.00    -0.309 NA
ATOM     27  C   UNL     1      13.993   8.468  16.307  0.00  0.00    +0.101 C 
ATOM     40  H   UNL     1      12.532   7.106  16.632  0.00  0.00    +0.122 HD
ENDBRANCH  19  10
ENDBRANCH  18  19
TORSDOF 11
ENDMDL
MODEL 5
REMARK VINA RESULT:      -6.2      4.334      7.752
REMARK  Name = 11882607
REMARK  14 active torsions:
REMARK  status: ('A' for Active; 'I' for Inactive)
REMARK    1  A    between atoms: O_6  and  C_35
REMARK    2  A    between atoms: O_6  and  C_37
REMARK    3  A    between atoms: N_8  and  C_12
REMARK    4  A    between atoms: N_9  and  C_21
REMARK    5  A    between atoms: N_10  and  C_19
REMARK    6  A    between atoms: N_10  and  C_27
REMARK    7  A    between atoms: C_13  and  C_17
REMARK    8  A    between atoms: C_18  and  C_19
REMARK    9  A    between atoms: C_19  and  C_22
REMARK   10  A    between atoms: C_20  and  C_24
REMARK   11  A    between atoms: C_21  and  C_23
REMARK   12  A    between atoms: C_21  and  C_25
REMARK   13  A    between atoms: C_23  and  C_26
REMARK   14  A    between atoms: C_24  and  C_28
REMARK                            x       y       z     vdW  Elec       q    Type
REMARK                         _______ _______ _______ _____ _____    ______ ____
ROOT
ATOM      3  O   UNL     1      11.719   6.976  17.414  0.00  0.00    -0.274 OA
ATOM      7  N   UNL     1      12.337   8.523  19.039  0.00  0.00    -0.289 N 
ATOM     12  C   UNL     1      12.200   9.395  21.822  0.00  0.00    +0.077 C 
ATOM     13  C   UNL     1      12.911   9.829  19.404  0.00  0.00    +0.164 C 
ATOM     14  C   UNL     1      12.313  10.414  20.686  0.00  0.00    +0.054 C 
ATOM     15  C   UNL     1      11.484   8.136  21.336  0.00  0.00    +0.041 C 
ATOM     16  C   UNL     1      12.190   7.545  20.123  0.00  0.00    +0.110 C 
ATOM     18  C   UNL     1      12.073   8.116  17.727  0.00  0.00    +0.233 C 
ENDROOT
BRANCH  13  17
ATOM      2  O   UNL     1      14.950   8.621  19.101  0.00  0.00    -0.274 OA
ATOM      9  N   UNL     1      15.020  10.708  20.130  0.00  0.00    -0.302 N 
ATOM     17  C   UNL     1      14.397   9.638  19.511  0.00  0.00    +0.234 C 
ATOM     39  H   UNL     1      14.473  11.517  20.410  0.00  0.00    +0.150 HD
BRANCH   9  21
ATOM     21  C   UNL     1      16.443  10.760  20.375  0.00  0.00    +0.163 C 
BRANCH  21  25
ATOM      5  O   UNL     1      17.526   9.215  21.908  0.00  0.00    -0.274 OA
ATOM     11  N   UNL     1      15.909  10.624  22.729  0.00  0.00    -0.328 N 
ATOM     25  C   UNL     1      16.689  10.095  21.722  0.00  0.00    +0.231 C 
ATOM     41  H   UNL     1      15.984  10.282  23.680  0.00  0.00    +0.145 HD
ATOM     42  H   UNL     1      15.224  11.355  22.562  0.00  0.00    +0.145 HD
ENDBRANCH  21  25
BRANCH  21  23
ATOM     23  C   UNL     1      16.977  12.196  20.384  0.00  0.00    +0.067 C 
BRANCH  23  26
ATOM     26  C   UNL     1      18.160  12.385  19.465  0.00  0.00    -0.045 A 
ATOM     29  C   UNL     1      17.977  12.923  18.191  0.00  0.00    +0.007 A 
ATOM     30  C   UNL     1      19.437  12.020  19.889  0.00  0.00    +0.007 A 
ATOM     32  C   UNL     1      19.070  13.098  17.344  0.00  0.00    +0.046 A 
ATOM     33  C   UNL     1      20.531  12.195  19.042  0.00  0.00    +0.046 A 
ATOM     35  C   UNL     1      20.347  12.733  17.769  0.00  0.00    +0.120 A 
BRANCH  35   6
ATOM      6  O   UNL     1      21.414  12.904  16.941  0.00  0.00    -0.495 OA
ATOM     37  C   UNL     1      22.699  12.567  17.461  0.00  0.00    +0.277 C 
ENDBRANCH  35   6
ENDBRANCH  23  26
ENDBRANCH  21  23
ENDBRANCH   9  21
ENDBRANCH  13  17
BRANCH  12   8
ATOM      4  O   UNL     1      13.197  11.427  23.600  0.00  0.00    -0.275 OA
ATOM      8  N   UNL     1      11.512   9.965  22.957  0.00  0.00    -0.312 N 
ATOM     20  C   UNL     1      12.076  10.944  23.758  0.00  0.00    +0.218 C 
ATOM     38  H   UNL     1      10.553   9.675  23.125  0.00  0.00    +0.149 HD
BRANCH  20  24
ATOM     24  C   UNL     1      11.159  11.399  24.875  0.00  0.00    +0.138 C 
BRANCH  24  28
ATOM      1  S   UNL     1      10.391  13.522  23.254  0.00  0.00    -0.101 S 
ATOM     28  C   UNL     1      10.926  12.879  24.749  0.00  0.00    -0.001 A 
ATOM     31  C   UNL     1      11.085  13.857  25.705  0.00  0.00    +0.011 A 
ATOM     34  C   UNL     1      10.765  15.152  25.204  0.00  0.00    +0.008 A 
ATOM     36  C   UNL     1      10.372  15.115  23.884  0.00  0.00    +0.045 A 
ENDBRANCH  24  28
ENDBRANCH  20  24
ENDBRANCH  12   8
BRANCH  18  19
ATOM     19  C   UNL     1      12.226   9.159  16.648  0.00  0.00    +0.137 C 
ATOM     22  C   UNL     1      10.979   9.201  15.788  0.00  0.00    +0.034 C 
BRANCH  19  10
ATOM     10  N   UNL     1      13.389   8.784  15.863  0.00  0.00    -0.309 NA
ATOM     27  C   UNL     1      14.345   9.883  15.783  0.00  0.00    +0.101 C 
ATOM     40  H   UNL     1      13.098   8.546  14.914  0.00  0.00    +0.122 HD
ENDBRANCH  19  10
ENDBRANCH  18  19
TORSDOF 11
ENDMDL
MODEL 6
REMARK VINA RESULT:      -5.9     27.223     30.870
REMARK  Name = 11882607
REMARK  14 active torsions:
REMARK  status: ('A' for Active; 'I' for Inactive)
REMARK    1  A    between atoms: O_6  and  C_35
REMARK    2  A    between atoms: O_6  and  C_37
REMARK    3  A    between atoms: N_8  and  C_12
REMARK    4  A    between atoms: N_9  and  C_21
REMARK    5  A    between atoms: N_10  and  C_19
REMARK    6  A    between atoms: N_10  and  C_27
REMARK    7  A    between atoms: C_13  and  C_17
REMARK    8  A    between atoms: C_18  and  C_19
REMARK    9  A    between atoms: C_19  and  C_22
REMARK   10  A    between atoms: C_20  and  C_24
REMARK   11  A    between atoms: C_21  and  C_23
REMARK   12  A    between atoms: C_21  and  C_25
REMARK   13  A    between atoms: C_23  and  C_26
REMARK   14  A    between atoms: C_24  and  C_28
REMARK                            x       y       z     vdW  Elec       q    Type
REMARK                         _______ _______ _______ _____ _____    ______ ____
ROOT
ATOM      3  O   UNL     1      -6.543 -11.957   9.931  0.00  0.00    -0.274 OA
ATOM      7  N   UNL     1      -6.411 -10.899  12.001  0.00  0.00    -0.289 N 
ATOM     12  C   UNL     1      -7.723 -10.156  14.500  0.00  0.00    +0.077 C 
ATOM     13  C   UNL     1      -5.713  -9.993  12.928  0.00  0.00    +0.164 C 
ATOM     14  C   UNL     1      -6.660  -9.251  13.874  0.00  0.00    +0.054 C 
ATOM     15  C   UNL     1      -8.447 -10.953  13.417  0.00  0.00    +0.041 C 
ATOM     16  C   UNL     1      -7.457 -11.750  12.578  0.00  0.00    +0.110 C 
ATOM     18  C   UNL     1      -6.042 -11.101  10.666  0.00  0.00    +0.233 C 
ENDROOT
BRANCH  13  17
ATOM      2  O   UNL     1      -4.339 -11.919  13.261  0.00  0.00    -0.274 OA
ATOM      9  N   UNL     1      -4.294 -10.215  14.846  0.00  0.00    -0.302 N 
ATOM     17  C   UNL     1      -4.708 -10.822  13.673  0.00  0.00    +0.234 C 
ATOM     39  H   UNL     1      -4.640  -9.291  15.085  0.00  0.00    +0.150 HD
BRANCH   9  21
ATOM     21  C   UNL     1      -3.346 -10.818  15.756  0.00  0.00    +0.163 C 
BRANCH  21  25
ATOM      5  O   UNL     1      -1.354  -9.873  14.732  0.00  0.00    -0.274 OA
ATOM     11  N   UNL     1      -1.572 -12.158  14.809  0.00  0.00    -0.328 N 
ATOM     25  C   UNL     1      -2.006 -10.869  15.037  0.00  0.00    +0.231 C 
ATOM     41  H   UNL     1      -0.685 -12.335  14.351  0.00  0.00    +0.145 HD
ATOM     42  H   UNL     1      -2.119 -12.973  15.070  0.00  0.00    +0.145 HD
ENDBRANCH  21  25
BRANCH  21  23
ATOM     23  C   UNL     1      -3.774 -12.224  16.189  0.00  0.00    +0.067 C 
BRANCH  23  26
ATOM     26  C   UNL     1      -4.845 -12.208  17.253  0.00  0.00    -0.045 A 
ATOM     29  C   UNL     1      -4.600 -11.597  18.482  0.00  0.00    +0.007 A 
ATOM     30  C   UNL     1      -6.081 -12.806  17.006  0.00  0.00    +0.007 A 
ATOM     32  C   UNL     1      -5.590 -11.582  19.463  0.00  0.00    +0.046 A 
ATOM     33  C   UNL     1      -7.071 -12.791  17.987  0.00  0.00    +0.046 A 
ATOM     35  C   UNL     1      -6.826 -12.179  19.216  0.00  0.00    +0.120 A 
BRANCH  35   6
ATOM      6  O   UNL     1      -7.793 -12.164  20.175  0.00  0.00    -0.495 OA
ATOM     37  C   UNL     1      -8.658 -13.296  20.242  0.00  0.00    +0.277 C 
ENDBRANCH  35   6
ENDBRANCH  23  26
ENDBRANCH  21  23
ENDBRANCH   9  21
ENDBRANCH  13  17
BRANCH  12   8
ATOM      4  O   UNL     1      -7.407  -9.286  17.225  0.00  0.00    -0.275 OA
ATOM      8  N   UNL     1      -8.664  -9.382  15.276  0.00  0.00    -0.312 N 
ATOM     20  C   UNL     1      -8.422  -9.008  16.587  0.00  0.00    +0.218 C 
ATOM     38  H   UNL     1      -9.503  -9.050  14.810  0.00  0.00    +0.149 HD
BRANCH  20  24
ATOM     24  C   UNL     1      -9.545  -8.187  17.188  0.00  0.00    +0.138 C 
BRANCH  24  28
ATOM      1  S   UNL     1     -10.514 -10.171  18.876  0.00  0.00    -0.101 S 
ATOM     28  C   UNL     1     -10.684  -9.100  17.551  0.00  0.00    -0.001 A 
ATOM     31  C   UNL     1     -11.915  -9.216  16.946  0.00  0.00    +0.011 A 
ATOM     34  C   UNL     1     -12.731 -10.198  17.579  0.00  0.00    +0.008 A 
ATOM     36  C   UNL     1     -12.092 -10.795  18.643  0.00  0.00    +0.045 A 
ENDBRANCH  24  28
ENDBRANCH  20  24
ENDBRANCH  12   8
BRANCH  18  19
ATOM     19  C   UNL     1      -4.971 -10.194  10.112  0.00  0.00    +0.137 C 
ATOM     22  C   UNL     1      -5.241  -9.908   8.649  0.00  0.00    +0.034 C 
BRANCH  19  10
ATOM     10  N   UNL     1      -3.705 -10.885  10.285  0.00  0.00    -0.309 NA
ATOM     27  C   UNL     1      -2.683  -9.985  10.807  0.00  0.00    +0.101 C 
ATOM     40  H   UNL     1      -3.385 -11.240   9.383  0.00  0.00    +0.122 HD
ENDBRANCH  19  10
ENDBRANCH  18  19
TORSDOF 11
ENDMDL
MODEL 7
REMARK VINA RESULT:      -5.9     29.528     32.134
REMARK  Name = 11882607
REMARK  14 active torsions:
REMARK  status: ('A' for Active; 'I' for Inactive)
REMARK    1  A    between atoms: O_6  and  C_35
REMARK    2  A    between atoms: O_6  and  C_37
REMARK    3  A    between atoms: N_8  and  C_12
REMARK    4  A    between atoms: N_9  and  C_21
REMARK    5  A    between atoms: N_10  and  C_19
REMARK    6  A    between atoms: N_10  and  C_27
REMARK    7  A    between atoms: C_13  and  C_17
REMARK    8  A    between atoms: C_18  and  C_19
REMARK    9  A    between atoms: C_19  and  C_22
REMARK   10  A    between atoms: C_20  and  C_24
REMARK   11  A    between atoms: C_21  and  C_23
REMARK   12  A    between atoms: C_21  and  C_25
REMARK   13  A    between atoms: C_23  and  C_26
REMARK   14  A    between atoms: C_24  and  C_28
REMARK                            x       y       z     vdW  Elec       q    Type
REMARK                         _______ _______ _______ _____ _____    ______ ____
ROOT
ATOM      3  O   UNL     1      -4.630 -10.546  16.038  0.00  0.00    -0.274 OA
ATOM      7  N   UNL     1      -6.673 -11.321  16.840  0.00  0.00    -0.289 N 
ATOM     12  C   UNL     1      -8.137 -12.834  18.863  0.00  0.00    +0.077 C 
ATOM     13  C   UNL     1      -8.111 -11.567  16.641  0.00  0.00    +0.164 C 
ATOM     14  C   UNL     1      -8.627 -12.783  17.414  0.00  0.00    +0.054 C 
ATOM     15  C   UNL     1      -6.618 -12.681  18.914  0.00  0.00    +0.041 C 
ATOM     16  C   UNL     1      -6.178 -11.399  18.219  0.00  0.00    +0.110 C 
ATOM     18  C   UNL     1      -5.801 -10.879  15.838  0.00  0.00    +0.233 C 
ENDROOT
BRANCH  13  17
ATOM      2  O   UNL     1      -8.376  -9.196  16.761  0.00  0.00    -0.274 OA
ATOM      9  N   UNL     1      -9.997 -10.561  17.723  0.00  0.00    -0.302 N 
ATOM     17  C   UNL     1      -8.826 -10.306  17.030  0.00  0.00    +0.234 C 
ATOM     39  H   UNL     1     -10.297 -11.519  17.873  0.00  0.00    +0.150 HD
BRANCH   9  21
ATOM     21  C   UNL     1     -10.859  -9.516  18.229  0.00  0.00    +0.163 C 
BRANCH  21  25
ATOM      5  O   UNL     1     -12.347  -9.895  20.114  0.00  0.00    -0.274 OA
ATOM     11  N   UNL     1     -10.095 -10.237  20.406  0.00  0.00    -0.328 N 
ATOM     25  C   UNL     1     -11.203  -9.878  19.667  0.00  0.00    +0.231 C 
ATOM     41  H   UNL     1     -10.185 -10.516  21.377  0.00  0.00    +0.145 HD
ATOM     42  H   UNL     1      -9.155 -10.222  20.023  0.00  0.00    +0.145 HD
ENDBRANCH  21  25
BRANCH  21  23
ATOM     23  C   UNL     1     -12.137  -9.367  17.397  0.00  0.00    +0.067 C 
BRANCH  23  26
ATOM     26  C   UNL     1     -12.092  -8.179  16.466  0.00  0.00    -0.045 A 
ATOM     29  C   UNL     1     -12.973  -8.104  15.387  0.00  0.00    +0.007 A 
ATOM     30  C   UNL     1     -11.169  -7.157  16.684  0.00  0.00    +0.007 A 
ATOM     32  C   UNL     1     -12.931  -7.006  14.528  0.00  0.00    +0.046 A 
ATOM     33  C   UNL     1     -11.127  -6.060  15.825  0.00  0.00    +0.046 A 
ATOM     35  C   UNL     1     -12.007  -5.984  14.747  0.00  0.00    +0.120 A 
BRANCH  35   6
ATOM      6  O   UNL     1     -11.967  -4.913  13.908  0.00  0.00    -0.495 OA
ATOM     37  C   UNL     1     -13.205  -4.486  13.342  0.00  0.00    +0.277 C 
ENDBRANCH  35   6
ENDBRANCH  23  26
ENDBRANCH  21  23
ENDBRANCH   9  21
ENDBRANCH  13  17
BRANCH  12   8
ATOM      4  O   UNL     1     -10.313 -13.174  20.715  0.00  0.00    -0.275 OA
ATOM      8  N   UNL     1      -8.545 -14.063  19.501  0.00  0.00    -0.312 N 
ATOM     20  C   UNL     1      -9.612 -14.129  20.383  0.00  0.00    +0.218 C 
ATOM     38  H   UNL     1      -8.066 -14.918  19.235  0.00  0.00    +0.149 HD
BRANCH  20  24
ATOM     24  C   UNL     1      -9.862 -15.527  20.910  0.00  0.00    +0.138 C 
BRANCH  24  28
ATOM      1  S   UNL     1     -10.946 -15.617  23.469  0.00  0.00    -0.101 S 
ATOM     28  C   UNL     1      -9.614 -15.545  22.393  0.00  0.00    -0.001 A 
ATOM     31  C   UNL     1      -8.411 -15.510  23.062  0.00  0.00    +0.011 A 
ATOM     34  C   UNL     1      -8.584 -15.543  24.476  0.00  0.00    +0.008 A 
ATOM     36  C   UNL     1      -9.913 -15.601  24.835  0.00  0.00    +0.045 A 
ENDBRANCH  24  28
ENDBRANCH  20  24
ENDBRANCH  12   8
BRANCH  18  19
ATOM     19  C   UNL     1      -6.350 -10.827  14.434  0.00  0.00    +0.137 C 
ATOM     22  C   UNL     1      -5.383 -11.492  13.476  0.00  0.00    +0.034 C 
BRANCH  19  10
ATOM     10  N   UNL     1      -6.530  -9.424  14.105  0.00  0.00    -0.309 NA
ATOM     27  C   UNL     1      -6.363  -9.194  12.675  0.00  0.00    +0.101 C 
ATOM     40  H   UNL     1      -5.834  -8.867  14.601  0.00  0.00    +0.122 HD
ENDBRANCH  19  10
ENDBRANCH  18  19
TORSDOF 11
ENDMDL
MODEL 8
REMARK VINA RESULT:      -5.9     13.312     16.086
REMARK  Name = 11882607
REMARK  14 active torsions:
REMARK  status: ('A' for Active; 'I' for Inactive)
REMARK    1  A    between atoms: O_6  and  C_35
REMARK    2  A    between atoms: O_6  and  C_37
REMARK    3  A    between atoms: N_8  and  C_12
REMARK    4  A    between atoms: N_9  and  C_21
REMARK    5  A    between atoms: N_10  and  C_19
REMARK    6  A    between atoms: N_10  and  C_27
REMARK    7  A    between atoms: C_13  and  C_17
REMARK    8  A    between atoms: C_18  and  C_19
REMARK    9  A    between atoms: C_19  and  C_22
REMARK   10  A    between atoms: C_20  and  C_24
REMARK   11  A    between atoms: C_21  and  C_23
REMARK   12  A    between atoms: C_21  and  C_25
REMARK   13  A    between atoms: C_23  and  C_26
REMARK   14  A    between atoms: C_24  and  C_28
REMARK                            x       y       z     vdW  Elec       q    Type
REMARK                         _______ _______ _______ _____ _____    ______ ____
ROOT
ATOM      3  O   UNL     1      10.970  10.376   8.274  0.00  0.00    -0.274 OA
ATOM      7  N   UNL     1      12.103   9.927   6.291  0.00  0.00    -0.289 N 
ATOM     12  C   UNL     1      14.589   9.159   4.967  0.00  0.00    +0.077 C 
ATOM     13  C   UNL     1      12.171   9.978   4.821  0.00  0.00    +0.164 C 
ATOM     14  C   UNL     1      13.600  10.108   4.287  0.00  0.00    +0.054 C 
ATOM     15  C   UNL     1      14.493   9.291   6.486  0.00  0.00    +0.041 C 
ATOM     16  C   UNL     1      13.067   9.048   6.962  0.00  0.00    +0.110 C 
ATOM     18  C   UNL     1      11.100  10.532   7.056  0.00  0.00    +0.233 C 
ENDROOT
BRANCH  13  17
ATOM      2  O   UNL     1      12.093   7.684   4.157  0.00  0.00    -0.274 OA
ATOM      9  N   UNL     1      10.152   8.962   4.024  0.00  0.00    -0.302 N 
ATOM     17  C   UNL     1      11.488   8.743   4.309  0.00  0.00    +0.234 C 
ATOM     39  H   UNL     1       9.739   9.870   4.211  0.00  0.00    +0.150 HD
BRANCH   9  21
ATOM     21  C   UNL     1       9.278   7.938   3.498  0.00  0.00    +0.163 C 
BRANCH  21  25
ATOM      5  O   UNL     1       9.123   8.312   1.101  0.00  0.00    -0.274 OA
ATOM     11  N   UNL     1       7.483   9.179   2.456  0.00  0.00    -0.328 N 
ATOM     25  C   UNL     1       8.657   8.493   2.223  0.00  0.00    +0.231 C 
ATOM     41  H   UNL     1       6.958   9.587   1.690  0.00  0.00    +0.145 HD
ATOM     42  H   UNL     1       7.107   9.317   3.389  0.00  0.00    +0.145 HD
ENDBRANCH  21  25
BRANCH  21  23
ATOM     23  C   UNL     1       8.183   7.542   4.495  0.00  0.00    +0.067 C 
BRANCH  23  26
ATOM     26  C   UNL     1       8.719   6.761   5.670  0.00  0.00    -0.045 A 
ATOM     29  C   UNL     1       8.635   7.289   6.957  0.00  0.00    +0.007 A 
ATOM     30  C   UNL     1       9.299   5.508   5.467  0.00  0.00    +0.007 A 
ATOM     32  C   UNL     1       9.130   6.566   8.042  0.00  0.00    +0.046 A 
ATOM     33  C   UNL     1       9.794   4.785   6.552  0.00  0.00    +0.046 A 
ATOM     35  C   UNL     1       9.710   5.314   7.839  0.00  0.00    +0.120 A 
BRANCH  35   6
ATOM      6  O   UNL     1      10.192   4.608   8.899  0.00  0.00    -0.495 OA
ATOM     37  C   UNL     1       9.416   4.625  10.096  0.00  0.00    +0.277 C 
ENDBRANCH  35   6
ENDBRANCH  23  26
ENDBRANCH  21  23
ENDBRANCH   9  21
ENDBRANCH  13  17
BRANCH  12   8
ATOM      4  O   UNL     1      16.535   7.204   4.144  0.00  0.00    -0.275 OA
ATOM      8  N   UNL     1      15.938   9.417   4.520  0.00  0.00    -0.312 N 
ATOM     20  C   UNL     1      16.805   8.405   4.142  0.00  0.00    +0.218 C 
ATOM     38  H   UNL     1      16.228  10.385   4.421  0.00  0.00    +0.149 HD
BRANCH  20  24
ATOM     24  C   UNL     1      18.159   8.919   3.693  0.00  0.00    +0.138 C 
BRANCH  24  28
ATOM      1  S   UNL     1      19.213   9.019   6.263  0.00  0.00    -0.101 S 
ATOM     28  C   UNL     1      19.211   8.436   4.653  0.00  0.00    -0.001 A 
ATOM     31  C   UNL     1      20.236   7.545   4.424  0.00  0.00    +0.011 A 
ATOM     34  C   UNL     1      21.033   7.338   5.586  0.00  0.00    +0.008 A 
ATOM     36  C   UNL     1      20.588   8.078   6.659  0.00  0.00    +0.045 A 
ENDBRANCH  24  28
ENDBRANCH  20  24
ENDBRANCH  12   8
BRANCH  18  19
ATOM     19  C   UNL     1      10.139  11.437   6.325  0.00  0.00    +0.137 C 
ATOM     22  C   UNL     1       9.962  12.732   7.092  0.00  0.00    +0.034 C 
BRANCH  19  10
ATOM     10  N   UNL     1       8.882  10.717   6.218  0.00  0.00    -0.309 NA
ATOM     27  C   UNL     1       7.954  11.410   5.333  0.00  0.00    +0.101 C 
ATOM     40  H   UNL     1       8.452  10.647   7.141  0.00  0.00    +0.122 HD
ENDBRANCH  19  10
ENDBRANCH  18  19
TORSDOF 11
ENDMDL
MODEL 9
REMARK VINA RESULT:      -5.9      3.654      8.313
REMARK  Name = 11882607
REMARK  14 active torsions:
REMARK  status: ('A' for Active; 'I' for Inactive)
REMARK    1  A    between atoms: O_6  and  C_35
REMARK    2  A    between atoms: O_6  and  C_37
REMARK    3  A    between atoms: N_8  and  C_12
REMARK    4  A    between atoms: N_9  and  C_21
REMARK    5  A    between atoms: N_10  and  C_19
REMARK    6  A    between atoms: N_10  and  C_27
REMARK    7  A    between atoms: C_13  and  C_17
REMARK    8  A    between atoms: C_18  and  C_19
REMARK    9  A    between atoms: C_19  and  C_22
REMARK   10  A    between atoms: C_20  and  C_24
REMARK   11  A    between atoms: C_21  and  C_23
REMARK   12  A    between atoms: C_21  and  C_25
REMARK   13  A    between atoms: C_23  and  C_26
REMARK   14  A    between atoms: C_24  and  C_28
REMARK                            x       y       z     vdW  Elec       q    Type
REMARK                         _______ _______ _______ _____ _____    ______ ____
ROOT
ATOM      3  O   UNL     1      11.571   7.540  18.041  0.00  0.00    -0.274 OA
ATOM      7  N   UNL     1      12.208   9.191  19.554  0.00  0.00    -0.289 N 
ATOM     12  C   UNL     1      11.635  10.674  22.003  0.00  0.00    +0.077 C 
ATOM     13  C   UNL     1      13.057  10.342  19.904  0.00  0.00    +0.164 C 
ATOM     14  C   UNL     1      12.367  11.340  20.836  0.00  0.00    +0.054 C 
ATOM     15  C   UNL     1      10.704   9.578  21.488  0.00  0.00    +0.041 C 
ATOM     16  C   UNL     1      11.472   8.560  20.656  0.00  0.00    +0.110 C 
ATOM     18  C   UNL     1      12.180   8.584  18.294  0.00  0.00    +0.233 C 
ENDROOT
BRANCH  13  17
ATOM      2  O   UNL     1      14.690   8.638  20.282  0.00  0.00    -0.274 OA
ATOM      9  N   UNL     1      14.953  10.703  21.325  0.00  0.00    -0.302 N 
ATOM     17  C   UNL     1      14.317   9.787  20.505  0.00  0.00    +0.234 C 
ATOM     39  H   UNL     1      14.576  11.640  21.423  0.00  0.00    +0.150 HD
BRANCH   9  21
ATOM     21  C   UNL     1      16.174  10.408  22.040  0.00  0.00    +0.163 C 
BRANCH  21  25
ATOM      5  O   UNL     1      17.225  12.496  22.706  0.00  0.00    -0.274 OA
ATOM     11  N   UNL     1      15.678  11.546  24.114  0.00  0.00    -0.328 N 
ATOM     25  C   UNL     1      16.444  11.584  22.968  0.00  0.00    +0.231 C 
ATOM     41  H   UNL     1      15.748  12.280  24.811  0.00  0.00    +0.145 HD
ATOM     42  H   UNL     1      15.033  10.789  24.315  0.00  0.00    +0.145 HD
ENDBRANCH  21  25
BRANCH  21  23
ATOM     23  C   UNL     1      17.361  10.191  21.095  0.00  0.00    +0.067 C 
BRANCH  23  26
ATOM     26  C   UNL     1      18.254   9.054  21.532  0.00  0.00    -0.045 A 
ATOM     29  C   UNL     1      19.365   9.308  22.335  0.00  0.00    +0.007 A 
ATOM     30  C   UNL     1      17.968   7.750  21.130  0.00  0.00    +0.007 A 
ATOM     32  C   UNL     1      20.189   8.258  22.738  0.00  0.00    +0.046 A 
ATOM     33  C   UNL     1      18.792   6.699  21.533  0.00  0.00    +0.046 A 
ATOM     35  C   UNL     1      19.903   6.953  22.336  0.00  0.00    +0.120 A 
BRANCH  35   6
ATOM      6  O   UNL     1      20.708   5.928  22.730  0.00  0.00    -0.495 OA
ATOM     37  C   UNL     1      21.165   5.036  21.716  0.00  0.00    +0.277 C 
ENDBRANCH  35   6
ENDBRANCH  23  26
ENDBRANCH  21  23
ENDBRANCH   9  21
ENDBRANCH  13  17
BRANCH  12   8
ATOM      4  O   UNL     1      11.831  11.146  24.835  0.00  0.00    -0.275 OA
ATOM      8  N   UNL     1      10.896  11.649  22.770  0.00  0.00    -0.312 N 
ATOM     20  C   UNL     1      11.060  11.804  24.137  0.00  0.00    +0.218 C 
ATOM     38  H   UNL     1      10.284  12.284  22.267  0.00  0.00    +0.149 HD
BRANCH  20  24
ATOM     24  C   UNL     1      10.191  12.901  24.719  0.00  0.00    +0.138 C 
BRANCH  24  28
ATOM      1  S   UNL     1      12.391  14.587  24.507  0.00  0.00    -0.101 S 
ATOM     28  C   UNL     1      11.070  13.928  25.377  0.00  0.00    -0.001 A 
ATOM     31  C   UNL     1      10.974  14.453  26.646  0.00  0.00    +0.011 A 
ATOM     34  C   UNL     1      11.997  15.409  26.908  0.00  0.00    +0.008 A 
ATOM     36  C   UNL     1      12.838  15.578  25.830  0.00  0.00    +0.045 A 
ENDBRANCH  24  28
ENDBRANCH  20  24
ENDBRANCH  12   8
BRANCH  18  19
ATOM     19  C   UNL     1      12.941   9.275  17.189  0.00  0.00    +0.137 C 
ATOM     22  C   UNL     1      12.087   9.349  15.940  0.00  0.00    +0.034 C 
BRANCH  19  10
ATOM     10  N   UNL     1      14.144   8.493  16.955  0.00  0.00    -0.309 NA
ATOM     27  C   UNL     1      14.498   8.487  15.541  0.00  0.00    +0.101 C 
ATOM     40  H   UNL     1      13.984   7.529  17.248  0.00  0.00    +0.122 HD
ENDBRANCH  19  10
ENDBRANCH  18  19
TORSDOF 11
ENDMDL
MODEL 10
REMARK VINA RESULT:      -5.9     15.002     19.607
REMARK  Name = 11882607
REMARK  14 active torsions:
REMARK  status: ('A' for Active; 'I' for Inactive)
REMARK    1  A    between atoms: O_6  and  C_35
REMARK    2  A    between atoms: O_6  and  C_37
REMARK    3  A    between atoms: N_8  and  C_12
REMARK    4  A    between atoms: N_9  and  C_21
REMARK    5  A    between atoms: N_10  and  C_19
REMARK    6  A    between atoms: N_10  and  C_27
REMARK    7  A    between atoms: C_13  and  C_17
REMARK    8  A    between atoms: C_18  and  C_19
REMARK    9  A    between atoms: C_19  and  C_22
REMARK   10  A    between atoms: C_20  and  C_24
REMARK   11  A    between atoms: C_21  and  C_23
REMARK   12  A    between atoms: C_21  and  C_25
REMARK   13  A    between atoms: C_23  and  C_26
REMARK   14  A    between atoms: C_24  and  C_28
REMARK                            x       y       z     vdW  Elec       q    Type
REMARK                         _______ _______ _______ _____ _____    ______ ____
ROOT
ATOM      3  O   UNL     1      16.414  10.482   3.308  0.00  0.00    -0.274 OA
ATOM      7  N   UNL     1      14.894   8.729   3.495  0.00  0.00    -0.289 N 
ATOM     12  C   UNL     1      12.116   7.862   3.728  0.00  0.00    +0.077 C 
ATOM     13  C   UNL     1      14.612   7.307   3.751  0.00  0.00    +0.164 C 
ATOM     14  C   UNL     1      13.243   7.069   4.393  0.00  0.00    +0.054 C 
ATOM     15  C   UNL     1      12.493   9.339   3.630  0.00  0.00    +0.041 C 
ATOM     16  C   UNL     1      13.812   9.514   2.889  0.00  0.00    +0.110 C 
ATOM     18  C   UNL     1      16.150   9.326   3.650  0.00  0.00    +0.233 C 
ENDROOT
BRANCH  13  17
ATOM      2  O   UNL     1      15.517   6.987   1.563  0.00  0.00    -0.274 OA
ATOM      9  N   UNL     1      13.916   5.491   2.349  0.00  0.00    -0.302 N 
ATOM     17  C   UNL     1      14.751   6.592   2.438  0.00  0.00    +0.234 C 
ATOM     39  H   UNL     1      13.337   5.232   3.142  0.00  0.00    +0.150 HD
BRANCH   9  21
ATOM     21  C   UNL     1      13.843   4.647   1.178  0.00  0.00    +0.163 C 
BRANCH  21  25
ATOM      5  O   UNL     1      15.867   3.859   0.087  0.00  0.00    -0.274 OA
ATOM     11  N   UNL     1      15.504   3.280   2.280  0.00  0.00    -0.328 N 
ATOM     25  C   UNL     1      15.160   3.889   1.091  0.00  0.00    +0.231 C 
ATOM     41  H   UNL     1      16.367   2.753   2.364  0.00  0.00    +0.145 HD
ATOM     42  H   UNL     1      14.912   3.316   3.103  0.00  0.00    +0.145 HD
ENDBRANCH  21  25
BRANCH  21  23
ATOM     23  C   UNL     1      13.606   5.453  -0.103  0.00  0.00    +0.067 C 
BRANCH  23  26
ATOM     26  C   UNL     1      12.468   4.909  -0.933  0.00  0.00    -0.045 A 
ATOM     29  C   UNL     1      11.277   5.627  -1.042  0.00  0.00    +0.007 A 
ATOM     30  C   UNL     1      12.609   3.688  -1.592  0.00  0.00    +0.007 A 
ATOM     32  C   UNL     1      10.228   5.124  -1.810  0.00  0.00    +0.046 A 
ATOM     33  C   UNL     1      11.559   3.185  -2.360  0.00  0.00    +0.046 A 
ATOM     35  C   UNL     1      10.368   3.902  -2.468  0.00  0.00    +0.120 A 
BRANCH  35   6
ATOM      6  O   UNL     1       9.343   3.412  -3.218  0.00  0.00    -0.495 OA
ATOM     37  C   UNL     1       9.691   2.634  -4.362  0.00  0.00    +0.277 C 
ENDBRANCH  35   6
ENDBRANCH  23  26
ENDBRANCH  21  23
ENDBRANCH   9  21
ENDBRANCH  13  17
BRANCH  12   8
ATOM      4  O   UNL     1      10.204   5.732   3.424  0.00  0.00    -0.275 OA
ATOM      8  N   UNL     1      10.878   7.702   4.453  0.00  0.00    -0.312 N 
ATOM     20  C   UNL     1      10.018   6.637   4.237  0.00  0.00    +0.218 C 
ATOM     38  H   UNL     1      10.672   8.366   5.194  0.00  0.00    +0.149 HD
BRANCH  20  24
ATOM     24  C   UNL     1       8.792   6.672   5.128  0.00  0.00    +0.138 C 
BRANCH  24  28
ATOM      1  S   UNL     1       8.942   7.057   7.877  0.00  0.00    -0.101 S 
ATOM     28  C   UNL     1       9.144   6.098   6.472  0.00  0.00    -0.001 A 
ATOM     31  C   UNL     1       9.634   4.845   6.767  0.00  0.00    +0.011 A 
ATOM     34  C   UNL     1       9.846   4.670   8.165  0.00  0.00    +0.008 A 
ATOM     36  C   UNL     1       9.511   5.795   8.886  0.00  0.00    +0.045 A 
ENDBRANCH  24  28
ENDBRANCH  20  24
ENDBRANCH  12   8
BRANCH  18  19
ATOM     19  C   UNL     1      17.228   8.485   4.290  0.00  0.00    +0.137 C 
ATOM     22  C   UNL     1      18.040   9.328   5.251  0.00  0.00    +0.034 C 
BRANCH  19  10
ATOM     10  N   UNL     1      18.057   7.975   3.211  0.00  0.00    -0.309 NA
ATOM     27  C   UNL     1      19.425   8.469   3.323  0.00  0.00    +0.101 C 
ATOM     40  H   UNL     1      17.679   8.285   2.316  0.00  0.00    +0.122 HD
ENDBRANCH  19  10
ENDBRANCH  18  19
TORSDOF 11
ENDMDL
