MODEL 1
REMARK VINA RESULT:      -7.2      0.000      0.000
REMARK  Name = 75367666
REMARK  4 active torsions:
REMARK  status: ('A' for Active; 'I' for Inactive)
REMARK    1  A    between atoms: O_5  and  C_10
REMARK    2  A    between atoms: O_5  and  C_16
REMARK    3  A    between atoms: N_8  and  C_19
REMARK    4  A    between atoms: C_20  and  C_23
REMARK                            x       y       z     vdW  Elec       q    Type
REMARK                         _______ _______ _______ _____ _____    ______ ____
ROOT
ATOM      4  O   UNL     1      12.320   8.174  22.230  0.00  0.00    -0.375 OA
ATOM      6  O   UNL     1      11.862   9.776  18.007  0.00  0.00    -0.252 OA
ATOM      7  N   UNL     1      12.558   8.005  19.322  0.00  0.00    -0.280 N 
ATOM      8  N   UNL     1      14.014   8.949  17.723  0.00  0.00    -0.268 N 
ATOM     10  C   UNL     1      14.390   7.666  20.995  0.00  0.00    +0.216 C 
ATOM     11  C   UNL     1      13.585   7.085  19.832  0.00  0.00    +0.156 C 
ATOM     12  C   UNL     1      11.274   7.951  20.027  0.00  0.00    +0.137 C 
ATOM     13  C   UNL     1      13.635   8.624  21.917  0.00  0.00    +0.206 C 
ATOM     14  C   UNL     1      11.325   8.703  21.351  0.00  0.00    +0.179 C 
ATOM     15  C   UNL     1      12.749   8.975  18.310  0.00  0.00    +0.307 C 
ATOM     28  H   UNL     1      14.699   8.285  18.065  0.00  0.00    +0.156 HD
ENDROOT
BRANCH   8  19
ATOM      9  N   UNL     1      14.968  10.110  14.340  0.00  0.00    -0.261 NA
ATOM     19  C   UNL     1      14.507   9.785  16.691  0.00  0.00    +0.053 A 
ATOM     24  C   UNL     1      14.998  11.055  16.970  0.00  0.00    +0.026 A 
ATOM     25  C   UNL     1      14.513   9.364  15.371  0.00  0.00    +0.134 A 
ATOM     26  C   UNL     1      15.474  11.854  15.936  0.00  0.00    +0.021 A 
ATOM     27  C   UNL     1      15.438  11.340  14.651  0.00  0.00    +0.111 A 
ENDBRANCH   8  19
BRANCH  10   5
ATOM      5  O   UNL     1      15.537   8.337  20.477  0.00  0.00    -0.485 OA
BRANCH   5  16
ATOM     16  C   UNL     1      16.724   7.661  20.543  0.00  0.00    +0.121 A 
ATOM     17  C   UNL     1      17.698   8.047  21.465  0.00  0.00    +0.046 A 
ATOM     18  C   UNL     1      16.963   6.585  19.688  0.00  0.00    +0.046 A 
ATOM     20  C   UNL     1      19.146   6.282  20.676  0.00  0.00    +0.055 A 
ATOM     21  C   UNL     1      18.908   7.358  21.531  0.00  0.00    +0.016 A 
ATOM     22  C   UNL     1      18.173   5.896  19.754  0.00  0.00    +0.016 A 
BRANCH  20  23
ATOM      1  F   UNL     1      20.837   5.257  22.023  0.00  0.00    -0.166 F 
ATOM      2  F   UNL     1      21.489   6.225  20.194  0.00  0.00    -0.166 F 
ATOM      3  F   UNL     1      20.399   4.346  20.097  0.00  0.00    -0.166 F 
ATOM     23  C   UNL     1      20.440   5.545  20.747  0.00  0.00    +0.417 C 
ENDBRANCH  20  23
ENDBRANCH   5  16
ENDBRANCH  10   5
TORSDOF 4
ENDMDL
MODEL 2
REMARK VINA RESULT:      -6.9     13.496     16.439
REMARK  Name = 75367666
REMARK  4 active torsions:
REMARK  status: ('A' for Active; 'I' for Inactive)
REMARK    1  A    between atoms: O_5  and  C_10
REMARK    2  A    between atoms: O_5  and  C_16
REMARK    3  A    between atoms: N_8  and  C_19
REMARK    4  A    between atoms: C_20  and  C_23
REMARK                            x       y       z     vdW  Elec       q    Type
REMARK                         _______ _______ _______ _____ _____    ______ ____
ROOT
ATOM      4  O   UNL     1       8.488  10.869   3.473  0.00  0.00    -0.375 OA
ATOM      6  O   UNL     1      10.021   7.594   0.727  0.00  0.00    -0.252 OA
ATOM      7  N   UNL     1       8.628   8.117   2.498  0.00  0.00    -0.280 N 
ATOM      8  N   UNL     1      10.203   6.371   2.694  0.00  0.00    -0.268 N 
ATOM     10  C   UNL     1       8.985   8.891   4.853  0.00  0.00    +0.216 C 
ATOM     11  C   UNL     1       8.197   7.993   3.898  0.00  0.00    +0.156 C 
ATOM     12  C   UNL     1       7.990   9.203   1.748  0.00  0.00    +0.137 C 
ATOM     13  C   UNL     1       9.471  10.219   4.272  0.00  0.00    +0.206 C 
ATOM     14  C   UNL     1       8.604  10.557   2.083  0.00  0.00    +0.179 C 
ATOM     15  C   UNL     1       9.653   7.362   1.881  0.00  0.00    +0.307 C 
ATOM     28  H   UNL     1       9.870   6.278   3.646  0.00  0.00    +0.156 HD
ENDROOT
BRANCH   8  19
ATOM      9  N   UNL     1      13.537   5.083   1.728  0.00  0.00    -0.261 NA
ATOM     19  C   UNL     1      11.235   5.457   2.366  0.00  0.00    +0.053 A 
ATOM     24  C   UNL     1      11.002   4.086   2.356  0.00  0.00    +0.026 A 
ATOM     25  C   UNL     1      12.509   5.900   2.049  0.00  0.00    +0.134 A 
ATOM     26  C   UNL     1      12.035   3.213   2.032  0.00  0.00    +0.021 A 
ATOM     27  C   UNL     1      13.272   3.757   1.729  0.00  0.00    +0.111 A 
ENDBRANCH   8  19
BRANCH  10   5
ATOM      5  O   UNL     1      10.111   8.168   5.347  0.00  0.00    -0.485 OA
BRANCH   5  16
ATOM     16  C   UNL     1       9.885   7.328   6.403  0.00  0.00    +0.121 A 
ATOM     17  C   UNL     1      10.219   5.978   6.306  0.00  0.00    +0.046 A 
ATOM     18  C   UNL     1       9.318   7.823   7.578  0.00  0.00    +0.046 A 
ATOM     20  C   UNL     1       9.421   5.616   8.557  0.00  0.00    +0.055 A 
ATOM     21  C   UNL     1       9.987   5.122   7.382  0.00  0.00    +0.016 A 
ATOM     22  C   UNL     1       9.086   6.967   8.655  0.00  0.00    +0.016 A 
BRANCH  20  23
ATOM      1  F   UNL     1       8.033   4.993  10.404  0.00  0.00    -0.166 F 
ATOM      2  F   UNL     1      10.171   4.713  10.641  0.00  0.00    -0.166 F 
ATOM      3  F   UNL     1       9.045   3.398   9.326  0.00  0.00    -0.166 F 
ATOM     23  C   UNL     1       9.173   4.702   9.708  0.00  0.00    +0.417 C 
ENDBRANCH  20  23
ENDBRANCH   5  16
ENDBRANCH  10   5
TORSDOF 4
ENDMDL
MODEL 3
REMARK VINA RESULT:      -6.9      2.431      3.118
REMARK  Name = 75367666
REMARK  4 active torsions:
REMARK  status: ('A' for Active; 'I' for Inactive)
REMARK    1  A    between atoms: O_5  and  C_10
REMARK    2  A    between atoms: O_5  and  C_16
REMARK    3  A    between atoms: N_8  and  C_19
REMARK    4  A    between atoms: C_20  and  C_23
REMARK                            x       y       z     vdW  Elec       q    Type
REMARK                         _______ _______ _______ _____ _____    ______ ____
ROOT
ATOM      4  O   UNL     1      12.306   6.521  21.537  0.00  0.00    -0.375 OA
ATOM      6  O   UNL     1      11.459  10.972  21.246  0.00  0.00    -0.252 OA
ATOM      7  N   UNL     1      11.924   9.027  20.083  0.00  0.00    -0.280 N 
ATOM      8  N   UNL     1      13.233  10.961  19.746  0.00  0.00    -0.268 N 
ATOM     10  C   UNL     1      13.897   7.494  19.930  0.00  0.00    +0.216 C 
ATOM     11  C   UNL     1      12.761   8.208  19.196  0.00  0.00    +0.156 C 
ATOM     12  C   UNL     1      10.831   8.306  20.742  0.00  0.00    +0.137 C 
ATOM     13  C   UNL     1      13.605   7.081  21.372  0.00  0.00    +0.206 C 
ATOM     14  C   UNL     1      11.327   7.487  21.926  0.00  0.00    +0.179 C 
ATOM     15  C   UNL     1      12.155  10.383  20.416  0.00  0.00    +0.307 C 
ATOM     28  H   UNL     1      13.779  10.390  19.113  0.00  0.00    +0.156 HD
ENDROOT
BRANCH   8  19
ATOM      9  N   UNL     1      13.689  14.571  19.060  0.00  0.00    -0.261 NA
ATOM     19  C   UNL     1      13.712  12.290  19.862  0.00  0.00    +0.053 A 
ATOM     24  C   UNL     1      14.636  12.635  20.841  0.00  0.00    +0.026 A 
ATOM     25  C   UNL     1      13.273  13.286  19.004  0.00  0.00    +0.134 A 
ATOM     26  C   UNL     1      15.088  13.948  20.931  0.00  0.00    +0.021 A 
ATOM     27  C   UNL     1      14.588  14.869  20.025  0.00  0.00    +0.111 A 
ENDBRANCH   8  19
BRANCH  10   5
ATOM      5  O   UNL     1      15.054   8.329  19.918  0.00  0.00    -0.485 OA
BRANCH   5  16
ATOM     16  C   UNL     1      16.259   7.707  20.101  0.00  0.00    +0.121 A 
ATOM     17  C   UNL     1      16.585   6.580  19.348  0.00  0.00    +0.046 A 
ATOM     18  C   UNL     1      17.163   8.201  21.043  0.00  0.00    +0.046 A 
ATOM     20  C   UNL     1      18.717   6.440  20.477  0.00  0.00    +0.055 A 
ATOM     21  C   UNL     1      17.813   5.947  19.535  0.00  0.00    +0.016 A 
ATOM     22  C   UNL     1      18.390   7.567  21.231  0.00  0.00    +0.016 A 
BRANCH  20  23
ATOM      1  F   UNL     1      20.095   4.518  20.116  0.00  0.00    -0.166 F 
ATOM      2  F   UNL     1      20.355   5.577  21.991  0.00  0.00    -0.166 F 
ATOM      3  F   UNL     1      21.070   6.462  20.139  0.00  0.00    -0.166 F 
ATOM     23  C   UNL     1      20.029   5.762  20.678  0.00  0.00    +0.417 C 
ENDBRANCH  20  23
ENDBRANCH   5  16
ENDBRANCH  10   5
TORSDOF 4
ENDMDL
MODEL 4
REMARK VINA RESULT:      -6.7     14.175     17.138
REMARK  Name = 75367666
REMARK  4 active torsions:
REMARK  status: ('A' for Active; 'I' for Inactive)
REMARK    1  A    between atoms: O_5  and  C_10
REMARK    2  A    between atoms: O_5  and  C_16
REMARK    3  A    between atoms: N_8  and  C_19
REMARK    4  A    between atoms: C_20  and  C_23
REMARK                            x       y       z     vdW  Elec       q    Type
REMARK                         _______ _______ _______ _____ _____    ______ ____
ROOT
ATOM      4  O   UNL     1      10.416   4.004  -0.159  0.00  0.00    -0.375 OA
ATOM      6  O   UNL     1      14.612   5.612   0.487  0.00  0.00    -0.252 OA
ATOM      7  N   UNL     1      12.913   4.289   1.332  0.00  0.00    -0.280 N 
ATOM      8  N   UNL     1      13.865   5.996   2.653  0.00  0.00    -0.268 N 
ATOM     10  C   UNL     1      10.601   4.724   2.189  0.00  0.00    +0.216 C 
ATOM     11  C   UNL     1      11.909   3.950   2.351  0.00  0.00    +0.156 C 
ATOM     12  C   UNL     1      12.806   3.531   0.082  0.00  0.00    +0.137 C 
ATOM     13  C   UNL     1      10.207   5.077   0.754  0.00  0.00    +0.206 C 
ATOM     14  C   UNL     1      11.688   4.061  -0.806  0.00  0.00    +0.179 C 
ATOM     15  C   UNL     1      13.867   5.329   1.428  0.00  0.00    +0.307 C 
ATOM     28  H   UNL     1      13.188   5.727   3.357  0.00  0.00    +0.156 HD
ENDROOT
BRANCH   8  19
ATOM      9  N   UNL     1      15.410   9.360   2.734  0.00  0.00    -0.261 NA
ATOM     19  C   UNL     1      14.696   7.073   3.054  0.00  0.00    +0.053 A 
ATOM     24  C   UNL     1      15.584   6.936   4.114  0.00  0.00    +0.026 A 
ATOM     25  C   UNL     1      14.647   8.295   2.403  0.00  0.00    +0.134 A 
ATOM     26  C   UNL     1      16.386   8.010   4.486  0.00  0.00    +0.021 A 
ATOM     27  C   UNL     1      16.262   9.189   3.771  0.00  0.00    +0.111 A 
ENDBRANCH   8  19
BRANCH  10   5
ATOM      5  O   UNL     1      10.674   5.927   2.952  0.00  0.00    -0.485 OA
BRANCH   5  16
ATOM     16  C   UNL     1      10.438   5.815   4.295  0.00  0.00    +0.121 A 
ATOM     17  C   UNL     1       9.286   5.173   4.750  0.00  0.00    +0.046 A 
ATOM     18  C   UNL     1      11.348   6.345   5.210  0.00  0.00    +0.046 A 
ATOM     20  C   UNL     1       9.955   5.589   7.034  0.00  0.00    +0.055 A 
ATOM     21  C   UNL     1       9.045   5.060   6.119  0.00  0.00    +0.016 A 
ATOM     22  C   UNL     1      11.107   6.232   6.579  0.00  0.00    +0.016 A 
BRANCH  20  23
ATOM      1  F   UNL     1      10.785   5.762   9.271  0.00  0.00    -0.166 F 
ATOM      2  F   UNL     1       9.314   4.216   8.885  0.00  0.00    -0.166 F 
ATOM      3  F   UNL     1       8.707   6.303   8.928  0.00  0.00    -0.166 F 
ATOM     23  C   UNL     1       9.697   5.469   8.498  0.00  0.00    +0.417 C 
ENDBRANCH  20  23
ENDBRANCH   5  16
ENDBRANCH  10   5
TORSDOF 4
ENDMDL
MODEL 5
REMARK VINA RESULT:      -6.3     27.968     29.092
REMARK  Name = 75367666
REMARK  4 active torsions:
REMARK  status: ('A' for Active; 'I' for Inactive)
REMARK    1  A    between atoms: O_5  and  C_10
REMARK    2  A    between atoms: O_5  and  C_16
REMARK    3  A    between atoms: N_8  and  C_19
REMARK    4  A    between atoms: C_20  and  C_23
REMARK                            x       y       z     vdW  Elec       q    Type
REMARK                         _______ _______ _______ _____ _____    ______ ____
ROOT
ATOM      4  O   UNL     1      -3.189 -15.331  14.305  0.00  0.00    -0.375 OA
ATOM      6  O   UNL     1      -3.873 -13.112  10.404  0.00  0.00    -0.252 OA
ATOM      7  N   UNL     1      -2.532 -13.333  12.277  0.00  0.00    -0.280 N 
ATOM      8  N   UNL     1      -3.414 -11.227  11.682  0.00  0.00    -0.268 N 
ATOM     10  C   UNL     1      -2.848 -12.929  14.728  0.00  0.00    +0.216 C 
ATOM     11  C   UNL     1      -1.925 -12.819  13.513  0.00  0.00    +0.156 C 
ATOM     12  C   UNL     1      -2.377 -14.774  12.064  0.00  0.00    +0.137 C 
ATOM     13  C   UNL     1      -3.806 -14.121  14.733  0.00  0.00    +0.206 C 
ATOM     14  C   UNL     1      -3.356 -15.579  12.908  0.00  0.00    +0.179 C 
ATOM     15  C   UNL     1      -3.317 -12.582  11.370  0.00  0.00    +0.307 C 
ATOM     28  H   UNL     1      -2.962 -10.884  12.521  0.00  0.00    +0.156 HD
ENDROOT
BRANCH   8  19
ATOM      9  N   UNL     1      -6.055  -8.781  10.815  0.00  0.00    -0.261 NA
ATOM     19  C   UNL     1      -4.121 -10.223  10.974  0.00  0.00    +0.053 A 
ATOM     24  C   UNL     1      -3.621  -9.696   9.789  0.00  0.00    +0.026 A 
ATOM     25  C   UNL     1      -5.331  -9.735  11.440  0.00  0.00    +0.134 A 
ATOM     26  C   UNL     1      -4.336  -8.711   9.116  0.00  0.00    +0.021 A 
ATOM     27  C   UNL     1      -5.537  -8.292   9.665  0.00  0.00    +0.111 A 
ENDBRANCH   8  19
BRANCH  10   5
ATOM      5  O   UNL     1      -3.610 -11.729  14.843  0.00  0.00    -0.485 OA
BRANCH   5  16
ATOM     16  C   UNL     1      -4.254 -11.523  16.032  0.00  0.00    +0.121 A 
ATOM     17  C   UNL     1      -3.533 -11.526  17.226  0.00  0.00    +0.046 A 
ATOM     18  C   UNL     1      -5.633 -11.312  16.052  0.00  0.00    +0.046 A 
ATOM     20  C   UNL     1      -5.568 -11.106  18.458  0.00  0.00    +0.055 A 
ATOM     21  C   UNL     1      -4.189 -11.318  18.438  0.00  0.00    +0.016 A 
ATOM     22  C   UNL     1      -6.290 -11.103  17.264  0.00  0.00    +0.016 A 
BRANCH  20  23
ATOM      1  F   UNL     1      -7.566 -11.317  19.757  0.00  0.00    -0.166 F 
ATOM      2  F   UNL     1      -6.335  -9.570  20.123  0.00  0.00    -0.166 F 
ATOM      3  F   UNL     1      -5.667 -11.526  20.796  0.00  0.00    -0.166 F 
ATOM     23  C   UNL     1      -6.270 -10.883  19.754  0.00  0.00    +0.417 C 
ENDBRANCH  20  23
ENDBRANCH   5  16
ENDBRANCH  10   5
TORSDOF 4
ENDMDL
MODEL 6
REMARK VINA RESULT:      -6.2     27.462     29.992
REMARK  Name = 75367666
REMARK  4 active torsions:
REMARK  status: ('A' for Active; 'I' for Inactive)
REMARK    1  A    between atoms: O_5  and  C_10
REMARK    2  A    between atoms: O_5  and  C_16
REMARK    3  A    between atoms: N_8  and  C_19
REMARK    4  A    between atoms: C_20  and  C_23
REMARK                            x       y       z     vdW  Elec       q    Type
REMARK                         _______ _______ _______ _____ _____    ______ ____
ROOT
ATOM      4  O   UNL     1      -8.258 -13.249  20.108  0.00  0.00    -0.375 OA
ATOM      6  O   UNL     1     -11.602 -10.750  18.324  0.00  0.00    -0.252 OA
ATOM      7  N   UNL     1      -9.907 -12.267  17.904  0.00  0.00    -0.280 N 
ATOM      8  N   UNL     1     -10.022 -10.243  16.698  0.00  0.00    -0.268 N 
ATOM     10  C   UNL     1      -7.408 -12.203  18.047  0.00  0.00    +0.216 C 
ATOM     11  C   UNL     1      -8.642 -12.667  17.271  0.00  0.00    +0.156 C 
ATOM     12  C   UNL     1     -10.404 -13.190  18.930  0.00  0.00    +0.137 C 
ATOM     13  C   UNL     1      -7.563 -12.131  19.566  0.00  0.00    +0.206 C 
ATOM     14  C   UNL     1      -9.661 -13.020  20.249  0.00  0.00    +0.179 C 
ATOM     15  C   UNL     1     -10.595 -11.052  17.679  0.00  0.00    +0.307 C 
ATOM     28  H   UNL     1      -9.168 -10.550  16.248  0.00  0.00    +0.156 HD
ENDROOT
BRANCH   8  19
ATOM      9  N   UNL     1     -11.470  -7.644  14.495  0.00  0.00    -0.261 NA
ATOM     19  C   UNL     1     -10.472  -8.977  16.247  0.00  0.00    +0.053 A 
ATOM     24  C   UNL     1     -10.379  -7.853  17.059  0.00  0.00    +0.026 A 
ATOM     25  C   UNL     1     -11.022  -8.821  14.985  0.00  0.00    +0.134 A 
ATOM     26  C   UNL     1     -10.830  -6.624  16.591  0.00  0.00    +0.021 A 
ATOM     27  C   UNL     1     -11.362  -6.573  15.313  0.00  0.00    +0.111 A 
ENDBRANCH   8  19
BRANCH  10   5
ATOM      5  O   UNL     1      -7.011 -10.921  17.565  0.00  0.00    -0.485 OA
BRANCH   5  16
ATOM     16  C   UNL     1      -5.774 -10.840  16.987  0.00  0.00    +0.121 A 
ATOM     17  C   UNL     1      -5.656 -10.545  15.628  0.00  0.00    +0.046 A 
ATOM     18  C   UNL     1      -4.629 -11.054  17.755  0.00  0.00    +0.046 A 
ATOM     20  C   UNL     1      -3.250 -10.677  15.807  0.00  0.00    +0.055 A 
ATOM     21  C   UNL     1      -4.395 -10.463  15.039  0.00  0.00    +0.016 A 
ATOM     22  C   UNL     1      -3.368 -10.972  17.166  0.00  0.00    +0.016 A 
BRANCH  20  23
ATOM      1  F   UNL     1      -1.897  -9.922  13.985  0.00  0.00    -0.166 F 
ATOM      2  F   UNL     1      -1.344 -11.807  14.905  0.00  0.00    -0.166 F 
ATOM      3  F   UNL     1      -0.995  -9.941  15.964  0.00  0.00    -0.166 F 
ATOM     23  C   UNL     1      -1.902 -10.590  15.177  0.00  0.00    +0.417 C 
ENDBRANCH  20  23
ENDBRANCH   5  16
ENDBRANCH  10   5
TORSDOF 4
ENDMDL
MODEL 7
REMARK VINA RESULT:      -6.2     27.885     29.646
REMARK  Name = 75367666
REMARK  4 active torsions:
REMARK  status: ('A' for Active; 'I' for Inactive)
REMARK    1  A    between atoms: O_5  and  C_10
REMARK    2  A    between atoms: O_5  and  C_16
REMARK    3  A    between atoms: N_8  and  C_19
REMARK    4  A    between atoms: C_20  and  C_23
REMARK                            x       y       z     vdW  Elec       q    Type
REMARK                         _______ _______ _______ _____ _____    ______ ____
ROOT
ATOM      4  O   UNL     1      -4.598 -12.564   8.217  0.00  0.00    -0.375 OA
ATOM      6  O   UNL     1      -7.575  -9.573   6.545  0.00  0.00    -0.252 OA
ATOM      7  N   UNL     1      -5.472  -9.881   7.456  0.00  0.00    -0.280 N 
ATOM      8  N   UNL     1      -6.954  -8.298   8.386  0.00  0.00    -0.268 N 
ATOM     10  C   UNL     1      -4.608 -10.595   9.696  0.00  0.00    +0.216 C 
ATOM     11  C   UNL     1      -4.456  -9.660   8.496  0.00  0.00    +0.156 C 
ATOM     12  C   UNL     1      -5.141 -10.925   6.481  0.00  0.00    +0.137 C 
ATOM     13  C   UNL     1      -5.161 -11.988   9.391  0.00  0.00    +0.206 C 
ATOM     14  C   UNL     1      -5.378 -12.320   7.045  0.00  0.00    +0.179 C 
ATOM     15  C   UNL     1      -6.741  -9.259   7.397  0.00  0.00    +0.307 C 
ATOM     28  H   UNL     1      -6.229  -8.135   9.075  0.00  0.00    +0.156 HD
ENDROOT
BRANCH   8  19
ATOM      9  N   UNL     1     -10.368  -7.331   9.442  0.00  0.00    -0.261 NA
ATOM     19  C   UNL     1      -8.112  -7.508   8.590  0.00  0.00    +0.053 A 
ATOM     24  C   UNL     1      -8.159  -6.184   8.168  0.00  0.00    +0.026 A 
ATOM     25  C   UNL     1      -9.232  -8.029   9.217  0.00  0.00    +0.134 A 
ATOM     26  C   UNL     1      -9.310  -5.432   8.383  0.00  0.00    +0.021 A 
ATOM     27  C   UNL     1     -10.376  -6.047   9.018  0.00  0.00    +0.111 A 
ENDBRANCH   8  19
BRANCH  10   5
ATOM      5  O   UNL     1      -5.446  -9.972  10.667  0.00  0.00    -0.485 OA
BRANCH   5  16
ATOM     16  C   UNL     1      -5.091 -10.136  11.978  0.00  0.00    +0.121 A 
ATOM     17  C   UNL     1      -3.770 -10.439  12.311  0.00  0.00    +0.046 A 
ATOM     18  C   UNL     1      -6.049 -10.000  12.983  0.00  0.00    +0.046 A 
ATOM     20  C   UNL     1      -4.366 -10.471  14.652  0.00  0.00    +0.055 A 
ATOM     21  C   UNL     1      -3.408 -10.606  13.647  0.00  0.00    +0.016 A 
ATOM     22  C   UNL     1      -5.687 -10.167  14.319  0.00  0.00    +0.016 A 
BRANCH  20  23
ATOM      1  F   UNL     1      -2.687 -10.292  16.346  0.00  0.00    -0.166 F 
ATOM      2  F   UNL     1      -4.089 -11.938  16.521  0.00  0.00    -0.166 F 
ATOM      3  F   UNL     1      -4.746  -9.907  16.930  0.00  0.00    -0.166 F 
ATOM     23  C   UNL     1      -3.979 -10.649  16.080  0.00  0.00    +0.417 C 
ENDBRANCH  20  23
ENDBRANCH   5  16
ENDBRANCH  10   5
TORSDOF 4
ENDMDL
MODEL 8
REMARK VINA RESULT:      -6.1     22.965     25.408
REMARK  Name = 75367666
REMARK  4 active torsions:
REMARK  status: ('A' for Active; 'I' for Inactive)
REMARK    1  A    between atoms: O_5  and  C_10
REMARK    2  A    between atoms: O_5  and  C_16
REMARK    3  A    between atoms: N_8  and  C_19
REMARK    4  A    between atoms: C_20  and  C_23
REMARK                            x       y       z     vdW  Elec       q    Type
REMARK                         _______ _______ _______ _____ _____    ______ ____
ROOT
ATOM      4  O   UNL     1       7.968  -5.233  34.251  0.00  0.00    -0.375 OA
ATOM      6  O   UNL     1       5.598  -7.462  37.417  0.00  0.00    -0.252 OA
ATOM      7  N   UNL     1       7.296  -7.584  35.851  0.00  0.00    -0.280 N 
ATOM      8  N   UNL     1       5.535  -9.154  35.826  0.00  0.00    -0.268 N 
ATOM     10  C   UNL     1       7.402  -7.454  33.352  0.00  0.00    +0.216 C 
ATOM     11  C   UNL     1       7.906  -8.129  34.629  0.00  0.00    +0.156 C 
ATOM     12  C   UNL     1       7.966  -6.402  36.402  0.00  0.00    +0.137 C 
ATOM     13  C   UNL     1       7.031  -5.977  33.479  0.00  0.00    +0.206 C 
ATOM     14  C   UNL     1       7.607  -5.139  35.630  0.00  0.00    +0.179 C 
ATOM     15  C   UNL     1       6.095  -8.037  36.446  0.00  0.00    +0.307 C 
ATOM     28  H   UNL     1       5.987  -9.536  35.005  0.00  0.00    +0.156 HD
ENDROOT
BRANCH   8  19
ATOM      9  N   UNL     1       3.217 -11.383  37.661  0.00  0.00    -0.261 NA
ATOM     19  C   UNL     1       4.346  -9.837  36.184  0.00  0.00    +0.053 A 
ATOM     24  C   UNL     1       3.172  -9.659  35.462  0.00  0.00    +0.026 A 
ATOM     25  C   UNL     1       4.316 -10.702  37.266  0.00  0.00    +0.134 A 
ATOM     26  C   UNL     1       2.020 -10.342  35.837  0.00  0.00    +0.021 A 
ATOM     27  C   UNL     1       2.095 -11.185  36.934  0.00  0.00    +0.111 A 
ENDBRANCH   8  19
BRANCH  10   5
ATOM      5  O   UNL     1       6.269  -8.171  32.864  0.00  0.00    -0.485 OA
BRANCH   5  16
ATOM     16  C   UNL     1       6.524  -9.231  32.039  0.00  0.00    +0.121 A 
ATOM     17  C   UNL     1       6.483 -10.532  32.540  0.00  0.00    +0.046 A 
ATOM     18  C   UNL     1       6.827  -9.013  30.695  0.00  0.00    +0.046 A 
ATOM     20  C   UNL     1       7.047 -11.394  30.355  0.00  0.00    +0.055 A 
ATOM     21  C   UNL     1       6.744 -11.613  31.699  0.00  0.00    +0.016 A 
ATOM     22  C   UNL     1       7.088 -10.093  29.853  0.00  0.00    +0.016 A 
BRANCH  20  23
ATOM      1  F   UNL     1       7.891 -12.192  28.263  0.00  0.00    -0.166 F 
ATOM      2  F   UNL     1       6.211 -13.264  29.119  0.00  0.00    -0.166 F 
ATOM      3  F   UNL     1       8.184 -13.453  30.010  0.00  0.00    -0.166 F 
ATOM     23  C   UNL     1       7.325 -12.550  29.455  0.00  0.00    +0.417 C 
ENDBRANCH  20  23
ENDBRANCH   5  16
ENDBRANCH  10   5
TORSDOF 4
ENDMDL
MODEL 9
REMARK VINA RESULT:      -6.1     27.115     29.150
REMARK  Name = 75367666
REMARK  4 active torsions:
REMARK  status: ('A' for Active; 'I' for Inactive)
REMARK    1  A    between atoms: O_5  and  C_10
REMARK    2  A    between atoms: O_5  and  C_16
REMARK    3  A    between atoms: N_8  and  C_19
REMARK    4  A    between atoms: C_20  and  C_23
REMARK                            x       y       z     vdW  Elec       q    Type
REMARK                         _______ _______ _______ _____ _____    ______ ____
ROOT
ATOM      4  O   UNL     1     -14.498   4.633  22.116  0.00  0.00    -0.375 OA
ATOM      6  O   UNL     1     -15.638   8.590  24.026  0.00  0.00    -0.252 OA
ATOM      7  N   UNL     1     -15.271   7.450  22.047  0.00  0.00    -0.280 N 
ATOM      8  N   UNL     1     -14.154   9.483  22.477  0.00  0.00    -0.268 N 
ATOM     10  C   UNL     1     -13.269   6.420  20.952  0.00  0.00    +0.216 C 
ATOM     11  C   UNL     1     -14.554   7.231  20.782  0.00  0.00    +0.156 C 
ATOM     12  C   UNL     1     -16.190   6.375  22.431  0.00  0.00    +0.137 C 
ATOM     13  C   UNL     1     -13.282   5.371  22.064  0.00  0.00    +0.206 C 
ATOM     14  C   UNL     1     -15.449   5.185  23.029  0.00  0.00    +0.179 C 
ATOM     15  C   UNL     1     -15.064   8.531  22.936  0.00  0.00    +0.307 C 
ATOM     28  H   UNL     1     -13.694   9.332  21.588  0.00  0.00    +0.156 HD
ENDROOT
BRANCH   8  19
ATOM      9  N   UNL     1     -14.223  12.949  23.778  0.00  0.00    -0.261 NA
ATOM     19  C   UNL     1     -13.739  10.670  23.132  0.00  0.00    +0.053 A 
ATOM     24  C   UNL     1     -12.499  10.749  23.755  0.00  0.00    +0.026 A 
ATOM     25  C   UNL     1     -14.557  11.788  23.172  0.00  0.00    +0.134 A 
ATOM     26  C   UNL     1     -12.120  11.926  24.390  0.00  0.00    +0.021 A 
ATOM     27  C   UNL     1     -13.010  12.988  24.373  0.00  0.00    +0.111 A 
ENDBRANCH   8  19
BRANCH  10   5
ATOM      5  O   UNL     1     -12.181   7.315  21.179  0.00  0.00    -0.485 OA
BRANCH   5  16
ATOM     16  C   UNL     1     -11.743   8.033  20.100  0.00  0.00    +0.121 A 
ATOM     17  C   UNL     1     -11.515   9.404  20.221  0.00  0.00    +0.046 A 
ATOM     18  C   UNL     1     -11.525   7.396  18.879  0.00  0.00    +0.046 A 
ATOM     20  C   UNL     1     -10.851   9.499  17.899  0.00  0.00    +0.055 A 
ATOM     21  C   UNL     1     -11.070  10.137  19.121  0.00  0.00    +0.016 A 
ATOM     22  C   UNL     1     -11.079   8.128  17.779  0.00  0.00    +0.016 A 
BRANCH  20  23
ATOM      1  F   UNL     1     -10.049   9.507  15.646  0.00  0.00    -0.166 F 
ATOM      2  F   UNL     1      -9.257  11.025  16.977  0.00  0.00    -0.166 F 
ATOM      3  F   UNL     1     -11.307  11.168  16.269  0.00  0.00    -0.166 F 
ATOM     23  C   UNL     1     -10.375  10.282  16.724  0.00  0.00    +0.417 C 
ENDBRANCH  20  23
ENDBRANCH   5  16
ENDBRANCH  10   5
TORSDOF 4
ENDMDL
MODEL 10
REMARK VINA RESULT:      -6.0     28.050     30.849
REMARK  Name = 75367666
REMARK  4 active torsions:
REMARK  status: ('A' for Active; 'I' for Inactive)
REMARK    1  A    between atoms: O_5  and  C_10
REMARK    2  A    between atoms: O_5  and  C_16
REMARK    3  A    between atoms: N_8  and  C_19
REMARK    4  A    between atoms: C_20  and  C_23
REMARK                            x       y       z     vdW  Elec       q    Type
REMARK                         _______ _______ _______ _____ _____    ______ ____
ROOT
ATOM      4  O   UNL     1      -9.993 -12.483  18.918  0.00  0.00    -0.375 OA
ATOM      6  O   UNL     1      -5.667 -13.204  17.747  0.00  0.00    -0.252 OA
ATOM      7  N   UNL     1      -7.143 -11.839  18.892  0.00  0.00    -0.280 N 
ATOM      8  N   UNL     1      -5.668 -10.926  17.293  0.00  0.00    -0.268 N 
ATOM     10  C   UNL     1      -9.025 -10.328  18.225  0.00  0.00    +0.216 C 
ATOM     11  C   UNL     1      -7.812 -10.552  19.129  0.00  0.00    +0.156 C 
ATOM     12  C   UNL     1      -7.703 -12.973  19.633  0.00  0.00    +0.137 C 
ATOM     13  C   UNL     1      -9.805 -11.583  17.832  0.00  0.00    +0.206 C 
ATOM     14  C   UNL     1      -8.983 -13.491  18.990  0.00  0.00    +0.179 C 
ATOM     15  C   UNL     1      -6.109 -12.072  17.955  0.00  0.00    +0.307 C 
ATOM     28  H   UNL     1      -6.118 -10.041  17.493  0.00  0.00    +0.156 HD
ENDROOT
BRANCH   8  19
ATOM      9  N   UNL     1      -4.054 -10.612  13.976  0.00  0.00    -0.261 NA
ATOM     19  C   UNL     1      -4.654 -10.831  16.307  0.00  0.00    +0.053 A 
ATOM     24  C   UNL     1      -3.309 -10.858  16.659  0.00  0.00    +0.026 A 
ATOM     25  C   UNL     1      -4.970 -10.706  14.965  0.00  0.00    +0.134 A 
ATOM     26  C   UNL     1      -2.336 -10.762  15.670  0.00  0.00    +0.021 A 
ATOM     27  C   UNL     1      -2.756 -10.642  14.356  0.00  0.00    +0.111 A 
ENDBRANCH   8  19
BRANCH  10   5
ATOM      5  O   UNL     1      -8.603  -9.660  17.038  0.00  0.00    -0.485 OA
BRANCH   5  16
ATOM     16  C   UNL     1      -9.513  -8.828  16.447  0.00  0.00    +0.121 A 
ATOM     17  C   UNL     1     -10.034  -7.746  17.157  0.00  0.00    +0.046 A 
ATOM     18  C   UNL     1      -9.922  -9.060  15.133  0.00  0.00    +0.046 A 
ATOM     20  C   UNL     1     -11.371  -7.130  15.241  0.00  0.00    +0.055 A 
ATOM     21  C   UNL     1     -10.962  -6.898  16.555  0.00  0.00    +0.016 A 
ATOM     22  C   UNL     1     -10.850  -8.212  14.531  0.00  0.00    +0.016 A 
BRANCH  20  23
ATOM      1  F   UNL     1     -12.976  -6.769  13.503  0.00  0.00    -0.166 F 
ATOM      2  F   UNL     1     -11.826  -5.049  14.154  0.00  0.00    -0.166 F 
ATOM      3  F   UNL     1     -13.375  -5.866  15.441  0.00  0.00    -0.166 F 
ATOM     23  C   UNL     1     -12.364  -6.224  14.597  0.00  0.00    +0.417 C 
ENDBRANCH  20  23
ENDBRANCH   5  16
ENDBRANCH  10   5
TORSDOF 4
ENDMDL
