MODEL 1
REMARK VINA RESULT:      -6.7      0.000      0.000
REMARK  Name = 11883096
REMARK  11 active torsions:
REMARK  status: ('A' for Active; 'I' for Inactive)
REMARK    1  A    between atoms: O_2  and  C_16
REMARK    2  A    between atoms: O_3  and  C_21
REMARK    3  A    between atoms: N_8  and  C_29
REMARK    4  A    between atoms: N_10  and  C_33
REMARK    5  A    between atoms: C_11  and  C_19
REMARK    6  A    between atoms: C_13  and  C_21
REMARK    7  A    between atoms: C_13  and  C_22
REMARK    8  A    between atoms: C_14  and  C_24
REMARK    9  A    between atoms: C_24  and  C_25
REMARK   10  A    between atoms: C_27  and  C_28
REMARK   11  A    between atoms: C_29  and  C_33
REMARK                            x       y       z     vdW  Elec       q    Type
REMARK                         _______ _______ _______ _____ _____    ______ ____
ROOT
ATOM      1  S   UNL     1     -10.428 -12.872  19.892  0.00  0.00    -0.057 S 
ATOM      5  O   UNL     1     -13.604  -9.560  19.161  0.00  0.00    -0.275 OA
ATOM      7  N   UNL     1     -10.894 -10.626  18.696  0.00  0.00    -0.229 NA
ATOM      9  N   UNL     1     -12.689 -11.549  20.015  0.00  0.00    -0.264 N 
ATOM     11  C   UNL     1      -7.191 -10.576  17.625  0.00  0.00    -0.019 C 
ATOM     12  C   UNL     1      -7.105 -12.165  17.566  0.00  0.00    +0.011 C 
ATOM     13  C   UNL     1      -5.689 -12.795  17.270  0.00  0.00    +0.021 C 
ATOM     14  C   UNL     1      -8.728 -10.160  17.491  0.00  0.00    +0.054 C 
ATOM     15  C   UNL     1      -6.415  -9.973  16.426  0.00  0.00    +0.010 C 
ATOM     16  C   UNL     1      -5.034 -12.047  16.075  0.00  0.00    +0.123 C 
ATOM     17  C   UNL     1      -7.844 -12.820  18.769  0.00  0.00    +0.049 C 
ATOM     18  C   UNL     1      -5.010 -10.533  16.255  0.00  0.00    +0.032 C 
ATOM     19  C   UNL     1      -6.611  -9.991  18.936  0.00  0.00    +0.012 C 
ATOM     20  C   UNL     1      -9.596 -10.995  18.397  0.00  0.00    +0.058 A 
ATOM     22  C   UNL     1      -5.874 -14.278  16.842  0.00  0.00    +0.016 C 
ATOM     23  C   UNL     1      -9.186 -12.194  18.944  0.00  0.00    +0.015 A 
ATOM     26  C   UNL     1     -11.427 -11.537  19.482  0.00  0.00    +0.165 A 
ATOM     28  C   UNL     1     -13.698 -10.587  19.838  0.00  0.00    +0.222 C 
ATOM     41  H   UNL     1     -12.899 -12.351  20.602  0.00  0.00    +0.157 HD
ENDROOT
BRANCH  28  27
ATOM     27  C   UNL     1     -14.999 -10.924  20.595  0.00  0.00    +0.075 C 
ATOM     30  C   UNL     1     -15.760  -9.753  21.253  0.00  0.00    +0.013 C 
ATOM     31  C   UNL     1     -14.863 -11.529  22.008  0.00  0.00    +0.013 C 
ATOM     32  C   UNL     1     -16.129 -10.732  22.388  0.00  0.00    +0.001 C 
ENDBRANCH  28  27
BRANCH  16   2
ATOM      2  O   UNL     1      -3.700 -12.506  15.865  0.00  0.00    -0.391 OA
ATOM     38  H   UNL     1      -3.099 -11.776  16.090  0.00  0.00    +0.210 HD
ENDBRANCH  16   2
BRANCH  13  21
ATOM     21  C   UNL     1      -4.737 -12.829  18.487  0.00  0.00    +0.165 C 
BRANCH  21   3
ATOM      3  O   UNL     1      -4.047 -14.058  18.460  0.00  0.00    -0.394 OA
ATOM     39  H   UNL     1      -3.311 -13.992  19.092  0.00  0.00    +0.209 HD
ENDBRANCH  21   3
ENDBRANCH  13  21
BRANCH  14  24
ATOM     24  C   UNL     1      -9.001  -8.661  17.676  0.00  0.00    +0.106 C 
BRANCH  24  25
ATOM      4  O   UNL     1      -9.545  -8.516  15.323  0.00  0.00    -0.276 OA
ATOM      8  N   UNL     1     -10.348  -6.900  16.786  0.00  0.00    -0.314 N 
ATOM     25  C   UNL     1      -9.644  -8.048  16.454  0.00  0.00    +0.214 C 
ATOM     40  H   UNL     1     -10.377  -6.598  17.756  0.00  0.00    +0.149 HD
BRANCH   8  29
ATOM     29  C   UNL     1     -11.062  -6.102  15.816  0.00  0.00    +0.119 C 
BRANCH  29  33
ATOM     33  C   UNL     1     -12.520  -6.525  15.722  0.00  0.00    +0.103 C 
BRANCH  33  10
ATOM      6  O   UNL     1     -14.209  -4.864  12.258  0.00  0.00    -0.377 OA
ATOM     10  N   UNL     1     -13.251  -5.631  14.826  0.00  0.00    -0.297 NA
ATOM     34  C   UNL     1     -14.364  -6.339  14.177  0.00  0.00    +0.112 C 
ATOM     35  C   UNL     1     -12.355  -5.065  13.809  0.00  0.00    +0.112 C 
ATOM     36  C   UNL     1     -15.104  -5.392  13.238  0.00  0.00    +0.175 C 
ATOM     37  C   UNL     1     -13.142  -4.145  12.879  0.00  0.00    +0.175 C 
ENDBRANCH  33  10
ENDBRANCH  29  33
ENDBRANCH   8  29
ENDBRANCH  24  25
ENDBRANCH  14  24
TORSDOF 9
ENDMDL
MODEL 2
REMARK VINA RESULT:      -6.6     29.604     34.454
REMARK  Name = 11883096
REMARK  11 active torsions:
REMARK  status: ('A' for Active; 'I' for Inactive)
REMARK    1  A    between atoms: O_2  and  C_16
REMARK    2  A    between atoms: O_3  and  C_21
REMARK    3  A    between atoms: N_8  and  C_29
REMARK    4  A    between atoms: N_10  and  C_33
REMARK    5  A    between atoms: C_11  and  C_19
REMARK    6  A    between atoms: C_13  and  C_21
REMARK    7  A    between atoms: C_13  and  C_22
REMARK    8  A    between atoms: C_14  and  C_24
REMARK    9  A    between atoms: C_24  and  C_25
REMARK   10  A    between atoms: C_27  and  C_28
REMARK   11  A    between atoms: C_29  and  C_33
REMARK                            x       y       z     vdW  Elec       q    Type
REMARK                         _______ _______ _______ _____ _____    ______ ____
ROOT
ATOM      1  S   UNL     1      20.914  -4.711   1.548  0.00  0.00    -0.057 S 
ATOM      5  O   UNL     1      18.057  -5.603  -2.006  0.00  0.00    -0.275 OA
ATOM      7  N   UNL     1      19.682  -6.580   0.252  0.00  0.00    -0.229 NA
ATOM      9  N   UNL     1      19.360  -4.322  -0.528  0.00  0.00    -0.264 N 
ATOM     11  C   UNL     1      21.557  -9.149   2.433  0.00  0.00    -0.019 C 
ATOM     12  C   UNL     1      21.618  -8.162   3.681  0.00  0.00    +0.011 C 
ATOM     13  C   UNL     1      22.433  -8.651   4.941  0.00  0.00    +0.021 C 
ATOM     14  C   UNL     1      20.360  -8.673   1.486  0.00  0.00    +0.054 C 
ATOM     15  C   UNL     1      21.248 -10.585   2.926  0.00  0.00    +0.010 C 
ATOM     16  C   UNL     1      22.037 -10.117   5.270  0.00  0.00    +0.123 C 
ATOM     17  C   UNL     1      21.957  -6.708   3.240  0.00  0.00    +0.049 C 
ATOM     18  C   UNL     1      22.140 -11.051   4.068  0.00  0.00    +0.032 C 
ATOM     19  C   UNL     1      22.876  -9.175   1.622  0.00  0.00    +0.012 C 
ATOM     20  C   UNL     1      20.403  -7.182   1.266  0.00  0.00    +0.058 A 
ATOM     22  C   UNL     1      22.039  -7.780   6.167  0.00  0.00    +0.016 C 
ATOM     23  C   UNL     1      21.111  -6.317   2.076  0.00  0.00    +0.015 A 
ATOM     26  C   UNL     1      19.881  -5.280   0.301  0.00  0.00    +0.165 A 
ATOM     28  C   UNL     1      18.493  -4.516  -1.617  0.00  0.00    +0.222 C 
ATOM     41  H   UNL     1      19.645  -3.370  -0.315  0.00  0.00    +0.157 HD
ENDROOT
BRANCH  28  27
ATOM     27  C   UNL     1      18.112  -3.204  -2.333  0.00  0.00    +0.075 C 
ATOM     30  C   UNL     1      16.651  -3.054  -2.807  0.00  0.00    +0.013 C 
ATOM     31  C   UNL     1      18.527  -3.053  -3.810  0.00  0.00    +0.013 C 
ATOM     32  C   UNL     1      17.206  -2.284  -4.024  0.00  0.00    +0.001 C 
ENDBRANCH  28  27
BRANCH  16   2
ATOM      2  O   UNL     1      22.849 -10.633   6.323  0.00  0.00    -0.391 OA
ATOM     38  H   UNL     1      23.580 -10.009   6.464  0.00  0.00    +0.210 HD
ENDBRANCH  16   2
BRANCH  13  21
ATOM     21  C   UNL     1      23.965  -8.511   4.806  0.00  0.00    +0.165 C 
BRANCH  21   3
ATOM      3  O   UNL     1      24.492  -8.283   6.093  0.00  0.00    -0.394 OA
ATOM     39  H   UNL     1      23.965  -7.577   6.503  0.00  0.00    +0.209 HD
ENDBRANCH  21   3
ENDBRANCH  13  21
BRANCH  14  24
ATOM     24  C   UNL     1      20.257  -9.434   0.158  0.00  0.00    +0.106 C 
BRANCH  24  25
ATOM      4  O   UNL     1      18.299 -10.124  -1.085  0.00  0.00    -0.276 OA
ATOM      8  N   UNL     1      18.450 -10.617   1.180  0.00  0.00    -0.314 N 
ATOM     25  C   UNL     1      18.904 -10.084  -0.018  0.00  0.00    +0.214 C 
ATOM     40  H   UNL     1      19.031 -10.539   2.010  0.00  0.00    +0.149 HD
BRANCH   8  29
ATOM     29  C   UNL     1      17.183 -11.298   1.313  0.00  0.00    +0.119 C 
BRANCH  29  33
ATOM     33  C   UNL     1      17.379 -12.787   1.553  0.00  0.00    +0.103 C 
BRANCH  33  10
ATOM      6  O   UNL     1      15.835 -12.605   5.450  0.00  0.00    -0.377 OA
ATOM     10  N   UNL     1      16.789 -13.178   2.831  0.00  0.00    -0.297 NA
ATOM     34  C   UNL     1      15.511 -12.486   3.049  0.00  0.00    +0.112 C 
ATOM     35  C   UNL     1      17.711 -12.895   3.939  0.00  0.00    +0.112 C 
ATOM     36  C   UNL     1      14.921 -12.899   4.394  0.00  0.00    +0.175 C 
ATOM     37  C   UNL     1      17.069 -13.300   5.263  0.00  0.00    +0.175 C 
ENDBRANCH  33  10
ENDBRANCH  29  33
ENDBRANCH   8  29
ENDBRANCH  24  25
ENDBRANCH  14  24
TORSDOF 9
ENDMDL
MODEL 3
REMARK VINA RESULT:      -6.6     30.130     33.450
REMARK  Name = 11883096
REMARK  11 active torsions:
REMARK  status: ('A' for Active; 'I' for Inactive)
REMARK    1  A    between atoms: O_2  and  C_16
REMARK    2  A    between atoms: O_3  and  C_21
REMARK    3  A    between atoms: N_8  and  C_29
REMARK    4  A    between atoms: N_10  and  C_33
REMARK    5  A    between atoms: C_11  and  C_19
REMARK    6  A    between atoms: C_13  and  C_21
REMARK    7  A    between atoms: C_13  and  C_22
REMARK    8  A    between atoms: C_14  and  C_24
REMARK    9  A    between atoms: C_24  and  C_25
REMARK   10  A    between atoms: C_27  and  C_28
REMARK   11  A    between atoms: C_29  and  C_33
REMARK                            x       y       z     vdW  Elec       q    Type
REMARK                         _______ _______ _______ _____ _____    ______ ____
ROOT
ATOM      1  S   UNL     1      14.038   8.249   6.602  0.00  0.00    -0.057 S 
ATOM      5  O   UNL     1      11.200   5.846   3.816  0.00  0.00    -0.275 OA
ATOM      7  N   UNL     1      13.829   7.092   4.298  0.00  0.00    -0.229 NA
ATOM      9  N   UNL     1      11.894   7.014   5.733  0.00  0.00    -0.264 N 
ATOM     11  C   UNL     1      17.309   8.500   3.420  0.00  0.00    -0.019 C 
ATOM     12  C   UNL     1      17.797   8.452   4.934  0.00  0.00    +0.011 C 
ATOM     13  C   UNL     1      19.220   9.060   5.248  0.00  0.00    +0.021 C 
ATOM     14  C   UNL     1      16.096   7.472   3.260  0.00  0.00    +0.054 C 
ATOM     15  C   UNL     1      18.463   8.042   2.491  0.00  0.00    +0.010 C 
ATOM     16  C   UNL     1      20.242   8.536   4.201  0.00  0.00    +0.123 C 
ATOM     17  C   UNL     1      16.682   8.934   5.907  0.00  0.00    +0.049 C 
ATOM     18  C   UNL     1      19.787   8.743   2.760  0.00  0.00    +0.032 C 
ATOM     19  C   UNL     1      16.849   9.911   2.980  0.00  0.00    +0.012 C 
ATOM     20  C   UNL     1      15.098   7.633   4.378  0.00  0.00    +0.058 A 
ATOM     22  C   UNL     1      19.688   8.558   6.643  0.00  0.00    +0.016 C 
ATOM     23  C   UNL     1      15.388   8.277   5.564  0.00  0.00    +0.015 A 
ATOM     26  C   UNL     1      13.179   7.361   5.410  0.00  0.00    +0.165 A 
ATOM     28  C   UNL     1      10.982   6.291   4.946  0.00  0.00    +0.222 C 
ATOM     41  H   UNL     1      11.584   7.325   6.650  0.00  0.00    +0.157 HD
ENDROOT
BRANCH  28  27
ATOM     27  C   UNL     1       9.614   6.088   5.630  0.00  0.00    +0.075 C 
ATOM     30  C   UNL     1       8.419   6.894   5.079  0.00  0.00    +0.013 C 
ATOM     31  C   UNL     1       9.379   6.805   6.976  0.00  0.00    +0.013 C 
ATOM     32  C   UNL     1       7.912   6.990   6.533  0.00  0.00    +0.001 C 
ENDBRANCH  28  27
BRANCH  16   2
ATOM      2  O   UNL     1      21.510   9.167   4.377  0.00  0.00    -0.391 OA
ATOM     38  H   UNL     1      21.347  10.077   4.679  0.00  0.00    +0.210 HD
ENDBRANCH  16   2
BRANCH  13  21
ATOM     21  C   UNL     1      19.253  10.602   5.327  0.00  0.00    +0.165 C 
BRANCH  21   3
ATOM      3  O   UNL     1      20.205  10.963   6.303  0.00  0.00    -0.394 OA
ATOM     39  H   UNL     1      19.762  10.928   7.167  0.00  0.00    +0.209 HD
ENDBRANCH  21   3
ENDBRANCH  13  21
BRANCH  14  24
ATOM     24  C   UNL     1      15.411   7.502   1.887  0.00  0.00    +0.106 C 
BRANCH  24  25
ATOM      4  O   UNL     1      15.880   5.979   0.066  0.00  0.00    -0.276 OA
ATOM      8  N   UNL     1      14.948   5.163   2.031  0.00  0.00    -0.314 N 
ATOM     25  C   UNL     1      15.454   6.155   1.204  0.00  0.00    +0.214 C 
ATOM     40  H   UNL     1      14.625   5.409   2.963  0.00  0.00    +0.149 HD
BRANCH   8  29
ATOM     29  C   UNL     1      14.862   3.774   1.640  0.00  0.00    +0.119 C 
BRANCH  29  33
ATOM     33  C   UNL     1      13.419   3.295   1.622  0.00  0.00    +0.103 C 
BRANCH  33  10
ATOM      6  O   UNL     1      10.666   3.986  -1.469  0.00  0.00    -0.377 OA
ATOM     10  N   UNL     1      12.681   3.944   0.540  0.00  0.00    -0.297 NA
ATOM     34  C   UNL     1      11.257   4.071   0.882  0.00  0.00    +0.112 C 
ATOM     35  C   UNL     1      12.833   3.197  -0.716  0.00  0.00    +0.112 C 
ATOM     36  C   UNL     1      10.507   4.739  -0.266  0.00  0.00    +0.175 C 
ATOM     37  C   UNL     1      12.046   3.886  -1.827  0.00  0.00    +0.175 C 
ENDBRANCH  33  10
ENDBRANCH  29  33
ENDBRANCH   8  29
ENDBRANCH  24  25
ENDBRANCH  14  24
TORSDOF 9
ENDMDL
MODEL 4
REMARK VINA RESULT:      -6.5      3.844      9.727
REMARK  Name = 11883096
REMARK  11 active torsions:
REMARK  status: ('A' for Active; 'I' for Inactive)
REMARK    1  A    between atoms: O_2  and  C_16
REMARK    2  A    between atoms: O_3  and  C_21
REMARK    3  A    between atoms: N_8  and  C_29
REMARK    4  A    between atoms: N_10  and  C_33
REMARK    5  A    between atoms: C_11  and  C_19
REMARK    6  A    between atoms: C_13  and  C_21
REMARK    7  A    between atoms: C_13  and  C_22
REMARK    8  A    between atoms: C_14  and  C_24
REMARK    9  A    between atoms: C_24  and  C_25
REMARK   10  A    between atoms: C_27  and  C_28
REMARK   11  A    between atoms: C_29  and  C_33
REMARK                            x       y       z     vdW  Elec       q    Type
REMARK                         _______ _______ _______ _____ _____    ______ ____
ROOT
ATOM      1  S   UNL     1      -9.908  -9.637  12.898  0.00  0.00    -0.057 S 
ATOM      5  O   UNL     1      -5.289  -9.903  13.330  0.00  0.00    -0.275 OA
ATOM      7  N   UNL     1      -7.957  -9.837  14.585  0.00  0.00    -0.229 NA
ATOM      9  N   UNL     1      -7.369  -9.730  12.250  0.00  0.00    -0.264 N 
ATOM     11  C   UNL     1     -10.543  -9.466  17.421  0.00  0.00    -0.019 C 
ATOM     12  C   UNL     1     -11.692 -10.167  16.571  0.00  0.00    +0.011 C 
ATOM     13  C   UNL     1     -13.133 -10.207  17.212  0.00  0.00    +0.021 C 
ATOM     14  C   UNL     1      -9.135  -9.918  16.814  0.00  0.00    +0.054 C 
ATOM     15  C   UNL     1     -10.619  -9.953  18.891  0.00  0.00    +0.010 C 
ATOM     16  C   UNL     1     -13.023 -10.670  18.692  0.00  0.00    +0.123 C 
ATOM     17  C   UNL     1     -11.678  -9.687  15.090  0.00  0.00    +0.049 C 
ATOM     18  C   UNL     1     -12.011  -9.863  19.499  0.00  0.00    +0.032 C 
ATOM     19  C   UNL     1     -10.639  -7.921  17.404  0.00  0.00    +0.012 C 
ATOM     20  C   UNL     1      -9.133  -9.808  15.310  0.00  0.00    +0.058 A 
ATOM     22  C   UNL     1     -13.992 -11.263  16.461  0.00  0.00    +0.016 C 
ATOM     23  C   UNL     1     -10.286  -9.724  14.556  0.00  0.00    +0.015 A 
ATOM     26  C   UNL     1      -8.243  -9.746  13.304  0.00  0.00    +0.165 A 
ATOM     28  C   UNL     1      -5.966  -9.807  12.304  0.00  0.00    +0.222 C 
ATOM     41  H   UNL     1      -7.802  -9.651  11.334  0.00  0.00    +0.157 HD
ENDROOT
BRANCH  28  27
ATOM     27  C   UNL     1      -5.300  -9.753  10.913  0.00  0.00    +0.075 C 
ATOM     30  C   UNL     1      -3.802 -10.116  10.830  0.00  0.00    +0.013 C 
ATOM     31  C   UNL     1      -4.917  -8.365  10.361  0.00  0.00    +0.013 C 
ATOM     32  C   UNL     1      -3.682  -9.042   9.728  0.00  0.00    +0.001 C 
ENDBRANCH  28  27
BRANCH  16   2
ATOM      2  O   UNL     1     -14.293 -10.592  19.339  0.00  0.00    -0.391 OA
ATOM     38  H   UNL     1     -14.512 -11.482  19.664  0.00  0.00    +0.210 HD
ENDBRANCH  16   2
BRANCH  13  21
ATOM     21  C   UNL     1     -13.918  -8.881  17.106  0.00  0.00    +0.165 C 
BRANCH  21   3
ATOM      3  O   UNL     1     -15.292  -9.196  17.057  0.00  0.00    -0.394 OA
ATOM     39  H   UNL     1     -15.629  -8.893  16.197  0.00  0.00    +0.209 HD
ENDBRANCH  21   3
ENDBRANCH  13  21
BRANCH  14  24
ATOM     24  C   UNL     1      -7.919  -9.214  17.430  0.00  0.00    +0.106 C 
BRANCH  24  25
ATOM      4  O   UNL     1      -6.839 -10.326  19.288  0.00  0.00    -0.276 OA
ATOM      8  N   UNL     1      -6.261 -10.905  17.114  0.00  0.00    -0.314 N 
ATOM     25  C   UNL     1      -6.964 -10.193  18.074  0.00  0.00    +0.214 C 
ATOM     40  H   UNL     1      -6.443 -10.726  16.130  0.00  0.00    +0.149 HD
BRANCH   8  29
ATOM     29  C   UNL     1      -5.275 -11.910  17.439  0.00  0.00    +0.119 C 
BRANCH  29  33
ATOM     33  C   UNL     1      -3.862 -11.366  17.284  0.00  0.00    +0.103 C 
BRANCH  33  10
ATOM      6  O   UNL     1      -1.855 -11.824  13.627  0.00  0.00    -0.377 OA
ATOM     10  N   UNL     1      -3.513 -11.255  15.869  0.00  0.00    -0.297 NA
ATOM     34  C   UNL     1      -3.517 -12.577  15.226  0.00  0.00    +0.112 C 
ATOM     35  C   UNL     1      -2.200 -10.618  15.704  0.00  0.00    +0.112 C 
ATOM     36  C   UNL     1      -3.137 -12.437  13.755  0.00  0.00    +0.175 C 
ATOM     37  C   UNL     1      -1.852 -10.524  14.221  0.00  0.00    +0.175 C 
ENDBRANCH  33  10
ENDBRANCH  29  33
ENDBRANCH   8  29
ENDBRANCH  24  25
ENDBRANCH  14  24
TORSDOF 9
ENDMDL
MODEL 5
REMARK VINA RESULT:      -6.4     29.962     34.719
REMARK  Name = 11883096
REMARK  11 active torsions:
REMARK  status: ('A' for Active; 'I' for Inactive)
REMARK    1  A    between atoms: O_2  and  C_16
REMARK    2  A    between atoms: O_3  and  C_21
REMARK    3  A    between atoms: N_8  and  C_29
REMARK    4  A    between atoms: N_10  and  C_33
REMARK    5  A    between atoms: C_11  and  C_19
REMARK    6  A    between atoms: C_13  and  C_21
REMARK    7  A    between atoms: C_13  and  C_22
REMARK    8  A    between atoms: C_14  and  C_24
REMARK    9  A    between atoms: C_24  and  C_25
REMARK   10  A    between atoms: C_27  and  C_28
REMARK   11  A    between atoms: C_29  and  C_33
REMARK                            x       y       z     vdW  Elec       q    Type
REMARK                         _______ _______ _______ _____ _____    ______ ____
ROOT
ATOM      1  S   UNL     1      19.079  -4.271  -1.642  0.00  0.00    -0.057 S 
ATOM      5  O   UNL     1      16.008  -7.287  -3.393  0.00  0.00    -0.275 OA
ATOM      7  N   UNL     1      18.332  -6.747  -1.659  0.00  0.00    -0.229 NA
ATOM      9  N   UNL     1      17.069  -5.221  -3.032  0.00  0.00    -0.264 N 
ATOM     11  C   UNL     1      21.427  -7.562   0.491  0.00  0.00    -0.019 C 
ATOM     12  C   UNL     1      21.411  -6.134   1.195  0.00  0.00    +0.011 C 
ATOM     13  C   UNL     1      22.604  -5.805   2.174  0.00  0.00    +0.021 C 
ATOM     14  C   UNL     1      19.961  -7.847  -0.078  0.00  0.00    +0.054 C 
ATOM     15  C   UNL     1      21.763  -8.650   1.542  0.00  0.00    +0.010 C 
ATOM     16  C   UNL     1      22.834  -7.013   3.125  0.00  0.00    +0.123 C 
ATOM     17  C   UNL     1      21.108  -4.999   0.173  0.00  0.00    +0.049 C 
ATOM     18  C   UNL     1      22.992  -8.338   2.384  0.00  0.00    +0.032 C 
ATOM     19  C   UNL     1      22.454  -7.652  -0.663  0.00  0.00    +0.012 C 
ATOM     20  C   UNL     1      19.425  -6.649  -0.819  0.00  0.00    +0.058 A 
ATOM     22  C   UNL     1      22.211  -4.589   3.060  0.00  0.00    +0.016 C 
ATOM     23  C   UNL     1      19.943  -5.377  -0.677  0.00  0.00    +0.015 A 
ATOM     26  C   UNL     1      18.064  -5.558  -2.154  0.00  0.00    +0.165 A 
ATOM     28  C   UNL     1      16.107  -6.075  -3.600  0.00  0.00    +0.222 C 
ATOM     41  H   UNL     1      17.039  -4.238  -3.290  0.00  0.00    +0.157 HD
ENDROOT
BRANCH  28  27
ATOM     27  C   UNL     1      15.139  -5.349  -4.557  0.00  0.00    +0.075 C 
ATOM     30  C   UNL     1      13.628  -5.584  -4.348  0.00  0.00    +0.013 C 
ATOM     31  C   UNL     1      14.958  -5.941  -5.970  0.00  0.00    +0.013 C 
ATOM     32  C   UNL     1      13.481  -5.501  -5.882  0.00  0.00    +0.001 C 
ENDBRANCH  28  27
BRANCH  16   2
ATOM      2  O   UNL     1      23.989  -6.801   3.936  0.00  0.00    -0.391 OA
ATOM     38  H   UNL     1      23.691  -6.410   4.775  0.00  0.00    +0.210 HD
ENDBRANCH  16   2
BRANCH  13  21
ATOM     21  C   UNL     1      23.917  -5.399   1.470  0.00  0.00    +0.165 C 
BRANCH  21   3
ATOM      3  O   UNL     1      24.457  -4.297   2.165  0.00  0.00    -0.394 OA
ATOM     39  H   UNL     1      25.319  -4.572   2.520  0.00  0.00    +0.209 HD
ENDBRANCH  21   3
ENDBRANCH  13  21
BRANCH  14  24
ATOM     24  C   UNL     1      19.841  -9.126  -0.917  0.00  0.00    +0.106 C 
BRANCH  24  25
ATOM      4  O   UNL     1      18.254 -10.951  -1.016  0.00  0.00    -0.276 OA
ATOM      8  N   UNL     1      18.577  -9.820   0.988  0.00  0.00    -0.314 N 
ATOM     25  C   UNL     1      18.808 -10.076  -0.356  0.00  0.00    +0.214 C 
ATOM     40  H   UNL     1      19.094  -9.076   1.448  0.00  0.00    +0.149 HD
BRANCH   8  29
ATOM     29  C   UNL     1      17.635 -10.572   1.785  0.00  0.00    +0.119 C 
BRANCH  29  33
ATOM     33  C   UNL     1      18.340 -11.639   2.609  0.00  0.00    +0.103 C 
BRANCH  33  10
ATOM      6  O   UNL     1      14.837 -13.751   3.551  0.00  0.00    -0.377 OA
ATOM     10  N   UNL     1      17.362 -12.455   3.325  0.00  0.00    -0.297 NA
ATOM     34  C   UNL     1      17.057 -13.682   2.575  0.00  0.00    +0.112 C 
ATOM     35  C   UNL     1      16.128 -11.696   3.571  0.00  0.00    +0.112 C 
ATOM     36  C   UNL     1      16.026 -14.511   3.335  0.00  0.00    +0.175 C 
ATOM     37  C   UNL     1      15.120 -12.572   4.309  0.00  0.00    +0.175 C 
ENDBRANCH  33  10
ENDBRANCH  29  33
ENDBRANCH   8  29
ENDBRANCH  24  25
ENDBRANCH  14  24
TORSDOF 9
ENDMDL
MODEL 6
REMARK VINA RESULT:      -6.1     27.473     28.838
REMARK  Name = 11883096
REMARK  11 active torsions:
REMARK  status: ('A' for Active; 'I' for Inactive)
REMARK    1  A    between atoms: O_2  and  C_16
REMARK    2  A    between atoms: O_3  and  C_21
REMARK    3  A    between atoms: N_8  and  C_29
REMARK    4  A    between atoms: N_10  and  C_33
REMARK    5  A    between atoms: C_11  and  C_19
REMARK    6  A    between atoms: C_13  and  C_21
REMARK    7  A    between atoms: C_13  and  C_22
REMARK    8  A    between atoms: C_14  and  C_24
REMARK    9  A    between atoms: C_24  and  C_25
REMARK   10  A    between atoms: C_27  and  C_28
REMARK   11  A    between atoms: C_29  and  C_33
REMARK                            x       y       z     vdW  Elec       q    Type
REMARK                         _______ _______ _______ _____ _____    ______ ____
ROOT
ATOM      1  S   UNL     1      -6.354   8.133  41.782  0.00  0.00    -0.057 S 
ATOM      5  O   UNL     1      -9.230  10.851  39.347  0.00  0.00    -0.275 OA
ATOM      7  N   UNL     1      -6.614   9.518  39.613  0.00  0.00    -0.229 NA
ATOM      9  N   UNL     1      -8.497   9.490  41.117  0.00  0.00    -0.264 N 
ATOM     11  C   UNL     1      -2.905   8.785  38.855  0.00  0.00    -0.019 C 
ATOM     12  C   UNL     1      -2.952   7.374  39.590  0.00  0.00    +0.011 C 
ATOM     13  C   UNL     1      -1.590   6.588  39.719  0.00  0.00    +0.021 C 
ATOM     14  C   UNL     1      -4.400   9.181  38.451  0.00  0.00    +0.054 C 
ATOM     15  C   UNL     1      -2.065   8.663  37.558  0.00  0.00    +0.010 C 
ATOM     16  C   UNL     1      -0.859   6.600  38.347  0.00  0.00    +0.123 C 
ATOM     17  C   UNL     1      -3.760   7.451  40.918  0.00  0.00    +0.049 C 
ATOM     18  C   UNL     1      -0.710   8.000  37.759  0.00  0.00    +0.032 C 
ATOM     19  C   UNL     1      -2.296   9.902  39.737  0.00  0.00    +0.012 C 
ATOM     20  C   UNL     1      -5.347   8.964  39.604  0.00  0.00    +0.058 A 
ATOM     22  C   UNL     1      -1.893   5.103  40.067  0.00  0.00    +0.016 C 
ATOM     23  C   UNL     1      -5.047   8.169  40.691  0.00  0.00    +0.015 A 
ATOM     26  C   UNL     1      -7.232   9.153  40.716  0.00  0.00    +0.165 A 
ATOM     28  C   UNL     1      -9.420  10.302  40.436  0.00  0.00    +0.222 C 
ATOM     41  H   UNL     1      -8.782   9.099  42.011  0.00  0.00    +0.157 HD
ENDROOT
BRANCH  28  27
ATOM     27  C   UNL     1     -10.754  10.472  41.190  0.00  0.00    +0.075 C 
ATOM     30  C   UNL     1     -11.080   9.444  42.294  0.00  0.00    +0.013 C 
ATOM     31  C   UNL     1     -12.039  10.001  40.478  0.00  0.00    +0.013 C 
ATOM     32  C   UNL     1     -12.558   9.567  41.866  0.00  0.00    +0.001 C 
ENDBRANCH  28  27
BRANCH  16   2
ATOM      2  O   UNL     1       0.435   6.011  38.462  0.00  0.00    -0.391 OA
ATOM     38  H   UNL     1       0.861   6.385  39.252  0.00  0.00    +0.210 HD
ENDBRANCH  16   2
BRANCH  13  21
ATOM     21  C   UNL     1      -0.661   7.097  40.844  0.00  0.00    +0.165 C 
BRANCH  21   3
ATOM      3  O   UNL     1       0.092   6.001  41.311  0.00  0.00    -0.394 OA
ATOM     39  H   UNL     1      -0.168   5.843  42.234  0.00  0.00    +0.209 HD
ENDBRANCH  21   3
ENDBRANCH  13  21
BRANCH  14  24
ATOM     24  C   UNL     1      -4.549  10.589  37.860  0.00  0.00    +0.106 C 
BRANCH  24  25
ATOM      4  O   UNL     1      -4.830  10.266  35.478  0.00  0.00    -0.276 OA
ATOM      8  N   UNL     1      -6.636  10.968  36.761  0.00  0.00    -0.314 N 
ATOM     25  C   UNL     1      -5.320  10.578  36.560  0.00  0.00    +0.214 C 
ATOM     40  H   UNL     1      -6.948  11.201  37.700  0.00  0.00    +0.149 HD
BRANCH   8  29
ATOM     29  C   UNL     1      -7.607  11.054  35.694  0.00  0.00    +0.119 C 
BRANCH  29  33
ATOM     33  C   UNL     1      -8.201   9.689  35.380  0.00  0.00    +0.103 C 
BRANCH  33  10
ATOM      6  O   UNL     1     -11.335   7.698  37.336  0.00  0.00    -0.377 OA
ATOM     10  N   UNL     1      -9.229   9.346  36.360  0.00  0.00    -0.297 NA
ATOM     34  C   UNL     1      -8.961   8.030  36.957  0.00  0.00    +0.112 C 
ATOM     35  C   UNL     1     -10.562   9.357  35.743  0.00  0.00    +0.112 C 
ATOM     36  C   UNL     1     -10.053   7.688  37.966  0.00  0.00    +0.175 C 
ATOM     37  C   UNL     1     -11.617   8.984  36.781  0.00  0.00    +0.175 C 
ENDBRANCH  33  10
ENDBRANCH  29  33
ENDBRANCH   8  29
ENDBRANCH  24  25
ENDBRANCH  14  24
TORSDOF 9
ENDMDL
MODEL 7
REMARK VINA RESULT:      -6.1      4.014      9.063
REMARK  Name = 11883096
REMARK  11 active torsions:
REMARK  status: ('A' for Active; 'I' for Inactive)
REMARK    1  A    between atoms: O_2  and  C_16
REMARK    2  A    between atoms: O_3  and  C_21
REMARK    3  A    between atoms: N_8  and  C_29
REMARK    4  A    between atoms: N_10  and  C_33
REMARK    5  A    between atoms: C_11  and  C_19
REMARK    6  A    between atoms: C_13  and  C_21
REMARK    7  A    between atoms: C_13  and  C_22
REMARK    8  A    between atoms: C_14  and  C_24
REMARK    9  A    between atoms: C_24  and  C_25
REMARK   10  A    between atoms: C_27  and  C_28
REMARK   11  A    between atoms: C_29  and  C_33
REMARK                            x       y       z     vdW  Elec       q    Type
REMARK                         _______ _______ _______ _____ _____    ______ ____
ROOT
ATOM      1  S   UNL     1      -9.753  -8.077  17.195  0.00  0.00    -0.057 S 
ATOM      5  O   UNL     1      -6.380 -11.043  16.003  0.00  0.00    -0.275 OA
ATOM      7  N   UNL     1      -8.861  -9.608  15.310  0.00  0.00    -0.229 NA
ATOM      9  N   UNL     1      -7.586  -9.545  17.354  0.00  0.00    -0.264 N 
ATOM     11  C   UNL     1     -12.064  -8.804  13.319  0.00  0.00    -0.019 C 
ATOM     12  C   UNL     1     -12.188  -7.350  13.955  0.00  0.00    +0.011 C 
ATOM     13  C   UNL     1     -13.472  -6.512  13.581  0.00  0.00    +0.021 C 
ATOM     14  C   UNL     1     -10.543  -9.275  13.460  0.00  0.00    +0.054 C 
ATOM     15  C   UNL     1     -12.417  -8.738  11.811  0.00  0.00    +0.010 C 
ATOM     16  C   UNL     1     -13.705  -6.590  12.047  0.00  0.00    +0.123 C 
ATOM     17  C   UNL     1     -11.873  -7.367  15.480  0.00  0.00    +0.049 C 
ATOM     18  C   UNL     1     -13.725  -8.019  11.514  0.00  0.00    +0.032 C 
ATOM     19  C   UNL     1     -12.989  -9.840  14.001  0.00  0.00    +0.012 C 
ATOM     20  C   UNL     1     -10.021  -9.014  14.850  0.00  0.00    +0.058 A 
ATOM     22  C   UNL     1     -13.223  -5.019  13.936  0.00  0.00    +0.016 C 
ATOM     23  C   UNL     1     -10.623  -8.141  15.733  0.00  0.00    +0.015 A 
ATOM     26  C   UNL     1      -8.626  -9.193  16.536  0.00  0.00    +0.165 A 
ATOM     28  C   UNL     1      -6.534 -10.431  17.063  0.00  0.00    +0.222 C 
ATOM     41  H   UNL     1      -7.594  -9.106  18.271  0.00  0.00    +0.157 HD
ENDROOT
BRANCH  28  27
ATOM     27  C   UNL     1      -5.536 -10.595  18.229  0.00  0.00    +0.075 C 
ATOM     30  C   UNL     1      -4.207 -11.319  17.928  0.00  0.00    +0.013 C 
ATOM     31  C   UNL     1      -5.822 -11.708  19.258  0.00  0.00    +0.013 C 
ATOM     32  C   UNL     1      -4.294 -11.908  19.352  0.00  0.00    +0.001 C 
ENDBRANCH  28  27
BRANCH  16   2
ATOM      2  O   UNL     1     -14.931  -5.951  11.691  0.00  0.00    -0.391 OA
ATOM     38  H   UNL     1     -15.335  -6.468  10.974  0.00  0.00    +0.210 HD
ENDBRANCH  16   2
BRANCH  13  21
ATOM     21  C   UNL     1     -14.747  -6.916  14.354  0.00  0.00    +0.165 C 
BRANCH  21   3
ATOM      3  O   UNL     1     -15.626  -5.814  14.341  0.00  0.00    -0.394 OA
ATOM     39  H   UNL     1     -15.375  -5.251  13.590  0.00  0.00    +0.209 HD
ENDBRANCH  21   3
ENDBRANCH  13  21
BRANCH  14  24
ATOM     24  C   UNL     1     -10.281 -10.723  13.024  0.00  0.00    +0.106 C 
BRANCH  24  25
ATOM      4  O   UNL     1      -9.229 -10.639  10.846  0.00  0.00    -0.276 OA
ATOM      8  N   UNL     1      -7.950 -11.146  12.718  0.00  0.00    -0.314 N 
ATOM     25  C   UNL     1      -9.125 -10.822  12.056  0.00  0.00    +0.214 C 
ATOM     40  H   UNL     1      -7.965 -11.269  13.726  0.00  0.00    +0.149 HD
BRANCH   8  29
ATOM     29  C   UNL     1      -6.682 -11.310  12.044  0.00  0.00    +0.119 C 
BRANCH  29  33
ATOM     33  C   UNL     1      -5.590 -10.493  12.718  0.00  0.00    +0.103 C 
BRANCH  33  10
ATOM      6  O   UNL     1      -4.064  -8.921   9.138  0.00  0.00    -0.377 OA
ATOM     10  N   UNL     1      -4.964  -9.590  11.754  0.00  0.00    -0.297 NA
ATOM     34  C   UNL     1      -5.907  -9.232  10.685  0.00  0.00    +0.112 C 
ATOM     35  C   UNL     1      -3.756 -10.197  11.179  0.00  0.00    +0.112 C 
ATOM     36  C   UNL     1      -5.228  -8.301   9.686  0.00  0.00    +0.175 C 
ATOM     37  C   UNL     1      -3.127  -9.241  10.169  0.00  0.00    +0.175 C 
ENDBRANCH  33  10
ENDBRANCH  29  33
ENDBRANCH   8  29
ENDBRANCH  24  25
ENDBRANCH  14  24
TORSDOF 9
ENDMDL
MODEL 8
REMARK VINA RESULT:      -6.1     29.790     33.384
REMARK  Name = 11883096
REMARK  11 active torsions:
REMARK  status: ('A' for Active; 'I' for Inactive)
REMARK    1  A    between atoms: O_2  and  C_16
REMARK    2  A    between atoms: O_3  and  C_21
REMARK    3  A    between atoms: N_8  and  C_29
REMARK    4  A    between atoms: N_10  and  C_33
REMARK    5  A    between atoms: C_11  and  C_19
REMARK    6  A    between atoms: C_13  and  C_21
REMARK    7  A    between atoms: C_13  and  C_22
REMARK    8  A    between atoms: C_14  and  C_24
REMARK    9  A    between atoms: C_24  and  C_25
REMARK   10  A    between atoms: C_27  and  C_28
REMARK   11  A    between atoms: C_29  and  C_33
REMARK                            x       y       z     vdW  Elec       q    Type
REMARK                         _______ _______ _______ _____ _____    ______ ____
ROOT
ATOM      1  S   UNL     1      10.154   4.382   2.135  0.00  0.00    -0.057 S 
ATOM      5  O   UNL     1      11.645   6.318   6.088  0.00  0.00    -0.275 OA
ATOM      7  N   UNL     1      12.075   5.724   3.232  0.00  0.00    -0.229 NA
ATOM      9  N   UNL     1      10.214   5.135   4.646  0.00  0.00    -0.264 N 
ATOM     11  C   UNL     1      14.040   5.356  -0.065  0.00  0.00    -0.019 C 
ATOM     12  C   UNL     1      12.714   5.339  -0.945  0.00  0.00    +0.011 C 
ATOM     13  C   UNL     1      12.884   5.075  -2.492  0.00  0.00    +0.021 C 
ATOM     14  C   UNL     1      13.697   6.058   1.329  0.00  0.00    +0.054 C 
ATOM     15  C   UNL     1      15.124   6.201  -0.783  0.00  0.00    +0.010 C 
ATOM     16  C   UNL     1      14.035   5.965  -3.040  0.00  0.00    +0.123 C 
ATOM     17  C   UNL     1      11.602   4.475  -0.281  0.00  0.00    +0.049 C 
ATOM     18  C   UNL     1      15.330   5.828  -2.245  0.00  0.00    +0.032 C 
ATOM     19  C   UNL     1      14.607   3.940   0.196  0.00  0.00    +0.012 C 
ATOM     20  C   UNL     1      12.417   5.514   1.909  0.00  0.00    +0.058 A 
ATOM     22  C   UNL     1      11.581   5.502  -3.225  0.00  0.00    +0.016 C 
ATOM     23  C   UNL     1      11.482   4.823   1.164  0.00  0.00    +0.015 A 
ATOM     26  C   UNL     1      10.906   5.166   3.465  0.00  0.00    +0.165 A 
ATOM     28  C   UNL     1      10.600   5.697   5.876  0.00  0.00    +0.222 C 
ATOM     41  H   UNL     1       9.324   4.646   4.609  0.00  0.00    +0.157 HD
ENDROOT
BRANCH  28  27
ATOM     27  C   UNL     1       9.571   5.463   7.001  0.00  0.00    +0.075 C 
ATOM     30  C   UNL     1       9.511   6.507   8.135  0.00  0.00    +0.013 C 
ATOM     31  C   UNL     1       9.924   4.421   8.082  0.00  0.00    +0.013 C 
ATOM     32  C   UNL     1       9.201   5.337   9.093  0.00  0.00    +0.001 C 
ENDBRANCH  28  27
BRANCH  16   2
ATOM      2  O   UNL     1      14.302   5.656  -4.407  0.00  0.00    -0.391 OA
ATOM     38  H   UNL     1      14.691   4.766  -4.438  0.00  0.00    +0.210 HD
ENDBRANCH  16   2
BRANCH  13  21
ATOM     21  C   UNL     1      13.106   3.593  -2.868  0.00  0.00    +0.165 C 
BRANCH  21   3
ATOM      3  O   UNL     1      12.447   3.356  -4.092  0.00  0.00    -0.394 OA
ATOM     39  H   UNL     1      11.849   4.105  -4.250  0.00  0.00    +0.209 HD
ENDBRANCH  21   3
ENDBRANCH  13  21
BRANCH  14  24
ATOM     24  C   UNL     1      14.837   6.026   2.356  0.00  0.00    +0.106 C 
BRANCH  24  25
ATOM      4  O   UNL     1      14.461   8.362   2.866  0.00  0.00    -0.276 OA
ATOM      8  N   UNL     1      16.590   7.464   3.109  0.00  0.00    -0.314 N 
ATOM     25  C   UNL     1      15.239   7.414   2.799  0.00  0.00    +0.214 C 
ATOM     40  H   UNL     1      17.150   6.620   3.029  0.00  0.00    +0.149 HD
BRANCH   8  29
ATOM     29  C   UNL     1      17.254   8.666   3.559  0.00  0.00    +0.119 C 
BRANCH  29  33
ATOM     33  C   UNL     1      18.726   8.658   3.176  0.00  0.00    +0.103 C 
BRANCH  33  10
ATOM      6  O   UNL     1      20.435   7.890   6.931  0.00  0.00    -0.377 OA
ATOM     10  N   UNL     1      19.562   8.770   4.369  0.00  0.00    -0.297 NA
ATOM     34  C   UNL     1      20.412   7.581   4.525  0.00  0.00    +0.112 C 
ATOM     35  C   UNL     1      18.736   8.959   5.569  0.00  0.00    +0.112 C 
ATOM     36  C   UNL     1      21.265   7.715   5.783  0.00  0.00    +0.175 C 
ATOM     37  C   UNL     1      19.629   9.063   6.802  0.00  0.00    +0.175 C 
ENDBRANCH  33  10
ENDBRANCH  29  33
ENDBRANCH   8  29
ENDBRANCH  24  25
ENDBRANCH  14  24
TORSDOF 9
ENDMDL
MODEL 9
REMARK VINA RESULT:      -6.0     28.585     31.787
REMARK  Name = 11883096
REMARK  11 active torsions:
REMARK  status: ('A' for Active; 'I' for Inactive)
REMARK    1  A    between atoms: O_2  and  C_16
REMARK    2  A    between atoms: O_3  and  C_21
REMARK    3  A    between atoms: N_8  and  C_29
REMARK    4  A    between atoms: N_10  and  C_33
REMARK    5  A    between atoms: C_11  and  C_19
REMARK    6  A    between atoms: C_13  and  C_21
REMARK    7  A    between atoms: C_13  and  C_22
REMARK    8  A    between atoms: C_14  and  C_24
REMARK    9  A    between atoms: C_24  and  C_25
REMARK   10  A    between atoms: C_27  and  C_28
REMARK   11  A    between atoms: C_29  and  C_33
REMARK                            x       y       z     vdW  Elec       q    Type
REMARK                         _______ _______ _______ _____ _____    ______ ____
ROOT
ATOM      1  S   UNL     1      10.747   4.160   2.865  0.00  0.00    -0.057 S 
ATOM      5  O   UNL     1      11.165   6.756   6.696  0.00  0.00    -0.275 OA
ATOM      7  N   UNL     1      11.986   6.168   3.926  0.00  0.00    -0.229 NA
ATOM      9  N   UNL     1      10.352   5.049   5.300  0.00  0.00    -0.264 N 
ATOM     11  C   UNL     1      14.193   6.308   0.767  0.00  0.00    -0.019 C 
ATOM     12  C   UNL     1      13.027   5.760  -0.167  0.00  0.00    +0.011 C 
ATOM     13  C   UNL     1      13.393   5.473  -1.676  0.00  0.00    +0.021 C 
ATOM     14  C   UNL     1      13.524   6.932   2.077  0.00  0.00    +0.054 C 
ATOM     15  C   UNL     1      14.961   7.433   0.028  0.00  0.00    +0.010 C 
ATOM     16  C   UNL     1      14.195   6.676  -2.246  0.00  0.00    +0.123 C 
ATOM     17  C   UNL     1      12.243   4.603   0.519  0.00  0.00    +0.049 C 
ATOM     18  C   UNL     1      15.392   7.063  -1.384  0.00  0.00    +0.032 C 
ATOM     19  C   UNL     1      15.201   5.207   1.178  0.00  0.00    +0.012 C 
ATOM     20  C   UNL     1      12.477   6.006   2.644  0.00  0.00    +0.058 A 
ATOM     22  C   UNL     1      12.081   5.358  -2.502  0.00  0.00    +0.016 C 
ATOM     23  C   UNL     1      11.903   4.980   1.921  0.00  0.00    +0.015 A 
ATOM     26  C   UNL     1      11.075   5.246   4.154  0.00  0.00    +0.165 A 
ATOM     28  C   UNL     1      10.424   5.791   6.492  0.00  0.00    +0.222 C 
ATOM     41  H   UNL     1       9.696   4.274   5.266  0.00  0.00    +0.157 HD
ENDROOT
BRANCH  28  27
ATOM     27  C   UNL     1       9.463   5.281   7.585  0.00  0.00    +0.075 C 
ATOM     30  C   UNL     1       9.450   6.040   8.929  0.00  0.00    +0.013 C 
ATOM     31  C   UNL     1       9.891   4.032   8.382  0.00  0.00    +0.013 C 
ATOM     32  C   UNL     1       9.212   4.676   9.610  0.00  0.00    +0.001 C 
ENDBRANCH  28  27
BRANCH  16   2
ATOM      2  O   UNL     1      14.653   6.393  -3.568  0.00  0.00    -0.391 OA
ATOM     38  H   UNL     1      15.440   6.941  -3.730  0.00  0.00    +0.210 HD
ENDBRANCH  16   2
BRANCH  13  21
ATOM     21  C   UNL     1      14.148   4.146  -1.909  0.00  0.00    +0.165 C 
BRANCH  21   3
ATOM      3  O   UNL     1      13.840   3.698  -3.210  0.00  0.00    -0.394 OA
ATOM     39  H   UNL     1      12.935   3.346  -3.189  0.00  0.00    +0.209 HD
ENDBRANCH  21   3
ENDBRANCH  13  21
BRANCH  14  24
ATOM     24  C   UNL     1      14.522   7.376   3.155  0.00  0.00    +0.106 C 
BRANCH  24  25
ATOM      4  O   UNL     1      14.727   9.785   3.075  0.00  0.00    -0.276 OA
ATOM      8  N   UNL     1      13.435   8.800   4.735  0.00  0.00    -0.314 N 
ATOM     25  C   UNL     1      14.261   8.789   3.620  0.00  0.00    +0.214 C 
ATOM     40  H   UNL     1      13.093   7.918   5.109  0.00  0.00    +0.149 HD
BRANCH   8  29
ATOM     29  C   UNL     1      13.018  10.013   5.399  0.00  0.00    +0.119 C 
BRANCH  29  33
ATOM     33  C   UNL     1      11.502  10.129   5.435  0.00  0.00    +0.103 C 
BRANCH  33  10
ATOM      6  O   UNL     1      10.664  10.760   9.498  0.00  0.00    -0.377 OA
ATOM     10  N   UNL     1      11.070  10.758   6.681  0.00  0.00    -0.297 NA
ATOM     34  C   UNL     1      12.194  10.883   7.620  0.00  0.00    +0.112 C 
ATOM     35  C   UNL     1       9.979   9.993   7.301  0.00  0.00    +0.112 C 
ATOM     36  C   UNL     1      11.716  11.529   8.916  0.00  0.00    +0.175 C 
ATOM     37  C   UNL     1       9.553  10.662   8.604  0.00  0.00    +0.175 C 
ENDBRANCH  33  10
ENDBRANCH  29  33
ENDBRANCH   8  29
ENDBRANCH  24  25
ENDBRANCH  14  24
TORSDOF 9
ENDMDL
MODEL 10
REMARK VINA RESULT:      -6.0     28.997     32.496
REMARK  Name = 11883096
REMARK  11 active torsions:
REMARK  status: ('A' for Active; 'I' for Inactive)
REMARK    1  A    between atoms: O_2  and  C_16
REMARK    2  A    between atoms: O_3  and  C_21
REMARK    3  A    between atoms: N_8  and  C_29
REMARK    4  A    between atoms: N_10  and  C_33
REMARK    5  A    between atoms: C_11  and  C_19
REMARK    6  A    between atoms: C_13  and  C_21
REMARK    7  A    between atoms: C_13  and  C_22
REMARK    8  A    between atoms: C_14  and  C_24
REMARK    9  A    between atoms: C_24  and  C_25
REMARK   10  A    between atoms: C_27  and  C_28
REMARK   11  A    between atoms: C_29  and  C_33
REMARK                            x       y       z     vdW  Elec       q    Type
REMARK                         _______ _______ _______ _____ _____    ______ ____
ROOT
ATOM      1  S   UNL     1       9.805   4.616   3.393  0.00  0.00    -0.057 S 
ATOM      5  O   UNL     1      12.427   6.752   6.580  0.00  0.00    -0.275 OA
ATOM      7  N   UNL     1      12.043   5.848   3.800  0.00  0.00    -0.229 NA
ATOM      9  N   UNL     1      10.581   5.594   5.700  0.00  0.00    -0.264 N 
ATOM     11  C   UNL     1      13.036   4.966   0.180  0.00  0.00    -0.019 C 
ATOM     12  C   UNL     1      11.527   5.004  -0.326  0.00  0.00    +0.011 C 
ATOM     13  C   UNL     1      11.263   4.578  -1.823  0.00  0.00    +0.021 C 
ATOM     14  C   UNL     1      13.127   5.829   1.522  0.00  0.00    +0.054 C 
ATOM     15  C   UNL     1      13.953   5.621  -0.884  0.00  0.00    +0.010 C 
ATOM     16  C   UNL     1      12.294   5.287  -2.746  0.00  0.00    +0.123 C 
ATOM     17  C   UNL     1      10.567   4.328   0.696  0.00  0.00    +0.049 C 
ATOM     18  C   UNL     1      13.738   5.092  -2.295  0.00  0.00    +0.032 C 
ATOM     19  C   UNL     1      13.543   3.530   0.456  0.00  0.00    +0.012 C 
ATOM     20  C   UNL     1      12.007   5.479   2.468  0.00  0.00    +0.058 A 
ATOM     22  C   UNL     1       9.850   5.068  -2.247  0.00  0.00    +0.016 C 
ATOM     23  C   UNL     1      10.859   4.822   2.072  0.00  0.00    +0.015 A 
ATOM     26  C   UNL     1      10.938   5.440   4.386  0.00  0.00    +0.165 A 
ATOM     28  C   UNL     1      11.319   6.226   6.715  0.00  0.00    +0.222 C 
ATOM     41  H   UNL     1       9.678   5.199   5.948  0.00  0.00    +0.157 HD
ENDROOT
BRANCH  28  27
ATOM     27  C   UNL     1      10.608   6.209   8.084  0.00  0.00    +0.075 C 
ATOM     30  C   UNL     1      10.142   4.841   8.624  0.00  0.00    +0.013 C 
ATOM     31  C   UNL     1       9.128   6.643   8.123  0.00  0.00    +0.013 C 
ATOM     32  C   UNL     1       8.923   5.576   9.220  0.00  0.00    +0.001 C 
ENDBRANCH  28  27
BRANCH  16   2
ATOM      2  O   UNL     1      12.167   4.824  -4.090  0.00  0.00    -0.391 OA
ATOM     38  H   UNL     1      13.063   4.733  -4.456  0.00  0.00    +0.210 HD
ENDBRANCH  16   2
BRANCH  13  21
ATOM     21  C   UNL     1      11.265   3.052  -2.064  0.00  0.00    +0.165 C 
BRANCH  21   3
ATOM      3  O   UNL     1      10.128   2.737  -2.836  0.00  0.00    -0.394 OA
ATOM     39  H   UNL     1       9.920   1.801  -2.678  0.00  0.00    +0.209 HD
ENDBRANCH  21   3
ENDBRANCH  13  21
BRANCH  14  24
ATOM     24  C   UNL     1      14.491   5.776   2.223  0.00  0.00    +0.106 C 
BRANCH  24  25
ATOM      4  O   UNL     1      15.365   8.028   2.086  0.00  0.00    -0.276 OA
ATOM      8  N   UNL     1      14.676   7.190   4.140  0.00  0.00    -0.314 N 
ATOM     25  C   UNL     1      14.898   7.124   2.772  0.00  0.00    +0.214 C 
ATOM     40  H   UNL     1      14.276   6.387   4.618  0.00  0.00    +0.149 HD
BRANCH   8  29
ATOM     29  C   UNL     1      14.974   8.360   4.934  0.00  0.00    +0.119 C 
BRANCH  29  33
ATOM     33  C   UNL     1      16.196   8.133   5.812  0.00  0.00    +0.103 C 
BRANCH  33  10
ATOM      6  O   UNL     1      18.860  10.063   3.206  0.00  0.00    -0.377 OA
ATOM     10  N   UNL     1      17.333   8.900   5.307  0.00  0.00    -0.297 NA
ATOM     34  C   UNL     1      16.877  10.107   4.604  0.00  0.00    +0.112 C 
ATOM     35  C   UNL     1      18.161   8.078   4.414  0.00  0.00    +0.112 C 
ATOM     36  C   UNL     1      18.080  10.883   4.076  0.00  0.00    +0.175 C 
ATOM     37  C   UNL     1      19.334   8.903   3.892  0.00  0.00    +0.175 C 
ENDBRANCH  33  10
ENDBRANCH  29  33
ENDBRANCH   8  29
ENDBRANCH  24  25
ENDBRANCH  14  24
TORSDOF 9
ENDMDL
