MODEL 1
REMARK VINA RESULT:      -8.5      0.000      0.000
REMARK  Name = 11913377
REMARK  5 active torsions:
REMARK  status: ('A' for Active; 'I' for Inactive)
REMARK    1  A    between atoms: N_4  and  C_10
REMARK    2  A    between atoms: N_4  and  C_14
REMARK    3  A    between atoms: N_5  and  C_11
REMARK    4  A    between atoms: C_14  and  C_16
REMARK    5  A    between atoms: C_19  and  C_25
REMARK                            x       y       z     vdW  Elec       q    Type
REMARK                         _______ _______ _______ _____ _____    ______ ____
ROOT
ATOM      2  O   UNL     1      11.725   6.891  20.248  0.00  0.00    -0.370 OA
ATOM      3  O   UNL     1      13.053   9.694  20.634  0.00  0.00    -0.370 OA
ATOM      8  C   UNL     1      13.430   8.361  21.019  0.00  0.00    +0.168 C 
ATOM      9  C   UNL     1      12.161   7.626  21.403  0.00  0.00    +0.171 C 
ATOM     10  C   UNL     1      13.950   7.599  19.824  0.00  0.00    +0.111 C 
ATOM     11  C   UNL     1      11.178   8.728  21.724  0.00  0.00    +0.130 C 
ATOM     12  C   UNL     1      12.680   7.063  19.192  0.00  0.00    +0.181 C 
ATOM     13  C   UNL     1      11.640   9.859  20.824  0.00  0.00    +0.185 C 
ENDROOT
BRANCH  11   5
ATOM      5  N   UNL     1      11.302   9.113  23.113  0.00  0.00    -0.306 N 
ATOM      6  N   UNL     1      10.895  11.375  22.637  0.00  0.00    -0.214 NA
ATOM      7  N   UNL     1      11.300  10.640  24.895  0.00  0.00    -0.223 NA
ATOM     15  C   UNL     1      11.161  10.415  23.562  0.00  0.00    +0.216 A 
ATOM     19  C   UNL     1      10.764  12.632  23.108  0.00  0.00    +0.076 A 
ATOM     20  C   UNL     1      11.157  11.920  25.298  0.00  0.00    +0.116 A 
ATOM     23  C   UNL     1      10.886  12.967  24.442  0.00  0.00    +0.048 A 
ATOM     32  H   UNL     1      11.447   8.399  23.818  0.00  0.00    +0.149 HD
BRANCH  19  25
ATOM      1  F   UNL     1      11.908  14.951  19.029  0.00  0.00    -0.205 F 
ATOM     25  C   UNL     1      10.481  13.635  22.110  0.00  0.00    +0.003 A 
ATOM     26  C   UNL     1      11.348  13.813  21.029  0.00  0.00    +0.048 A 
ATOM     27  C   UNL     1       9.340  14.433  22.222  0.00  0.00    +0.010 A 
ATOM     28  C   UNL     1      11.075  14.783  20.065  0.00  0.00    +0.124 A 
ATOM     29  C   UNL     1       9.066  15.403  21.257  0.00  0.00    +0.003 A 
ATOM     30  C   UNL     1       9.934  15.578  20.179  0.00  0.00    +0.038 A 
ENDBRANCH  19  25
ENDBRANCH  11   5
BRANCH  10   4
ATOM      4  N   UNL     1      14.794   6.470  20.281  0.00  0.00    -0.305 NA
ATOM     31  H   UNL     1      14.242   5.613  20.246  0.00  0.00    +0.123 HD
BRANCH   4  14
ATOM     14  C   UNL     1      15.968   6.327  19.435  0.00  0.00    +0.116 C 
BRANCH  14  16
ATOM     16  C   UNL     1      17.229   6.730  20.152  0.00  0.00    -0.034 A 
ATOM     17  C   UNL     1      17.244   7.895  20.905  0.00  0.00    +0.005 A 
ATOM     18  C   UNL     1      18.360   5.931  20.048  0.00  0.00    +0.005 A 
ATOM     21  C   UNL     1      18.412   8.269  21.570  0.00  0.00    +0.000 A 
ATOM     22  C   UNL     1      19.528   6.305  20.711  0.00  0.00    +0.000 A 
ATOM     24  C   UNL     1      19.555   7.474  21.473  0.00  0.00    +0.000 A 
ENDBRANCH  14  16
ENDBRANCH   4  14
ENDBRANCH  10   4
TORSDOF 5
ENDMDL
MODEL 2
REMARK VINA RESULT:      -8.3     27.536     29.969
REMARK  Name = 11913377
REMARK  5 active torsions:
REMARK  status: ('A' for Active; 'I' for Inactive)
REMARK    1  A    between atoms: N_4  and  C_10
REMARK    2  A    between atoms: N_4  and  C_14
REMARK    3  A    between atoms: N_5  and  C_11
REMARK    4  A    between atoms: C_14  and  C_16
REMARK    5  A    between atoms: C_19  and  C_25
REMARK                            x       y       z     vdW  Elec       q    Type
REMARK                         _______ _______ _______ _____ _____    ______ ____
ROOT
ATOM      2  O   UNL     1      -2.748 -12.846  12.820  0.00  0.00    -0.370 OA
ATOM      3  O   UNL     1      -1.673  -9.921  13.075  0.00  0.00    -0.370 OA
ATOM      8  C   UNL     1      -2.670 -10.673  13.788  0.00  0.00    +0.168 C 
ATOM      9  C   UNL     1      -3.379 -11.555  12.778  0.00  0.00    +0.171 C 
ATOM     10  C   UNL     1      -2.012 -11.649  14.733  0.00  0.00    +0.111 C 
ATOM     11  C   UNL     1      -3.112 -10.885  11.450  0.00  0.00    +0.130 C 
ATOM     12  C   UNL     1      -1.741 -12.846  13.842  0.00  0.00    +0.181 C 
ATOM     13  C   UNL     1      -1.765 -10.224  11.675  0.00  0.00    +0.185 C 
ENDROOT
BRANCH  11   5
ATOM      5  N   UNL     1      -4.122  -9.882  11.190  0.00  0.00    -0.306 N 
ATOM      6  N   UNL     1      -4.484 -10.656   9.004  0.00  0.00    -0.214 NA
ATOM      7  N   UNL     1      -5.725  -8.784   9.875  0.00  0.00    -0.223 NA
ATOM     15  C   UNL     1      -4.798  -9.770   9.987  0.00  0.00    +0.216 A 
ATOM     19  C   UNL     1      -5.160 -10.519   7.846  0.00  0.00    +0.076 A 
ATOM     20  C   UNL     1      -6.365  -8.703   8.689  0.00  0.00    +0.116 A 
ATOM     23  C   UNL     1      -6.121  -9.552   7.628  0.00  0.00    +0.048 A 
ATOM     32  H   UNL     1      -4.402  -9.251  11.932  0.00  0.00    +0.149 HD
BRANCH  19  25
ATOM      1  F   UNL     1      -5.250 -11.943   3.232  0.00  0.00    -0.205 F 
ATOM     25  C   UNL     1      -4.813 -11.469   6.815  0.00  0.00    +0.003 A 
ATOM     26  C   UNL     1      -5.207 -11.244   5.494  0.00  0.00    +0.048 A 
ATOM     27  C   UNL     1      -4.083 -12.615   7.136  0.00  0.00    +0.010 A 
ATOM     28  C   UNL     1      -4.872 -12.161   4.498  0.00  0.00    +0.124 A 
ATOM     29  C   UNL     1      -3.748 -13.533   6.140  0.00  0.00    +0.003 A 
ATOM     30  C   UNL     1      -4.143 -13.306   4.821  0.00  0.00    +0.038 A 
ENDBRANCH  19  25
ENDBRANCH  11   5
BRANCH  10   4
ATOM      4  N   UNL     1      -2.968 -12.030  15.801  0.00  0.00    -0.305 NA
ATOM     31  H   UNL     1      -2.661 -12.911  16.215  0.00  0.00    +0.123 HD
BRANCH   4  14
ATOM     14  C   UNL     1      -3.028 -11.004  16.829  0.00  0.00    +0.116 C 
BRANCH  14  16
ATOM     16  C   UNL     1      -4.447 -10.655  17.192  0.00  0.00    -0.034 A 
ATOM     17  C   UNL     1      -4.963 -11.072  18.411  0.00  0.00    +0.005 A 
ATOM     18  C   UNL     1      -5.219  -9.922  16.301  0.00  0.00    +0.005 A 
ATOM     21  C   UNL     1      -6.277 -10.748  18.747  0.00  0.00    +0.000 A 
ATOM     22  C   UNL     1      -6.533  -9.598  16.637  0.00  0.00    +0.000 A 
ATOM     24  C   UNL     1      -7.063 -10.012  17.860  0.00  0.00    +0.000 A 
ENDBRANCH  14  16
ENDBRANCH   4  14
ENDBRANCH  10   4
TORSDOF 5
ENDMDL
MODEL 3
REMARK VINA RESULT:      -8.3     26.845     29.803
REMARK  Name = 11913377
REMARK  5 active torsions:
REMARK  status: ('A' for Active; 'I' for Inactive)
REMARK    1  A    between atoms: N_4  and  C_10
REMARK    2  A    between atoms: N_4  and  C_14
REMARK    3  A    between atoms: N_5  and  C_11
REMARK    4  A    between atoms: C_14  and  C_16
REMARK    5  A    between atoms: C_19  and  C_25
REMARK                            x       y       z     vdW  Elec       q    Type
REMARK                         _______ _______ _______ _____ _____    ______ ____
ROOT
ATOM      2  O   UNL     1      -6.373 -11.103  10.064  0.00  0.00    -0.370 OA
ATOM      3  O   UNL     1      -5.473  -8.395  11.341  0.00  0.00    -0.370 OA
ATOM      8  C   UNL     1      -5.087  -9.104  10.151  0.00  0.00    +0.168 C 
ATOM      9  C   UNL     1      -5.099 -10.583  10.481  0.00  0.00    +0.171 C 
ATOM     10  C   UNL     1      -6.146  -8.953   9.086  0.00  0.00    +0.111 C 
ATOM     11  C   UNL     1      -4.983 -10.627  11.986  0.00  0.00    +0.130 C 
ATOM     12  C   UNL     1      -7.125 -10.059   9.431  0.00  0.00    +0.181 C 
ATOM     13  C   UNL     1      -5.655  -9.335  12.411  0.00  0.00    +0.185 C 
ENDROOT
BRANCH  11   5
ATOM      5  N   UNL     1      -3.589 -10.617  12.376  0.00  0.00    -0.306 N 
ATOM      6  N   UNL     1      -4.114 -10.616  14.663  0.00  0.00    -0.214 NA
ATOM      7  N   UNL     1      -1.823 -10.604  13.920  0.00  0.00    -0.223 NA
ATOM     15  C   UNL     1      -3.162 -10.612  13.692  0.00  0.00    +0.216 A 
ATOM     19  C   UNL     1      -3.664 -10.612  15.934  0.00  0.00    +0.076 A 
ATOM     20  C   UNL     1      -1.441 -10.600  15.214  0.00  0.00    +0.116 A 
ATOM     23  C   UNL     1      -2.326 -10.604  16.273  0.00  0.00    +0.048 A 
ATOM     32  H   UNL     1      -2.871 -10.667  11.662  0.00  0.00    +0.149 HD
BRANCH  19  25
ATOM      1  F   UNL     1      -8.029  -9.278  17.512  0.00  0.00    -0.205 F 
ATOM     25  C   UNL     1      -4.690 -10.617  16.949  0.00  0.00    +0.003 A 
ATOM     26  C   UNL     1      -5.889  -9.931  16.737  0.00  0.00    +0.048 A 
ATOM     27  C   UNL     1      -4.488 -11.307  18.147  0.00  0.00    +0.010 A 
ATOM     28  C   UNL     1      -6.881  -9.936  17.718  0.00  0.00    +0.124 A 
ATOM     29  C   UNL     1      -5.480 -11.312  19.127  0.00  0.00    +0.003 A 
ATOM     30  C   UNL     1      -6.677 -10.626  18.913  0.00  0.00    +0.038 A 
ENDBRANCH  19  25
ENDBRANCH  11   5
BRANCH  10   4
ATOM      4  N   UNL     1      -5.552  -9.212   7.752  0.00  0.00    -0.305 NA
ATOM     31  H   UNL     1      -4.865  -9.960   7.839  0.00  0.00    +0.123 HD
BRANCH   4  14
ATOM     14  C   UNL     1      -6.577  -9.601   6.798  0.00  0.00    +0.116 C 
BRANCH  14  16
ATOM     16  C   UNL     1      -6.052 -10.573   5.775  0.00  0.00    -0.034 A 
ATOM     17  C   UNL     1      -4.871 -11.257   6.026  0.00  0.00    +0.005 A 
ATOM     18  C   UNL     1      -6.756 -10.770   4.594  0.00  0.00    +0.005 A 
ATOM     21  C   UNL     1      -4.384 -12.158   5.078  0.00  0.00    +0.000 A 
ATOM     22  C   UNL     1      -6.269 -11.670   3.647  0.00  0.00    +0.000 A 
ATOM     24  C   UNL     1      -5.083 -12.364   3.888  0.00  0.00    +0.000 A 
ENDBRANCH  14  16
ENDBRANCH   4  14
ENDBRANCH  10   4
TORSDOF 5
ENDMDL
MODEL 4
REMARK VINA RESULT:      -8.0      2.833      5.463
REMARK  Name = 11913377
REMARK  5 active torsions:
REMARK  status: ('A' for Active; 'I' for Inactive)
REMARK    1  A    between atoms: N_4  and  C_10
REMARK    2  A    between atoms: N_4  and  C_14
REMARK    3  A    between atoms: N_5  and  C_11
REMARK    4  A    between atoms: C_14  and  C_16
REMARK    5  A    between atoms: C_19  and  C_25
REMARK                            x       y       z     vdW  Elec       q    Type
REMARK                         _______ _______ _______ _____ _____    ______ ____
ROOT
ATOM      2  O   UNL     1      12.614  13.191  21.296  0.00  0.00    -0.370 OA
ATOM      3  O   UNL     1      12.065  12.898  24.359  0.00  0.00    -0.370 OA
ATOM      8  C   UNL     1      13.037  12.321  23.469  0.00  0.00    +0.168 C 
ATOM      9  C   UNL     1      12.343  12.065  22.146  0.00  0.00    +0.171 C 
ATOM     10  C   UNL     1      14.105  13.334  23.136  0.00  0.00    +0.111 C 
ATOM     11  C   UNL     1      10.875  12.020  22.502  0.00  0.00    +0.130 C 
ATOM     12  C   UNL     1      13.493  14.097  21.978  0.00  0.00    +0.181 C 
ATOM     13  C   UNL     1      10.792  12.950  23.698  0.00  0.00    +0.185 C 
ENDROOT
BRANCH  11   5
ATOM      5  N   UNL     1      10.500  10.677  22.887  0.00  0.00    -0.306 N 
ATOM      6  N   UNL     1      11.546   9.729  21.012  0.00  0.00    -0.214 NA
ATOM      7  N   UNL     1      10.417   8.346  22.630  0.00  0.00    -0.223 NA
ATOM     15  C   UNL     1      10.831   9.550  22.155  0.00  0.00    +0.216 A 
ATOM     19  C   UNL     1      11.852   8.611  20.323  0.00  0.00    +0.076 A 
ATOM     20  C   UNL     1      10.757   7.268  21.892  0.00  0.00    +0.116 A 
ATOM     23  C   UNL     1      11.481   7.341  20.718  0.00  0.00    +0.048 A 
ATOM     32  H   UNL     1      10.013  10.526  23.763  0.00  0.00    +0.149 HD
BRANCH  19  25
ATOM      1  F   UNL     1      14.129  11.555  17.246  0.00  0.00    -0.205 F 
ATOM     25  C   UNL     1      12.612   8.822  19.114  0.00  0.00    +0.003 A 
ATOM     26  C   UNL     1      13.012  10.112  18.755  0.00  0.00    +0.048 A 
ATOM     27  C   UNL     1      12.950   7.740  18.299  0.00  0.00    +0.010 A 
ATOM     28  C   UNL     1      13.746  10.317  17.588  0.00  0.00    +0.124 A 
ATOM     29  C   UNL     1      13.684   7.945  17.132  0.00  0.00    +0.003 A 
ATOM     30  C   UNL     1      14.082   9.234  16.775  0.00  0.00    +0.038 A 
ENDBRANCH  19  25
ENDBRANCH  11   5
BRANCH  10   4
ATOM      4  N   UNL     1      15.330  12.633  22.679  0.00  0.00    -0.305 NA
ATOM     31  H   UNL     1      16.144  13.174  22.971  0.00  0.00    +0.123 HD
BRANCH   4  14
ATOM     14  C   UNL     1      15.404  11.297  23.247  0.00  0.00    +0.116 C 
BRANCH  14  16
ATOM     16  C   UNL     1      15.614  10.248  22.188  0.00  0.00    -0.034 A 
ATOM     17  C   UNL     1      16.342  10.562  21.050  0.00  0.00    +0.005 A 
ATOM     18  C   UNL     1      15.077   8.980  22.366  0.00  0.00    +0.005 A 
ATOM     21  C   UNL     1      16.538   9.589  20.069  0.00  0.00    +0.000 A 
ATOM     22  C   UNL     1      15.272   8.008  21.386  0.00  0.00    +0.000 A 
ATOM     24  C   UNL     1      16.002   8.312  20.237  0.00  0.00    +0.000 A 
ENDBRANCH  14  16
ENDBRANCH   4  14
ENDBRANCH  10   4
TORSDOF 5
ENDMDL
MODEL 5
REMARK VINA RESULT:      -8.0     21.467     25.535
REMARK  Name = 11913377
REMARK  5 active torsions:
REMARK  status: ('A' for Active; 'I' for Inactive)
REMARK    1  A    between atoms: N_4  and  C_10
REMARK    2  A    between atoms: N_4  and  C_14
REMARK    3  A    between atoms: N_5  and  C_11
REMARK    4  A    between atoms: C_14  and  C_16
REMARK    5  A    between atoms: C_19  and  C_25
REMARK                            x       y       z     vdW  Elec       q    Type
REMARK                         _______ _______ _______ _____ _____    ______ ____
ROOT
ATOM      2  O   UNL     1      -7.041   8.834  36.695  0.00  0.00    -0.370 OA
ATOM      3  O   UNL     1      -6.708  11.942  36.721  0.00  0.00    -0.370 OA
ATOM      8  C   UNL     1      -6.804  10.967  35.668  0.00  0.00    +0.168 C 
ATOM      9  C   UNL     1      -6.066   9.727  36.131  0.00  0.00    +0.171 C 
ATOM     10  C   UNL     1      -8.233  10.508  35.509  0.00  0.00    +0.111 C 
ATOM     11  C   UNL     1      -5.135  10.232  37.209  0.00  0.00    +0.130 C 
ATOM     12  C   UNL     1      -8.347   9.407  36.545  0.00  0.00    +0.181 C 
ATOM     13  C   UNL     1      -5.895  11.414  37.779  0.00  0.00    +0.185 C 
ENDROOT
BRANCH  11   5
ATOM      5  N   UNL     1      -3.890  10.676  36.620  0.00  0.00    -0.306 N 
ATOM      6  N   UNL     1      -2.660   8.972  37.664  0.00  0.00    -0.214 NA
ATOM      7  N   UNL     1      -1.579  10.574  36.225  0.00  0.00    -0.223 NA
ATOM     15  C   UNL     1      -2.673  10.056  36.842  0.00  0.00    +0.216 A 
ATOM     19  C   UNL     1      -1.458   8.392  37.859  0.00  0.00    +0.076 A 
ATOM     20  C   UNL     1      -0.409   9.946  36.464  0.00  0.00    +0.116 A 
ATOM     23  C   UNL     1      -0.288   8.839  37.281  0.00  0.00    +0.048 A 
ATOM     32  H   UNL     1      -3.896  11.449  35.964  0.00  0.00    +0.149 HD
BRANCH  19  25
ATOM      1  F   UNL     1       0.609   4.357  39.523  0.00  0.00    -0.205 F 
ATOM     25  C   UNL     1      -1.466   7.243  38.733  0.00  0.00    +0.003 A 
ATOM     26  C   UNL     1      -0.404   6.336  38.706  0.00  0.00    +0.048 A 
ATOM     27  C   UNL     1      -2.534   7.034  39.608  0.00  0.00    +0.010 A 
ATOM     28  C   UNL     1      -0.410   5.225  39.550  0.00  0.00    +0.124 A 
ATOM     29  C   UNL     1      -2.541   5.924  40.452  0.00  0.00    +0.003 A 
ATOM     30  C   UNL     1      -1.479   5.019  40.423  0.00  0.00    +0.038 A 
ENDBRANCH  19  25
ENDBRANCH  11   5
BRANCH  10   4
ATOM      4  N   UNL     1      -8.427   9.939  34.154  0.00  0.00    -0.305 NA
ATOM     31  H   UNL     1      -8.621   8.941  34.243  0.00  0.00    +0.123 HD
BRANCH   4  14
ATOM     14  C   UNL     1      -9.535  10.591  33.474  0.00  0.00    +0.116 C 
BRANCH  14  16
ATOM     16  C   UNL     1     -10.732   9.686  33.356  0.00  0.00    -0.034 A 
ATOM     17  C   UNL     1     -11.026   9.098  32.134  0.00  0.00    +0.005 A 
ATOM     18  C   UNL     1     -11.525   9.453  34.472  0.00  0.00    +0.005 A 
ATOM     21  C   UNL     1     -12.136   8.259  32.025  0.00  0.00    +0.000 A 
ATOM     22  C   UNL     1     -12.634   8.615  34.363  0.00  0.00    +0.000 A 
ATOM     24  C   UNL     1     -12.940   8.018  33.139  0.00  0.00    +0.000 A 
ENDBRANCH  14  16
ENDBRANCH   4  14
ENDBRANCH  10   4
TORSDOF 5
ENDMDL
MODEL 6
REMARK VINA RESULT:      -7.8     16.522     19.025
REMARK  Name = 11913377
REMARK  5 active torsions:
REMARK  status: ('A' for Active; 'I' for Inactive)
REMARK    1  A    between atoms: N_4  and  C_10
REMARK    2  A    between atoms: N_4  and  C_14
REMARK    3  A    between atoms: N_5  and  C_11
REMARK    4  A    between atoms: C_14  and  C_16
REMARK    5  A    between atoms: C_19  and  C_25
REMARK                            x       y       z     vdW  Elec       q    Type
REMARK                         _______ _______ _______ _____ _____    ______ ____
ROOT
ATOM      2  O   UNL     1      11.955   3.667   2.119  0.00  0.00    -0.370 OA
ATOM      3  O   UNL     1      12.639   5.052  -0.599  0.00  0.00    -0.370 OA
ATOM      8  C   UNL     1      12.966   5.347   0.771  0.00  0.00    +0.168 C 
ATOM      9  C   UNL     1      11.753   4.996   1.610  0.00  0.00    +0.171 C 
ATOM     10  C   UNL     1      14.040   4.409   1.264  0.00  0.00    +0.111 C 
ATOM     11  C   UNL     1      10.606   5.012   0.627  0.00  0.00    +0.130 C 
ATOM     12  C   UNL     1      13.247   3.197   1.710  0.00  0.00    +0.181 C 
ATOM     13  C   UNL     1      11.276   4.610  -0.674  0.00  0.00    +0.185 C 
ENDROOT
BRANCH  11   5
ATOM      5  N   UNL     1      10.066   6.350   0.518  0.00  0.00    -0.306 N 
ATOM      6  N   UNL     1       9.681   6.501   2.829  0.00  0.00    -0.214 NA
ATOM      7  N   UNL     1       9.129   8.330   1.360  0.00  0.00    -0.223 NA
ATOM     15  C   UNL     1       9.612   7.083   1.601  0.00  0.00    +0.216 A 
ATOM     19  C   UNL     1       9.231   7.243   3.861  0.00  0.00    +0.076 A 
ATOM     20  C   UNL     1       8.695   9.016   2.438  0.00  0.00    +0.116 A 
ATOM     23  C   UNL     1       8.722   8.519   3.725  0.00  0.00    +0.048 A 
ATOM     32  H   UNL     1      10.058   6.813  -0.383  0.00  0.00    +0.149 HD
BRANCH  19  25
ATOM      1  F   UNL     1       8.664   7.372   8.655  0.00  0.00    -0.205 F 
ATOM     25  C   UNL     1       9.314   6.608   5.155  0.00  0.00    +0.003 A 
ATOM     26  C   UNL     1       8.942   7.310   6.304  0.00  0.00    +0.048 A 
ATOM     27  C   UNL     1       9.768   5.292   5.263  0.00  0.00    +0.010 A 
ATOM     28  C   UNL     1       9.022   6.697   7.555  0.00  0.00    +0.124 A 
ATOM     29  C   UNL     1       9.848   4.679   6.513  0.00  0.00    +0.003 A 
ATOM     30  C   UNL     1       9.476   5.382   7.660  0.00  0.00    +0.038 A 
ENDBRANCH  19  25
ENDBRANCH  11   5
BRANCH  10   4
ATOM      4  N   UNL     1      14.729   5.011   2.432  0.00  0.00    -0.305 NA
ATOM     31  H   UNL     1      15.704   4.709   2.427  0.00  0.00    +0.123 HD
BRANCH   4  14
ATOM     14  C   UNL     1      14.669   6.462   2.375  0.00  0.00    +0.116 C 
BRANCH  14  16
ATOM     16  C   UNL     1      14.390   7.066   3.726  0.00  0.00    -0.034 A 
ATOM     17  C   UNL     1      13.077   7.237   4.139  0.00  0.00    +0.005 A 
ATOM     18  C   UNL     1      15.451   7.444   4.538  0.00  0.00    +0.005 A 
ATOM     21  C   UNL     1      12.818   7.796   5.391  0.00  0.00    +0.000 A 
ATOM     22  C   UNL     1      15.192   8.003   5.789  0.00  0.00    +0.000 A 
ATOM     24  C   UNL     1      13.875   8.179   6.216  0.00  0.00    +0.000 A 
ENDBRANCH  14  16
ENDBRANCH   4  14
ENDBRANCH  10   4
TORSDOF 5
ENDMDL
MODEL 7
REMARK VINA RESULT:      -7.8      3.714      7.809
REMARK  Name = 11913377
REMARK  5 active torsions:
REMARK  status: ('A' for Active; 'I' for Inactive)
REMARK    1  A    between atoms: N_4  and  C_10
REMARK    2  A    between atoms: N_4  and  C_14
REMARK    3  A    between atoms: N_5  and  C_11
REMARK    4  A    between atoms: C_14  and  C_16
REMARK    5  A    between atoms: C_19  and  C_25
REMARK                            x       y       z     vdW  Elec       q    Type
REMARK                         _______ _______ _______ _____ _____    ______ ____
ROOT
ATOM      2  O   UNL     1      13.712  12.429  23.590  0.00  0.00    -0.370 OA
ATOM      3  O   UNL     1      10.686  13.198  23.452  0.00  0.00    -0.370 OA
ATOM      8  C   UNL     1      11.492  12.530  24.439  0.00  0.00    +0.168 C 
ATOM      9  C   UNL     1      12.496  11.671  23.696  0.00  0.00    +0.171 C 
ATOM     10  C   UNL     1      12.341  13.532  25.183  0.00  0.00    +0.111 C 
ATOM     11  C   UNL     1      11.879  11.479  22.330  0.00  0.00    +0.130 C 
ATOM     12  C   UNL     1      13.553  13.675  24.283  0.00  0.00    +0.181 C 
ATOM     13  C   UNL     1      11.075  12.752  22.145  0.00  0.00    +0.185 C 
ENDROOT
BRANCH  11   5
ATOM      5  N   UNL     1      10.999  10.330  22.342  0.00  0.00    -0.306 N 
ATOM      6  N   UNL     1      12.705   8.877  21.645  0.00  0.00    -0.214 NA
ATOM      7  N   UNL     1      10.477   8.060  22.060  0.00  0.00    -0.223 NA
ATOM     15  C   UNL     1      11.405   9.051  22.006  0.00  0.00    +0.216 A 
ATOM     19  C   UNL     1      13.068   7.619  21.324  0.00  0.00    +0.076 A 
ATOM     20  C   UNL     1      10.907   6.825  21.726  0.00  0.00    +0.116 A 
ATOM     23  C   UNL     1      12.204   6.542  21.347  0.00  0.00    +0.048 A 
ATOM     32  H   UNL     1      10.042  10.438  22.660  0.00  0.00    +0.149 HD
BRANCH  19  25
ATOM      1  F   UNL     1      16.437   5.824  18.367  0.00  0.00    -0.205 F 
ATOM     25  C   UNL     1      14.451   7.456  20.945  0.00  0.00    +0.003 A 
ATOM     26  C   UNL     1      14.784   6.704  19.816  0.00  0.00    +0.048 A 
ATOM     27  C   UNL     1      15.461   8.049  21.706  0.00  0.00    +0.010 A 
ATOM     28  C   UNL     1      16.121   6.546  19.449  0.00  0.00    +0.124 A 
ATOM     29  C   UNL     1      16.798   7.892  21.339  0.00  0.00    +0.003 A 
ATOM     30  C   UNL     1      17.128   7.139  20.211  0.00  0.00    +0.038 A 
ENDBRANCH  19  25
ENDBRANCH  11   5
BRANCH  10   4
ATOM      4  N   UNL     1      12.755  12.963  26.489  0.00  0.00    -0.305 NA
ATOM     31  H   UNL     1      13.235  12.078  26.322  0.00  0.00    +0.123 HD
BRANCH   4  14
ATOM     14  C   UNL     1      13.643  13.874  27.191  0.00  0.00    +0.116 C 
BRANCH  14  16
ATOM     16  C   UNL     1      14.912  13.194  27.630  0.00  0.00    -0.034 A 
ATOM     17  C   UNL     1      15.150  11.880  27.251  0.00  0.00    +0.005 A 
ATOM     18  C   UNL     1      15.827  13.890  28.409  0.00  0.00    +0.005 A 
ATOM     21  C   UNL     1      16.326  11.250  27.658  0.00  0.00    +0.000 A 
ATOM     22  C   UNL     1      17.002  13.260  28.816  0.00  0.00    +0.000 A 
ATOM     24  C   UNL     1      17.252  11.939  28.441  0.00  0.00    +0.000 A 
ENDBRANCH  14  16
ENDBRANCH   4  14
ENDBRANCH  10   4
TORSDOF 5
ENDMDL
MODEL 8
REMARK VINA RESULT:      -7.8     24.486     27.096
REMARK  Name = 11913377
REMARK  5 active torsions:
REMARK  status: ('A' for Active; 'I' for Inactive)
REMARK    1  A    between atoms: N_4  and  C_10
REMARK    2  A    between atoms: N_4  and  C_14
REMARK    3  A    between atoms: N_5  and  C_11
REMARK    4  A    between atoms: C_14  and  C_16
REMARK    5  A    between atoms: C_19  and  C_25
REMARK                            x       y       z     vdW  Elec       q    Type
REMARK                         _______ _______ _______ _____ _____    ______ ____
ROOT
ATOM      2  O   UNL     1     -14.483  12.167  22.372  0.00  0.00    -0.370 OA
ATOM      3  O   UNL     1     -16.901  10.853  23.855  0.00  0.00    -0.370 OA
ATOM      8  C   UNL     1     -15.543  11.135  24.236  0.00  0.00    +0.168 C 
ATOM      9  C   UNL     1     -14.673  10.897  23.018  0.00  0.00    +0.171 C 
ATOM     10  C   UNL     1     -15.377  12.607  24.526  0.00  0.00    +0.111 C 
ATOM     11  C   UNL     1     -15.502   9.985  22.144  0.00  0.00    +0.130 C 
ATOM     12  C   UNL     1     -15.117  13.191  23.151  0.00  0.00    +0.181 C 
ATOM     13  C   UNL     1     -16.923  10.384  22.499  0.00  0.00    +0.185 C 
ENDROOT
BRANCH  11   5
ATOM      5  N   UNL     1     -15.267   8.604  22.505  0.00  0.00    -0.306 N 
ATOM      6  N   UNL     1     -13.441   8.419  21.041  0.00  0.00    -0.214 NA
ATOM      7  N   UNL     1     -14.140   6.549  22.391  0.00  0.00    -0.223 NA
ATOM     15  C   UNL     1     -14.252   7.834  21.963  0.00  0.00    +0.216 A 
ATOM     19  C   UNL     1     -12.463   7.640  20.535  0.00  0.00    +0.076 A 
ATOM     20  C   UNL     1     -13.140   5.827  21.843  0.00  0.00    +0.116 A 
ATOM     23  C   UNL     1     -12.263   6.325  20.901  0.00  0.00    +0.048 A 
ATOM     32  H   UNL     1     -15.831   8.174  23.229  0.00  0.00    +0.149 HD
BRANCH  19  25
ATOM      1  F   UNL     1     -10.220   7.630  16.258  0.00  0.00    -0.205 F 
ATOM     25  C   UNL     1     -11.613   8.280  19.559  0.00  0.00    +0.003 A 
ATOM     26  C   UNL     1     -11.320   7.634  18.355  0.00  0.00    +0.048 A 
ATOM     27  C   UNL     1     -11.080   9.545  19.815  0.00  0.00    +0.010 A 
ATOM     28  C   UNL     1     -10.499   8.251  17.412  0.00  0.00    +0.124 A 
ATOM     29  C   UNL     1     -10.258  10.162  18.872  0.00  0.00    +0.003 A 
ATOM     30  C   UNL     1      -9.967   9.515  17.670  0.00  0.00    +0.038 A 
ENDBRANCH  19  25
ENDBRANCH  11   5
BRANCH  10   4
ATOM      4  N   UNL     1     -14.188  12.815  25.388  0.00  0.00    -0.305 NA
ATOM     31  H   UNL     1     -14.169  13.789  25.689  0.00  0.00    +0.123 HD
BRANCH   4  14
ATOM     14  C   UNL     1     -14.238  11.947  26.553  0.00  0.00    +0.116 C 
BRANCH  14  16
ATOM     16  C   UNL     1     -12.926  11.248  26.790  0.00  0.00    -0.034 A 
ATOM     17  C   UNL     1     -11.971  11.229  25.783  0.00  0.00    +0.005 A 
ATOM     18  C   UNL     1     -12.690  10.632  28.011  0.00  0.00    +0.005 A 
ATOM     21  C   UNL     1     -10.755  10.582  26.002  0.00  0.00    +0.000 A 
ATOM     22  C   UNL     1     -11.474   9.985  28.230  0.00  0.00    +0.000 A 
ATOM     24  C   UNL     1     -10.506   9.959  27.225  0.00  0.00    +0.000 A 
ENDBRANCH  14  16
ENDBRANCH   4  14
ENDBRANCH  10   4
TORSDOF 5
ENDMDL
MODEL 9
REMARK VINA RESULT:      -7.8     26.874     30.093
REMARK  Name = 11913377
REMARK  5 active torsions:
REMARK  status: ('A' for Active; 'I' for Inactive)
REMARK    1  A    between atoms: N_4  and  C_10
REMARK    2  A    between atoms: N_4  and  C_14
REMARK    3  A    between atoms: N_5  and  C_11
REMARK    4  A    between atoms: C_14  and  C_16
REMARK    5  A    between atoms: C_19  and  C_25
REMARK                            x       y       z     vdW  Elec       q    Type
REMARK                         _______ _______ _______ _____ _____    ______ ____
ROOT
ATOM      2  O   UNL     1      -7.950 -10.723  15.055  0.00  0.00    -0.370 OA
ATOM      3  O   UNL     1      -7.225 -11.215  18.056  0.00  0.00    -0.370 OA
ATOM      8  C   UNL     1      -7.344 -10.030  17.249  0.00  0.00    +0.168 C 
ATOM      9  C   UNL     1      -6.819 -10.369  15.868  0.00  0.00    +0.171 C 
ATOM     10  C   UNL     1      -8.798  -9.698  17.020  0.00  0.00    +0.111 C 
ATOM     11  C   UNL     1      -5.938 -11.576  16.094  0.00  0.00    +0.130 C 
ATOM     12  C   UNL     1      -9.151 -10.556  15.821  0.00  0.00    +0.181 C 
ATOM     13  C   UNL     1      -6.591 -12.248  17.287  0.00  0.00    +0.185 C 
ENDROOT
BRANCH  11   5
ATOM      5  N   UNL     1      -4.596 -11.154  16.431  0.00  0.00    -0.306 N 
ATOM      6  N   UNL     1      -3.967 -10.974  14.177  0.00  0.00    -0.214 NA
ATOM      7  N   UNL     1      -2.405 -10.469  15.942  0.00  0.00    -0.223 NA
ATOM     15  C   UNL     1      -3.627 -10.856  15.489  0.00  0.00    +0.216 A 
ATOM     19  C   UNL     1      -2.999 -10.677  13.286  0.00  0.00    +0.076 A 
ATOM     20  C   UNL     1      -1.484 -10.187  14.997  0.00  0.00    +0.116 A 
ATOM     23  C   UNL     1      -1.727 -10.275  13.641  0.00  0.00    +0.048 A 
ATOM     32  H   UNL     1      -4.347 -11.011  17.404  0.00  0.00    +0.149 HD
BRANCH  19  25
ATOM      1  F   UNL     1      -3.877 -13.410   9.403  0.00  0.00    -0.205 F 
ATOM     25  C   UNL     1      -3.380 -10.808  11.900  0.00  0.00    +0.003 A 
ATOM     26  C   UNL     1      -3.446 -12.071  11.308  0.00  0.00    +0.048 A 
ATOM     27  C   UNL     1      -3.683  -9.672  11.146  0.00  0.00    +0.010 A 
ATOM     28  C   UNL     1      -3.814 -12.198   9.968  0.00  0.00    +0.124 A 
ATOM     29  C   UNL     1      -4.051  -9.798   9.807  0.00  0.00    +0.003 A 
ATOM     30  C   UNL     1      -4.117 -11.061   9.217  0.00  0.00    +0.038 A 
ENDBRANCH  19  25
ENDBRANCH  11   5
BRANCH  10   4
ATOM      4  N   UNL     1      -8.933  -8.265  16.665  0.00  0.00    -0.305 NA
ATOM     31  H   UNL     1      -9.120  -8.192  15.665  0.00  0.00    +0.123 HD
BRANCH   4  14
ATOM     14  C   UNL     1     -10.018  -7.648  17.410  0.00  0.00    +0.116 C 
BRANCH  14  16
ATOM     16  C   UNL     1     -11.151  -7.232  16.509  0.00  0.00    -0.034 A 
ATOM     17  C   UNL     1     -11.051  -6.050  15.788  0.00  0.00    +0.005 A 
ATOM     18  C   UNL     1     -12.279  -8.035  16.414  0.00  0.00    +0.005 A 
ATOM     21  C   UNL     1     -12.101  -5.665  14.954  0.00  0.00    +0.000 A 
ATOM     22  C   UNL     1     -13.328  -7.649  15.580  0.00  0.00    +0.000 A 
ATOM     24  C   UNL     1     -13.239  -6.464  14.850  0.00  0.00    +0.000 A 
ENDBRANCH  14  16
ENDBRANCH   4  14
ENDBRANCH  10   4
TORSDOF 5
ENDMDL
MODEL 10
REMARK VINA RESULT:      -7.7     15.643     17.898
REMARK  Name = 11913377
REMARK  5 active torsions:
REMARK  status: ('A' for Active; 'I' for Inactive)
REMARK    1  A    between atoms: N_4  and  C_10
REMARK    2  A    between atoms: N_4  and  C_14
REMARK    3  A    between atoms: N_5  and  C_11
REMARK    4  A    between atoms: C_14  and  C_16
REMARK    5  A    between atoms: C_19  and  C_25
REMARK                            x       y       z     vdW  Elec       q    Type
REMARK                         _______ _______ _______ _____ _____    ______ ____
ROOT
ATOM      2  O   UNL     1      14.010   9.260   4.217  0.00  0.00    -0.370 OA
ATOM      3  O   UNL     1      13.252  10.460   7.002  0.00  0.00    -0.370 OA
ATOM      8  C   UNL     1      14.121   9.391   6.590  0.00  0.00    +0.168 C 
ATOM      9  C   UNL     1      13.458   8.695   5.418  0.00  0.00    +0.171 C 
ATOM     10  C   UNL     1      15.399   9.950   6.013  0.00  0.00    +0.111 C 
ATOM     11  C   UNL     1      11.998   9.064   5.547  0.00  0.00    +0.130 C 
ATOM     12  C   UNL     1      15.026  10.210   4.567  0.00  0.00    +0.181 C 
ATOM     13  C   UNL     1      12.056  10.428   6.209  0.00  0.00    +0.185 C 
ENDROOT
BRANCH  11   5
ATOM      5  N   UNL     1      11.323   8.119   6.409  0.00  0.00    -0.306 N 
ATOM      6  N   UNL     1      11.043   6.566   4.672  0.00  0.00    -0.214 NA
ATOM      7  N   UNL     1      10.238   6.095   6.894  0.00  0.00    -0.223 NA
ATOM     15  C   UNL     1      10.854   6.889   5.979  0.00  0.00    +0.216 A 
ATOM     19  C   UNL     1      10.574   5.362   4.286  0.00  0.00    +0.076 A 
ATOM     20  C   UNL     1       9.793   4.904   6.441  0.00  0.00    +0.116 A 
ATOM     23  C   UNL     1       9.935   4.480   5.135  0.00  0.00    +0.048 A 
ATOM     32  H   UNL     1      11.224   8.326   7.396  0.00  0.00    +0.149 HD
BRANCH  19  25
ATOM      1  F   UNL     1      12.852   2.844   0.853  0.00  0.00    -0.205 F 
ATOM     25  C   UNL     1      10.785   5.037   2.896  0.00  0.00    +0.003 A 
ATOM     26  C   UNL     1      11.735   4.078   2.537  0.00  0.00    +0.048 A 
ATOM     27  C   UNL     1      10.041   5.681   1.904  0.00  0.00    +0.010 A 
ATOM     28  C   UNL     1      11.940   3.764   1.194  0.00  0.00    +0.124 A 
ATOM     29  C   UNL     1      10.246   5.366   0.561  0.00  0.00    +0.003 A 
ATOM     30  C   UNL     1      11.196   4.408   0.205  0.00  0.00    +0.038 A 
ENDBRANCH  19  25
ENDBRANCH  11   5
BRANCH  10   4
ATOM      4  N   UNL     1      16.466   8.922   6.076  0.00  0.00    -0.305 NA
ATOM     31  H   UNL     1      16.033   7.999   6.040  0.00  0.00    +0.123 HD
BRANCH   4  14
ATOM     14  C   UNL     1      17.390   9.069   4.963  0.00  0.00    +0.116 C 
BRANCH  14  16
ATOM     16  C   UNL     1      18.748   8.501   5.282  0.00  0.00    -0.034 A 
ATOM     17  C   UNL     1      19.286   8.686   6.548  0.00  0.00    +0.005 A 
ATOM     18  C   UNL     1      19.442   7.800   4.305  0.00  0.00    +0.005 A 
ATOM     21  C   UNL     1      20.543   8.160   6.844  0.00  0.00    +0.000 A 
ATOM     22  C   UNL     1      20.699   7.274   4.601  0.00  0.00    +0.000 A 
ATOM     24  C   UNL     1      21.251   7.454   5.870  0.00  0.00    +0.000 A 
ENDBRANCH  14  16
ENDBRANCH   4  14
ENDBRANCH  10   4
TORSDOF 5
ENDMDL
