MODEL 1
REMARK VINA RESULT:      -8.9      0.000      0.000
REMARK  Name = 26745096
REMARK  5 active torsions:
REMARK  status: ('A' for Active; 'I' for Inactive)
REMARK    1  A    between atoms: O_3  and  C_28
REMARK    2  A    between atoms: O_3  and  C_34
REMARK    3  A    between atoms: C_9  and  C_14
REMARK    4  A    between atoms: C_15  and  C_17
REMARK    5  A    between atoms: C_18  and  C_19
REMARK                            x       y       z     vdW  Elec       q    Type
REMARK                         _______ _______ _______ _____ _____    ______ ____
ROOT
ATOM      2  O   UNL     1      12.196   7.713  21.850  0.00  0.00    -0.270 OA
ATOM      4  N   UNL     1      13.177   8.670  19.948  0.00  0.00    -0.280 N 
ATOM      5  N   UNL     1      13.507  10.692  16.831  0.00  0.00    -0.347 N 
ATOM      6  N   UNL     1      12.815   8.828  15.811  0.00  0.00    -0.240 NA
ATOM      9  C   UNL     1      13.367   7.346  19.268  0.00  0.00    +0.171 C 
ATOM     10  C   UNL     1      12.707   7.335  17.855  0.00  0.00    +0.089 C 
ATOM     11  C   UNL     1      13.664   9.892  19.245  0.00  0.00    +0.163 C 
ATOM     12  C   UNL     1      12.963   8.613  17.152  0.00  0.00    +0.066 A 
ATOM     13  C   UNL     1      13.385   9.746  17.803  0.00  0.00    +0.056 A 
ATOM     15  C   UNL     1      12.610   8.694  21.233  0.00  0.00    +0.248 C 
ATOM     16  C   UNL     1      13.151  10.092  15.649  0.00  0.00    +0.197 A 
ATOM     35  H   UNL     1      13.802  11.653  16.951  0.00  0.00    +0.167 HD
ENDROOT
BRANCH  15  17
ATOM     17  C   UNL     1      12.509   9.988  21.925  0.00  0.00    +0.037 A 
ATOM     20  C   UNL     1      11.346  10.747  21.817  0.00  0.00    +0.016 A 
ATOM     21  C   UNL     1      13.579  10.454  22.689  0.00  0.00    +0.016 A 
ATOM     25  C   UNL     1      11.251  11.975  22.472  0.00  0.00    +0.046 A 
ATOM     26  C   UNL     1      13.484  11.682  23.345  0.00  0.00    +0.046 A 
ATOM     28  C   UNL     1      12.320  12.443  23.236  0.00  0.00    +0.120 A 
BRANCH  28   3
ATOM      3  O   UNL     1      12.228  13.640  23.876  0.00  0.00    -0.495 OA
ATOM     34  C   UNL     1      11.151  13.801  24.797  0.00  0.00    +0.277 C 
ENDBRANCH  28   3
ENDBRANCH  15  17
BRANCH   9  14
ATOM      1  O   UNL     1      15.308   6.203  18.291  0.00  0.00    -0.336 OA
ATOM      7  N   UNL     1      15.707   7.120  20.295  0.00  0.00    -0.190 NA
ATOM      8  N   UNL     1      16.648   5.922  18.589  0.00  0.00    -0.056 NA
ATOM     14  C   UNL     1      14.829   6.911  19.346  0.00  0.00    +0.249 A 
ATOM     18  C   UNL     1      16.807   6.495  19.785  0.00  0.00    +0.202 A 
BRANCH  18  19
ATOM     19  C   UNL     1      18.053   6.462  20.497  0.00  0.00    +0.023 A 
ATOM     22  C   UNL     1      19.034   5.536  20.140  0.00  0.00    +0.020 A 
ATOM     23  C   UNL     1      18.282   7.354  21.539  0.00  0.00    +0.012 A 
ATOM     24  C   UNL     1      20.259   5.491  20.826  0.00  0.00    -0.017 A 
ATOM     27  C   UNL     1      20.492   6.398  21.887  0.00  0.00    -0.018 A 
ATOM     29  C   UNL     1      19.493   7.323  22.231  0.00  0.00    +0.009 A 
ATOM     30  C   UNL     1      21.257   4.566  20.481  0.00  0.00    +0.008 A 
ATOM     31  C   UNL     1      21.717   6.352  22.572  0.00  0.00    +0.008 A 
ATOM     32  C   UNL     1      22.468   4.535  21.172  0.00  0.00    +0.001 A 
ATOM     33  C   UNL     1      22.698   5.426  22.216  0.00  0.00    +0.001 A 
ENDBRANCH  18  19
ENDBRANCH   9  14
TORSDOF 4
ENDMDL
MODEL 2
REMARK VINA RESULT:      -8.3     27.288     29.681
REMARK  Name = 26745096
REMARK  5 active torsions:
REMARK  status: ('A' for Active; 'I' for Inactive)
REMARK    1  A    between atoms: O_3  and  C_28
REMARK    2  A    between atoms: O_3  and  C_34
REMARK    3  A    between atoms: C_9  and  C_14
REMARK    4  A    between atoms: C_15  and  C_17
REMARK    5  A    between atoms: C_18  and  C_19
REMARK                            x       y       z     vdW  Elec       q    Type
REMARK                         _______ _______ _______ _____ _____    ______ ____
ROOT
ATOM      2  O   UNL     1      -1.928 -10.301  16.330  0.00  0.00    -0.270 OA
ATOM      4  N   UNL     1      -3.019 -11.875  14.978  0.00  0.00    -0.280 N 
ATOM      5  N   UNL     1      -4.483 -15.130  13.893  0.00  0.00    -0.347 N 
ATOM      6  N   UNL     1      -2.434 -15.535  13.098  0.00  0.00    -0.240 NA
ATOM      9  C   UNL     1      -1.942 -11.860  13.933  0.00  0.00    +0.171 C 
ATOM     10  C   UNL     1      -1.395 -13.294  13.662  0.00  0.00    +0.089 C 
ATOM     11  C   UNL     1      -4.209 -12.743  14.741  0.00  0.00    +0.163 C 
ATOM     12  C   UNL     1      -2.505 -14.273  13.618  0.00  0.00    +0.066 A 
ATOM     13  C   UNL     1      -3.754 -14.001  14.116  0.00  0.00    +0.056 A 
ATOM     15  C   UNL     1      -2.889 -11.033  16.094  0.00  0.00    +0.248 C 
ATOM     16  C   UNL     1      -3.644 -16.026  13.279  0.00  0.00    +0.197 A 
ATOM     35  H   UNL     1      -5.454 -15.284  14.131  0.00  0.00    +0.167 HD
ENDROOT
BRANCH  15  17
ATOM     17  C   UNL     1      -3.991 -10.992  17.067  0.00  0.00    +0.037 A 
ATOM     20  C   UNL     1      -5.132 -10.237  16.798  0.00  0.00    +0.016 A 
ATOM     21  C   UNL     1      -3.894 -11.709  18.260  0.00  0.00    +0.016 A 
ATOM     25  C   UNL     1      -6.176 -10.197  17.722  0.00  0.00    +0.046 A 
ATOM     26  C   UNL     1      -4.939 -11.669  19.184  0.00  0.00    +0.046 A 
ATOM     28  C   UNL     1      -6.079 -10.913  18.915  0.00  0.00    +0.120 A 
BRANCH  28   3
ATOM      3  O   UNL     1      -7.098 -10.875  19.816  0.00  0.00    -0.495 OA
ATOM     34  C   UNL     1      -8.426 -10.936  19.297  0.00  0.00    +0.277 C 
ENDBRANCH  28   3
ENDBRANCH  15  17
BRANCH   9  14
ATOM      1  O   UNL     1      -1.457 -10.257  12.137  0.00  0.00    -0.336 OA
ATOM      7  N   UNL     1      -3.565 -11.013  12.136  0.00  0.00    -0.190 NA
ATOM      8  N   UNL     1      -2.095  -9.629  11.059  0.00  0.00    -0.056 NA
ATOM     14  C   UNL     1      -2.392 -11.054  12.716  0.00  0.00    +0.249 A 
ATOM     18  C   UNL     1      -3.334 -10.126  11.125  0.00  0.00    +0.202 A 
BRANCH  18  19
ATOM     19  C   UNL     1      -4.363  -9.757  10.195  0.00  0.00    +0.023 A 
ATOM     22  C   UNL     1      -4.357 -10.287   8.904  0.00  0.00    +0.020 A 
ATOM     23  C   UNL     1      -5.367  -8.875  10.582  0.00  0.00    +0.012 A 
ATOM     24  C   UNL     1      -5.357  -9.936   7.982  0.00  0.00    -0.017 A 
ATOM     27  C   UNL     1      -6.377  -9.038   8.375  0.00  0.00    -0.018 A 
ATOM     29  C   UNL     1      -6.367  -8.516   9.679  0.00  0.00    +0.009 A 
ATOM     30  C   UNL     1      -5.367 -10.458   6.679  0.00  0.00    +0.008 A 
ATOM     31  C   UNL     1      -7.377  -8.689   7.453  0.00  0.00    +0.008 A 
ATOM     32  C   UNL     1      -6.368 -10.101   5.776  0.00  0.00    +0.001 A 
ATOM     33  C   UNL     1      -7.371  -9.217   6.162  0.00  0.00    +0.001 A 
ENDBRANCH  18  19
ENDBRANCH   9  14
TORSDOF 4
ENDMDL
MODEL 3
REMARK VINA RESULT:      -7.9     19.328     24.280
REMARK  Name = 26745096
REMARK  5 active torsions:
REMARK  status: ('A' for Active; 'I' for Inactive)
REMARK    1  A    between atoms: O_3  and  C_28
REMARK    2  A    between atoms: O_3  and  C_34
REMARK    3  A    between atoms: C_9  and  C_14
REMARK    4  A    between atoms: C_15  and  C_17
REMARK    5  A    between atoms: C_18  and  C_19
REMARK                            x       y       z     vdW  Elec       q    Type
REMARK                         _______ _______ _______ _____ _____    ______ ____
ROOT
ATOM      2  O   UNL     1      -2.149  14.643  36.087  0.00  0.00    -0.270 OA
ATOM      4  N   UNL     1      -3.435  13.262  34.696  0.00  0.00    -0.280 N 
ATOM      5  N   UNL     1      -5.650  12.237  31.875  0.00  0.00    -0.347 N 
ATOM      6  N   UNL     1      -7.309  12.742  33.284  0.00  0.00    -0.240 NA
ATOM      9  C   UNL     1      -4.442  12.964  35.769  0.00  0.00    +0.171 C 
ATOM     10  C   UNL     1      -5.888  13.313  35.302  0.00  0.00    +0.089 C 
ATOM     11  C   UNL     1      -3.619  12.610  33.367  0.00  0.00    +0.163 C 
ATOM     12  C   UNL     1      -6.098  12.884  33.901  0.00  0.00    +0.066 A 
ATOM     13  C   UNL     1      -5.061  12.582  33.054  0.00  0.00    +0.056 A 
ATOM     15  C   UNL     1      -2.341  14.085  35.007  0.00  0.00    +0.248 C 
ATOM     16  C   UNL     1      -7.005  12.350  32.063  0.00  0.00    +0.197 A 
ATOM     35  H   UNL     1      -5.184  11.952  31.023  0.00  0.00    +0.167 HD
ENDROOT
BRANCH  15  17
ATOM     17  C   UNL     1      -1.316  14.299  33.974  0.00  0.00    +0.037 A 
ATOM     20  C   UNL     1      -1.428  15.374  33.093  0.00  0.00    +0.016 A 
ATOM     21  C   UNL     1      -0.232  13.426  33.876  0.00  0.00    +0.016 A 
ATOM     25  C   UNL     1      -0.456  15.576  32.112  0.00  0.00    +0.046 A 
ATOM     26  C   UNL     1       0.739  13.628  32.896  0.00  0.00    +0.046 A 
ATOM     28  C   UNL     1       0.627  14.702  32.013  0.00  0.00    +0.120 A 
BRANCH  28   3
ATOM      3  O   UNL     1       1.575  14.899  31.057  0.00  0.00    -0.495 OA
ATOM     34  C   UNL     1       1.929  13.775  30.254  0.00  0.00    +0.277 C 
ENDBRANCH  28   3
ENDBRANCH  15  17
BRANCH   9  14
ATOM      1  O   UNL     1      -5.325  10.785  36.476  0.00  0.00    -0.336 OA
ATOM      7  N   UNL     1      -3.107  10.984  36.707  0.00  0.00    -0.190 NA
ATOM      8  N   UNL     1      -4.878   9.566  37.001  0.00  0.00    -0.056 NA
ATOM     14  C   UNL     1      -4.221  11.562  36.333  0.00  0.00    +0.249 A 
ATOM     18  C   UNL     1      -3.561   9.762  37.109  0.00  0.00    +0.202 A 
BRANCH  18  19
ATOM     19  C   UNL     1      -2.670   8.756  37.614  0.00  0.00    +0.023 A 
ATOM     22  C   UNL     1      -3.069   7.940  38.674  0.00  0.00    +0.020 A 
ATOM     23  C   UNL     1      -1.411   8.593  37.045  0.00  0.00    +0.012 A 
ATOM     24  C   UNL     1      -2.211   6.951  39.178  0.00  0.00    -0.017 A 
ATOM     27  C   UNL     1      -0.929   6.785  38.600  0.00  0.00    -0.018 A 
ATOM     29  C   UNL     1      -0.545   7.615  37.535  0.00  0.00    +0.009 A 
ATOM     30  C   UNL     1      -2.595   6.121  40.244  0.00  0.00    +0.008 A 
ATOM     31  C   UNL     1      -0.071   5.795  39.106  0.00  0.00    +0.008 A 
ATOM     32  C   UNL     1      -1.730   5.143  40.733  0.00  0.00    +0.001 A 
ATOM     33  C   UNL     1      -0.470   4.980  40.165  0.00  0.00    +0.001 A 
ENDBRANCH  18  19
ENDBRANCH   9  14
TORSDOF 4
ENDMDL
MODEL 4
REMARK VINA RESULT:      -7.5     17.367     22.447
REMARK  Name = 26745096
REMARK  5 active torsions:
REMARK  status: ('A' for Active; 'I' for Inactive)
REMARK    1  A    between atoms: O_3  and  C_28
REMARK    2  A    between atoms: O_3  and  C_34
REMARK    3  A    between atoms: C_9  and  C_14
REMARK    4  A    between atoms: C_15  and  C_17
REMARK    5  A    between atoms: C_18  and  C_19
REMARK                            x       y       z     vdW  Elec       q    Type
REMARK                         _______ _______ _______ _____ _____    ______ ____
ROOT
ATOM      2  O   UNL     1      11.928   1.398  -1.819  0.00  0.00    -0.270 OA
ATOM      4  N   UNL     1      12.578   3.620  -1.447  0.00  0.00    -0.280 N 
ATOM      5  N   UNL     1      14.576   6.760  -1.685  0.00  0.00    -0.347 N 
ATOM      6  N   UNL     1      15.720   5.902   0.032  0.00  0.00    -0.240 NA
ATOM      9  C   UNL     1      12.871   3.386   0.007  0.00  0.00    +0.171 C 
ATOM     10  C   UNL     1      14.327   3.813   0.367  0.00  0.00    +0.089 C 
ATOM     11  C   UNL     1      12.758   5.000  -1.982  0.00  0.00    +0.163 C 
ATOM     12  C   UNL     1      14.673   5.089  -0.300  0.00  0.00    +0.066 A 
ATOM     13  C   UNL     1      13.956   5.593  -1.356  0.00  0.00    +0.056 A 
ATOM     15  C   UNL     1      12.092   2.551  -2.217  0.00  0.00    +0.248 C 
ATOM     16  C   UNL     1      15.633   6.903  -0.822  0.00  0.00    +0.197 A 
ATOM     35  H   UNL     1      14.312   7.402  -2.422  0.00  0.00    +0.167 HD
ENDROOT
BRANCH  15  17
ATOM     17  C   UNL     1      11.726   2.812  -3.617  0.00  0.00    +0.037 A 
ATOM     20  C   UNL     1      10.398   3.072  -3.954  0.00  0.00    +0.016 A 
ATOM     21  C   UNL     1      12.708   2.801  -4.608  0.00  0.00    +0.016 A 
ATOM     25  C   UNL     1      10.051   3.318  -5.282  0.00  0.00    +0.046 A 
ATOM     26  C   UNL     1      12.360   3.048  -5.936  0.00  0.00    +0.046 A 
ATOM     28  C   UNL     1      11.032   3.306  -6.273  0.00  0.00    +0.120 A 
BRANCH  28   3
ATOM      3  O   UNL     1      10.693   3.547  -7.569  0.00  0.00    -0.495 OA
ATOM     34  C   UNL     1       9.670   2.730  -8.135  0.00  0.00    +0.277 C 
ENDBRANCH  28   3
ENDBRANCH  15  17
BRANCH   9  14
ATOM      1  O   UNL     1      10.497   3.903   0.360  0.00  0.00    -0.336 OA
ATOM      7  N   UNL     1      11.821   4.509   2.062  0.00  0.00    -0.190 NA
ATOM      8  N   UNL     1       9.657   4.480   1.321  0.00  0.00    -0.056 NA
ATOM     14  C   UNL     1      11.752   3.959   0.875  0.00  0.00    +0.249 A 
ATOM     18  C   UNL     1      10.511   4.811   2.293  0.00  0.00    +0.202 A 
BRANCH  18  19
ATOM     19  C   UNL     1      10.088   5.445   3.509  0.00  0.00    +0.023 A 
ATOM     22  C   UNL     1      10.237   4.783   4.729  0.00  0.00    +0.020 A 
ATOM     23  C   UNL     1       9.530   6.719   3.472  0.00  0.00    +0.012 A 
ATOM     24  C   UNL     1       9.828   5.389   5.927  0.00  0.00    -0.017 A 
ATOM     27  C   UNL     1       9.260   6.685   5.889  0.00  0.00    -0.018 A 
ATOM     29  C   UNL     1       9.118   7.336   4.653  0.00  0.00    +0.009 A 
ATOM     30  C   UNL     1       9.971   4.738   7.163  0.00  0.00    +0.008 A 
ATOM     31  C   UNL     1       8.852   7.291   7.089  0.00  0.00    +0.008 A 
ATOM     32  C   UNL     1       9.560   5.355   8.345  0.00  0.00    +0.001 A 
ATOM     33  C   UNL     1       9.001   6.629   8.307  0.00  0.00    +0.001 A 
ENDBRANCH  18  19
ENDBRANCH   9  14
TORSDOF 4
ENDMDL
MODEL 5
REMARK VINA RESULT:      -7.4      3.102      4.566
REMARK  Name = 26745096
REMARK  5 active torsions:
REMARK  status: ('A' for Active; 'I' for Inactive)
REMARK    1  A    between atoms: O_3  and  C_28
REMARK    2  A    between atoms: O_3  and  C_34
REMARK    3  A    between atoms: C_9  and  C_14
REMARK    4  A    between atoms: C_15  and  C_17
REMARK    5  A    between atoms: C_18  and  C_19
REMARK                            x       y       z     vdW  Elec       q    Type
REMARK                         _______ _______ _______ _____ _____    ______ ____
ROOT
ATOM      2  O   UNL     1      14.832  12.065  20.241  0.00  0.00    -0.270 OA
ATOM      4  N   UNL     1      14.003  10.583  18.625  0.00  0.00    -0.280 N 
ATOM      5  N   UNL     1      11.837   9.243  15.900  0.00  0.00    -0.347 N 
ATOM      6  N   UNL     1      10.582   8.469  17.578  0.00  0.00    -0.240 NA
ATOM      9  C   UNL     1      13.577   9.566  19.645  0.00  0.00    +0.171 C 
ATOM     10  C   UNL     1      12.068   9.209  19.492  0.00  0.00    +0.089 C 
ATOM     11  C   UNL     1      13.788  10.260  17.185  0.00  0.00    +0.163 C 
ATOM     12  C   UNL     1      11.708   9.072  18.063  0.00  0.00    +0.066 A 
ATOM     13  C   UNL     1      12.496   9.560  17.049  0.00  0.00    +0.056 A 
ATOM     15  C   UNL     1      14.635  11.757  19.066  0.00  0.00    +0.248 C 
ATOM     16  C   UNL     1      10.690   8.587  16.270  0.00  0.00    +0.197 A 
ATOM     35  H   UNL     1      12.133   9.447  14.954  0.00  0.00    +0.167 HD
ENDROOT
BRANCH  15  17
ATOM     17  C   UNL     1      15.125  12.705  18.054  0.00  0.00    +0.037 A 
ATOM     20  C   UNL     1      16.442  12.626  17.605  0.00  0.00    +0.016 A 
ATOM     21  C   UNL     1      14.271  13.684  17.545  0.00  0.00    +0.016 A 
ATOM     25  C   UNL     1      16.907  13.526  16.646  0.00  0.00    +0.046 A 
ATOM     26  C   UNL     1      14.736  14.584  16.586  0.00  0.00    +0.046 A 
ATOM     28  C   UNL     1      16.055  14.506  16.138  0.00  0.00    +0.120 A 
BRANCH  28   3
ATOM      3  O   UNL     1      16.508  15.384  15.202  0.00  0.00    -0.495 OA
ATOM     34  C   UNL     1      15.982  15.255  13.882  0.00  0.00    +0.277 C 
ENDBRANCH  28   3
ENDBRANCH  15  17
BRANCH   9  14
ATOM      1  O   UNL     1      14.111   7.215  19.181  0.00  0.00    -0.336 OA
ATOM      7  N   UNL     1      15.795   8.362  20.111  0.00  0.00    -0.190 NA
ATOM      8  N   UNL     1      15.172   6.310  19.313  0.00  0.00    -0.056 NA
ATOM     14  C   UNL     1      14.561   8.398  19.674  0.00  0.00    +0.249 A 
ATOM     18  C   UNL     1      16.127   7.062  19.868  0.00  0.00    +0.202 A 
BRANCH  18  19
ATOM     19  C   UNL     1      17.426   6.543  20.192  0.00  0.00    +0.023 A 
ATOM     22  C   UNL     1      18.093   6.996  21.332  0.00  0.00    +0.020 A 
ATOM     23  C   UNL     1      18.018   5.588  19.371  0.00  0.00    +0.012 A 
ATOM     24  C   UNL     1      19.363   6.498  21.662  0.00  0.00    -0.017 A 
ATOM     27  C   UNL     1      19.966   5.527  20.827  0.00  0.00    -0.018 A 
ATOM     29  C   UNL     1      19.280   5.083  19.685  0.00  0.00    +0.009 A 
ATOM     30  C   UNL     1      20.049   6.942  22.804  0.00  0.00    +0.008 A 
ATOM     31  C   UNL     1      21.236   5.030  21.159  0.00  0.00    +0.008 A 
ATOM     32  C   UNL     1      21.310   6.436  23.119  0.00  0.00    +0.001 A 
ATOM     33  C   UNL     1      21.903   5.482  22.297  0.00  0.00    +0.001 A 
ENDBRANCH  18  19
ENDBRANCH   9  14
TORSDOF 4
ENDMDL
MODEL 6
REMARK VINA RESULT:      -7.4     13.776     16.584
REMARK  Name = 26745096
REMARK  5 active torsions:
REMARK  status: ('A' for Active; 'I' for Inactive)
REMARK    1  A    between atoms: O_3  and  C_28
REMARK    2  A    between atoms: O_3  and  C_34
REMARK    3  A    between atoms: C_9  and  C_14
REMARK    4  A    between atoms: C_15  and  C_17
REMARK    5  A    between atoms: C_18  and  C_19
REMARK                            x       y       z     vdW  Elec       q    Type
REMARK                         _______ _______ _______ _____ _____    ______ ____
ROOT
ATOM      2  O   UNL     1       9.689   7.827   3.495  0.00  0.00    -0.270 OA
ATOM      4  N   UNL     1      10.353   6.894   5.541  0.00  0.00    -0.280 N 
ATOM      5  N   UNL     1      10.592   4.457   8.355  0.00  0.00    -0.347 N 
ATOM      6  N   UNL     1       8.838   5.570   9.176  0.00  0.00    -0.240 NA
ATOM      9  C   UNL     1       9.685   7.967   6.351  0.00  0.00    +0.171 C 
ATOM     10  C   UNL     1       8.693   7.359   7.388  0.00  0.00    +0.089 C 
ATOM     11  C   UNL     1      11.104   5.833   6.272  0.00  0.00    +0.163 C 
ATOM     12  C   UNL     1       9.279   6.157   8.024  0.00  0.00    +0.066 A 
ATOM     13  C   UNL     1      10.356   5.489   7.496  0.00  0.00    +0.056 A 
ATOM     15  C   UNL     1      10.294   6.971   4.139  0.00  0.00    +0.248 C 
ATOM     16  C   UNL     1       9.652   4.548   9.349  0.00  0.00    +0.197 A 
ATOM     35  H   UNL     1      11.320   3.758   8.278  0.00  0.00    +0.167 HD
ENDROOT
BRANCH  15  17
ATOM     17  C   UNL     1      11.025   5.964   3.356  0.00  0.00    +0.037 A 
ATOM     20  C   UNL     1      10.492   4.687   3.192  0.00  0.00    +0.016 A 
ATOM     21  C   UNL     1      12.253   6.288   2.778  0.00  0.00    +0.016 A 
ATOM     25  C   UNL     1      11.187   3.731   2.450  0.00  0.00    +0.046 A 
ATOM     26  C   UNL     1      12.947   5.332   2.036  0.00  0.00    +0.046 A 
ATOM     28  C   UNL     1      12.414   4.054   1.873  0.00  0.00    +0.120 A 
BRANCH  28   3
ATOM      3  O   UNL     1      13.092   3.122   1.148  0.00  0.00    -0.495 OA
ATOM     34  C   UNL     1      13.862   3.593   0.043  0.00  0.00    +0.277 C 
ENDBRANCH  28   3
ENDBRANCH  15  17
BRANCH   9  14
ATOM      1  O   UNL     1      10.358   9.683   7.973  0.00  0.00    -0.336 OA
ATOM      7  N   UNL     1      11.930   9.205   6.452  0.00  0.00    -0.190 NA
ATOM      8  N   UNL     1      11.454  10.502   8.275  0.00  0.00    -0.056 NA
ATOM     14  C   UNL     1      10.722   8.952   6.888  0.00  0.00    +0.249 A 
ATOM     18  C   UNL     1      12.339  10.161   7.335  0.00  0.00    +0.202 A 
BRANCH  18  19
ATOM     19  C   UNL     1      13.642  10.757   7.250  0.00  0.00    +0.023 A 
ATOM     22  C   UNL     1      14.674  10.086   6.592  0.00  0.00    +0.020 A 
ATOM     23  C   UNL     1      13.875  12.004   7.823  0.00  0.00    +0.012 A 
ATOM     24  C   UNL     1      15.954  10.656   6.501  0.00  0.00    -0.017 A 
ATOM     27  C   UNL     1      16.192  11.923   7.084  0.00  0.00    -0.018 A 
ATOM     29  C   UNL     1      15.142  12.584   7.742  0.00  0.00    +0.009 A 
ATOM     30  C   UNL     1      17.004   9.995   5.843  0.00  0.00    +0.008 A 
ATOM     31  C   UNL     1      17.472  12.492   6.991  0.00  0.00    +0.008 A 
ATOM     32  C   UNL     1      18.270  10.575   5.761  0.00  0.00    +0.001 A 
ATOM     33  C   UNL     1      18.504  11.822   6.334  0.00  0.00    +0.001 A 
ENDBRANCH  18  19
ENDBRANCH   9  14
TORSDOF 4
ENDMDL
MODEL 7
REMARK VINA RESULT:      -7.3     17.015     22.013
REMARK  Name = 26745096
REMARK  5 active torsions:
REMARK  status: ('A' for Active; 'I' for Inactive)
REMARK    1  A    between atoms: O_3  and  C_28
REMARK    2  A    between atoms: O_3  and  C_34
REMARK    3  A    between atoms: C_9  and  C_14
REMARK    4  A    between atoms: C_15  and  C_17
REMARK    5  A    between atoms: C_18  and  C_19
REMARK                            x       y       z     vdW  Elec       q    Type
REMARK                         _______ _______ _______ _____ _____    ______ ____
ROOT
ATOM      2  O   UNL     1       7.138   9.861  -2.366  0.00  0.00    -0.270 OA
ATOM      4  N   UNL     1       5.706   9.651  -0.521  0.00  0.00    -0.280 N 
ATOM      5  N   UNL     1       2.655  10.023   1.591  0.00  0.00    -0.347 N 
ATOM      6  N   UNL     1       3.630  11.912   2.280  0.00  0.00    -0.240 NA
ATOM      9  C   UNL     1       6.587  10.476   0.372  0.00  0.00    +0.171 C 
ATOM     10  C   UNL     1       5.801  11.668   0.997  0.00  0.00    +0.089 C 
ATOM     11  C   UNL     1       4.462   9.076   0.065  0.00  0.00    +0.163 C 
ATOM     12  C   UNL     1       4.452  11.234   1.425  0.00  0.00    +0.066 A 
ATOM     13  C   UNL     1       3.874  10.069   0.984  0.00  0.00    +0.056 A 
ATOM     15  C   UNL     1       6.121   9.409  -1.841  0.00  0.00    +0.248 C 
ATOM     16  C   UNL     1       2.554  11.155   2.360  0.00  0.00    +0.197 A 
ATOM     35  H   UNL     1       1.956   9.297   1.497  0.00  0.00    +0.167 HD
ENDROOT
BRANCH  15  17
ATOM     17  C   UNL     1       5.294   8.528  -2.679  0.00  0.00    +0.037 A 
ATOM     20  C   UNL     1       4.292   9.070  -3.483  0.00  0.00    +0.016 A 
ATOM     21  C   UNL     1       5.513   7.150  -2.670  0.00  0.00    +0.016 A 
ATOM     25  C   UNL     1       3.506   8.234  -4.277  0.00  0.00    +0.046 A 
ATOM     26  C   UNL     1       4.728   6.314  -3.464  0.00  0.00    +0.046 A 
ATOM     28  C   UNL     1       3.724   6.856  -4.267  0.00  0.00    +0.120 A 
BRANCH  28   3
ATOM      3  O   UNL     1       2.958   6.040  -5.042  0.00  0.00    -0.495 OA
ATOM     34  C   UNL     1       2.389   4.894  -4.412  0.00  0.00    +0.277 C 
ENDBRANCH  28   3
ENDBRANCH  15  17
BRANCH   9  14
ATOM      1  O   UNL     1       8.335   8.805   0.798  0.00  0.00    -0.336 OA
ATOM      7  N   UNL     1       7.213   9.435   2.631  0.00  0.00    -0.190 NA
ATOM      8  N   UNL     1       8.889   8.080   1.861  0.00  0.00    -0.056 NA
ATOM     14  C   UNL     1       7.357   9.578   1.338  0.00  0.00    +0.249 A 
ATOM     18  C   UNL     1       8.175   8.507   2.907  0.00  0.00    +0.202 A 
BRANCH  18  19
ATOM     19  C   UNL     1       8.398   8.026   4.241  0.00  0.00    +0.023 A 
ATOM     22  C   UNL     1       8.922   6.748   4.442  0.00  0.00    +0.020 A 
ATOM     23  C   UNL     1       8.095   8.835   5.331  0.00  0.00    +0.012 A 
ATOM     24  C   UNL     1       9.147   6.263   5.741  0.00  0.00    -0.017 A 
ATOM     27  C   UNL     1       8.837   7.086   6.850  0.00  0.00    -0.018 A 
ATOM     29  C   UNL     1       8.312   8.368   6.628  0.00  0.00    +0.009 A 
ATOM     30  C   UNL     1       9.672   4.980   5.962  0.00  0.00    +0.008 A 
ATOM     31  C   UNL     1       9.063   6.600   8.148  0.00  0.00    +0.008 A 
ATOM     32  C   UNL     1       9.890   4.514   7.259  0.00  0.00    +0.001 A 
ATOM     33  C   UNL     1       9.586   5.322   8.350  0.00  0.00    +0.001 A 
ENDBRANCH  18  19
ENDBRANCH   9  14
TORSDOF 4
ENDMDL
MODEL 8
REMARK VINA RESULT:      -7.3     27.107     31.551
REMARK  Name = 26745096
REMARK  5 active torsions:
REMARK  status: ('A' for Active; 'I' for Inactive)
REMARK    1  A    between atoms: O_3  and  C_28
REMARK    2  A    between atoms: O_3  and  C_34
REMARK    3  A    between atoms: C_9  and  C_14
REMARK    4  A    between atoms: C_15  and  C_17
REMARK    5  A    between atoms: C_18  and  C_19
REMARK                            x       y       z     vdW  Elec       q    Type
REMARK                         _______ _______ _______ _____ _____    ______ ____
ROOT
ATOM      2  O   UNL     1     -12.438   9.141  36.839  0.00  0.00    -0.270 OA
ATOM      4  N   UNL     1     -12.208   8.812  34.530  0.00  0.00    -0.280 N 
ATOM      5  N   UNL     1     -11.530   9.579  30.943  0.00  0.00    -0.347 N 
ATOM      6  N   UNL     1     -13.697  10.118  30.877  0.00  0.00    -0.240 NA
ATOM      9  C   UNL     1     -13.670   8.534  34.332  0.00  0.00    +0.171 C 
ATOM     10  C   UNL     1     -14.286   9.480  33.257  0.00  0.00    +0.089 C 
ATOM     11  C   UNL     1     -11.315   8.735  33.338  0.00  0.00    +0.163 C 
ATOM     12  C   UNL     1     -13.362   9.634  32.110  0.00  0.00    +0.066 A 
ATOM     13  C   UNL     1     -12.033   9.298  32.177  0.00  0.00    +0.056 A 
ATOM     15  C   UNL     1     -11.740   9.069  35.829  0.00  0.00    +0.248 C 
ATOM     16  C   UNL     1     -12.570  10.071  30.195  0.00  0.00    +0.197 A 
ATOM     35  H   UNL     1     -10.575   9.450  30.632  0.00  0.00    +0.167 HD
ENDROOT
BRANCH  15  17
ATOM     17  C   UNL     1     -10.294   9.253  36.023  0.00  0.00    +0.037 A 
ATOM     20  C   UNL     1      -9.668  10.406  35.551  0.00  0.00    +0.016 A 
ATOM     21  C   UNL     1      -9.549   8.274  36.680  0.00  0.00    +0.016 A 
ATOM     25  C   UNL     1      -8.296  10.580  35.734  0.00  0.00    +0.046 A 
ATOM     26  C   UNL     1      -8.177   8.448  36.864  0.00  0.00    +0.046 A 
ATOM     28  C   UNL     1      -7.551   9.601  36.390  0.00  0.00    +0.120 A 
BRANCH  28   3
ATOM      3  O   UNL     1      -6.212   9.770  36.569  0.00  0.00    -0.495 OA
ATOM     34  C   UNL     1      -5.496  10.428  35.526  0.00  0.00    +0.277 C 
ENDBRANCH  28   3
ENDBRANCH  15  17
BRANCH   9  14
ATOM      1  O   UNL     1     -13.794   6.262  35.256  0.00  0.00    -0.336 OA
ATOM      7  N   UNL     1     -14.207   6.373  33.057  0.00  0.00    -0.190 NA
ATOM      8  N   UNL     1     -14.050   4.949  34.842  0.00  0.00    -0.056 NA
ATOM     14  C   UNL     1     -13.907   7.037  34.146  0.00  0.00    +0.249 A 
ATOM     18  C   UNL     1     -14.284   5.097  33.534  0.00  0.00    +0.202 A 
BRANCH  18  19
ATOM     19  C   UNL     1     -14.600   3.989  32.678  0.00  0.00    +0.023 A 
ATOM     22  C   UNL     1     -14.951   4.217  31.346  0.00  0.00    +0.020 A 
ATOM     23  C   UNL     1     -14.555   2.691  33.174  0.00  0.00    +0.012 A 
ATOM     24  C   UNL     1     -15.263   3.145  30.495  0.00  0.00    -0.017 A 
ATOM     27  C   UNL     1     -15.217   1.823  31.000  0.00  0.00    -0.018 A 
ATOM     29  C   UNL     1     -14.862   1.614  32.342  0.00  0.00    +0.009 A 
ATOM     30  C   UNL     1     -15.618   3.354  29.153  0.00  0.00    +0.008 A 
ATOM     31  C   UNL     1     -15.529   0.752  30.148  0.00  0.00    +0.008 A 
ATOM     32  C   UNL     1     -15.924   2.278  28.320  0.00  0.00    +0.001 A 
ATOM     33  C   UNL     1     -15.880   0.979  28.817  0.00  0.00    +0.001 A 
ENDBRANCH  18  19
ENDBRANCH   9  14
TORSDOF 4
ENDMDL
MODEL 9
REMARK VINA RESULT:      -7.2      3.802     10.280
REMARK  Name = 26745096
REMARK  5 active torsions:
REMARK  status: ('A' for Active; 'I' for Inactive)
REMARK    1  A    between atoms: O_3  and  C_28
REMARK    2  A    between atoms: O_3  and  C_34
REMARK    3  A    between atoms: C_9  and  C_14
REMARK    4  A    between atoms: C_15  and  C_17
REMARK    5  A    between atoms: C_18  and  C_19
REMARK                            x       y       z     vdW  Elec       q    Type
REMARK                         _______ _______ _______ _____ _____    ______ ____
ROOT
ATOM      2  O   UNL     1      21.414   5.372  23.602  0.00  0.00    -0.270 OA
ATOM      4  N   UNL     1      21.466   6.807  21.749  0.00  0.00    -0.280 N 
ATOM      5  N   UNL     1      22.709   9.400  19.373  0.00  0.00    -0.347 N 
ATOM      6  N   UNL     1      21.670  10.832  20.737  0.00  0.00    -0.240 NA
ATOM      9  C   UNL     1      20.297   7.618  22.230  0.00  0.00    +0.171 C 
ATOM     10  C   UNL     1      20.656   9.132  22.318  0.00  0.00    +0.089 C 
ATOM     11  C   UNL     1      22.077   7.173  20.439  0.00  0.00    +0.163 C 
ATOM     12  C   UNL     1      21.457   9.545  21.143  0.00  0.00    +0.066 A 
ATOM     13  C   UNL     1      22.089   8.645  20.322  0.00  0.00    +0.056 A 
ATOM     15  C   UNL     1      21.888   5.711  22.518  0.00  0.00    +0.248 C 
ATOM     16  C   UNL     1      22.428  10.711  19.666  0.00  0.00    +0.197 A 
ATOM     35  H   UNL     1      23.270   9.064  18.600  0.00  0.00    +0.167 HD
ENDROOT
BRANCH  15  17
ATOM     17  C   UNL     1      22.977   4.872  21.995  0.00  0.00    +0.037 A 
ATOM     20  C   UNL     1      24.305   5.240  22.208  0.00  0.00    +0.016 A 
ATOM     21  C   UNL     1      22.681   3.709  21.284  0.00  0.00    +0.016 A 
ATOM     25  C   UNL     1      25.337   4.445  21.710  0.00  0.00    +0.046 A 
ATOM     26  C   UNL     1      23.714   2.914  20.786  0.00  0.00    +0.046 A 
ATOM     28  C   UNL     1      25.042   3.283  20.998  0.00  0.00    +0.120 A 
BRANCH  28   3
ATOM      3  O   UNL     1      26.049   2.507  20.513  0.00  0.00    -0.495 OA
ATOM     34  C   UNL     1      27.260   3.169  20.149  0.00  0.00    +0.277 C 
ENDBRANCH  28   3
ENDBRANCH  15  17
BRANCH   9  14
ATOM      1  O   UNL     1      19.121   6.166  20.636  0.00  0.00    -0.336 OA
ATOM      7  N   UNL     1      17.869   7.845  21.431  0.00  0.00    -0.190 NA
ATOM      8  N   UNL     1      17.865   6.035  20.031  0.00  0.00    -0.056 NA
ATOM     14  C   UNL     1      19.038   7.254  21.445  0.00  0.00    +0.249 A 
ATOM     18  C   UNL     1      17.184   7.061  20.550  0.00  0.00    +0.202 A 
BRANCH  18  19
ATOM     19  C   UNL     1      15.815   7.329  20.210  0.00  0.00    +0.023 A 
ATOM     22  C   UNL     1      14.923   7.758  21.194  0.00  0.00    +0.020 A 
ATOM     23  C   UNL     1      15.379   7.162  18.899  0.00  0.00    +0.012 A 
ATOM     24  C   UNL     1      13.582   8.025  20.878  0.00  0.00    -0.017 A 
ATOM     27  C   UNL     1      13.138   7.855  19.544  0.00  0.00    -0.018 A 
ATOM     29  C   UNL     1      14.049   7.422  18.567  0.00  0.00    +0.009 A 
ATOM     30  C   UNL     1      12.671   8.458  21.854  0.00  0.00    +0.008 A 
ATOM     31  C   UNL     1      11.796   8.122  19.229  0.00  0.00    +0.008 A 
ATOM     32  C   UNL     1      11.342   8.719  21.523  0.00  0.00    +0.001 A 
ATOM     33  C   UNL     1      10.905   8.551  20.212  0.00  0.00    +0.001 A 
ENDBRANCH  18  19
ENDBRANCH   9  14
TORSDOF 4
ENDMDL
MODEL 10
REMARK VINA RESULT:      -7.2     14.237     17.636
REMARK  Name = 26745096
REMARK  5 active torsions:
REMARK  status: ('A' for Active; 'I' for Inactive)
REMARK    1  A    between atoms: O_3  and  C_28
REMARK    2  A    between atoms: O_3  and  C_34
REMARK    3  A    between atoms: C_9  and  C_14
REMARK    4  A    between atoms: C_15  and  C_17
REMARK    5  A    between atoms: C_18  and  C_19
REMARK                            x       y       z     vdW  Elec       q    Type
REMARK                         _______ _______ _______ _____ _____    ______ ____
ROOT
ATOM      2  O   UNL     1      11.223   8.908   1.953  0.00  0.00    -0.270 OA
ATOM      4  N   UNL     1      11.417   7.529   3.839  0.00  0.00    -0.280 N 
ATOM      5  N   UNL     1      10.467   5.081   6.488  0.00  0.00    -0.347 N 
ATOM      6  N   UNL     1       9.777   6.890   7.603  0.00  0.00    -0.240 NA
ATOM      9  C   UNL     1      11.580   8.687   4.781  0.00  0.00    +0.171 C 
ATOM     10  C   UNL     1      10.526   8.636   5.928  0.00  0.00    +0.089 C 
ATOM     11  C   UNL     1      11.477   6.152   4.408  0.00  0.00    +0.163 C 
ATOM     12  C   UNL     1      10.362   7.251   6.422  0.00  0.00    +0.066 A 
ATOM     13  C   UNL     1      10.792   6.155   5.716  0.00  0.00    +0.056 A 
ATOM     15  C   UNL     1      11.277   7.791   2.466  0.00  0.00    +0.248 C 
ATOM     16  C   UNL     1       9.857   5.574   7.614  0.00  0.00    +0.197 A 
ATOM     35  H   UNL     1      10.640   4.106   6.277  0.00  0.00    +0.167 HD
ENDROOT
BRANCH  15  17
ATOM     17  C   UNL     1      11.205   6.648   1.544  0.00  0.00    +0.037 A 
ATOM     20  C   UNL     1       9.967   6.106   1.200  0.00  0.00    +0.016 A 
ATOM     21  C   UNL     1      12.376   6.105   1.014  0.00  0.00    +0.016 A 
ATOM     25  C   UNL     1       9.900   5.020   0.326  0.00  0.00    +0.046 A 
ATOM     26  C   UNL     1      12.308   5.020   0.140  0.00  0.00    +0.046 A 
ATOM     28  C   UNL     1      11.070   4.477  -0.203  0.00  0.00    +0.120 A 
BRANCH  28   3
ATOM      3  O   UNL     1      11.004   3.418  -1.056  0.00  0.00    -0.495 OA
ATOM     34  C   UNL     1      12.179   3.117  -1.807  0.00  0.00    +0.277 C 
ENDBRANCH  28   3
ENDBRANCH  15  17
BRANCH   9  14
ATOM      1  O   UNL     1      13.278   9.469   6.373  0.00  0.00    -0.336 OA
ATOM      7  N   UNL     1      14.125   8.429   4.580  0.00  0.00    -0.190 NA
ATOM      8  N   UNL     1      14.669   9.480   6.538  0.00  0.00    -0.056 NA
ATOM     14  C   UNL     1      13.043   8.832   5.197  0.00  0.00    +0.249 A 
ATOM     18  C   UNL     1      15.097   8.849   5.441  0.00  0.00    +0.202 A 
BRANCH  18  19
ATOM     19  C   UNL     1      16.489   8.621   5.176  0.00  0.00    +0.023 A 
ATOM     22  C   UNL     1      17.423   8.745   6.205  0.00  0.00    +0.020 A 
ATOM     23  C   UNL     1      16.905   8.276   3.894  0.00  0.00    +0.012 A 
ATOM     24  C   UNL     1      18.788   8.525   5.963  0.00  0.00    -0.017 A 
ATOM     27  C   UNL     1      19.212   8.174   4.659  0.00  0.00    -0.018 A 
ATOM     29  C   UNL     1      18.258   8.054   3.636  0.00  0.00    +0.009 A 
ATOM     30  C   UNL     1      19.742   8.645   6.986  0.00  0.00    +0.008 A 
ATOM     31  C   UNL     1      20.578   7.954   4.417  0.00  0.00    +0.008 A 
ATOM     32  C   UNL     1      21.095   8.422   6.728  0.00  0.00    +0.001 A 
ATOM     33  C   UNL     1      21.512   8.078   5.446  0.00  0.00    +0.001 A 
ENDBRANCH  18  19
ENDBRANCH   9  14
TORSDOF 4
ENDMDL
