MODEL 1
REMARK VINA RESULT:      -6.2      0.000      0.000
REMARK  Name = 40779924
REMARK  10 active torsions:
REMARK  status: ('A' for Active; 'I' for Inactive)
REMARK    1  A    between atoms: O_1  and  C_20
REMARK    2  A    between atoms: O_1  and  C_22
REMARK    3  A    between atoms: N_4  and  C_14
REMARK    4  A    between atoms: N_5  and  C_15
REMARK    5  A    between atoms: N_6  and  C_23
REMARK    6  A    between atoms: C_8  and  C_14
REMARK    7  A    between atoms: C_10  and  C_15
REMARK    8  A    between atoms: C_16  and  C_20
REMARK    9  A    between atoms: C_23  and  C_24
REMARK   10  A    between atoms: C_23  and  C_25
REMARK                            x       y       z     vdW  Elec       q    Type
REMARK                         _______ _______ _______ _____ _____    ______ ____
ROOT
ATOM      3  N   UNL     1      11.634   7.759  19.661  0.00  0.00    -0.298 NA
ATOM      7  C   UNL     1      13.794   9.116  19.147  0.00  0.00    -0.003 C 
ATOM      8  C   UNL     1      14.138   7.672  19.575  0.00  0.00    +0.020 C 
ATOM      9  C   UNL     1      12.964   9.792  20.254  0.00  0.00    +0.024 C 
ATOM     10  C   UNL     1      11.627   9.035  20.426  0.00  0.00    +0.074 C 
ATOM     11  C   UNL     1      12.835   6.960  20.005  0.00  0.00    +0.089 C 
ATOM     12  C   UNL     1      12.891   9.011  17.902  0.00  0.00    +0.019 C 
ATOM     13  C   UNL     1      11.698   8.091  18.217  0.00  0.00    +0.085 C 
ENDROOT
BRANCH   8  14
ATOM     14  C   UNL     1      15.204   7.605  20.667  0.00  0.00    +0.089 C 
BRANCH  14   4
ATOM      4  N   UNL     1      16.204   6.609  20.304  0.00  0.00    -0.297 NA
ATOM     16  C   UNL     1      17.585   7.081  20.474  0.00  0.00    +0.082 C 
ATOM     17  C   UNL     1      16.103   6.237  18.891  0.00  0.00    +0.085 C 
ATOM     18  C   UNL     1      18.390   6.066  19.660  0.00  0.00    +0.022 C 
ATOM     19  C   UNL     1      17.415   5.520  18.622  0.00  0.00    +0.017 C 
BRANCH  16  20
ATOM     20  C   UNL     1      18.035   7.123  21.929  0.00  0.00    +0.178 C 
BRANCH  20   1
ATOM      1  O   UNL     1      18.975   8.172  22.082  0.00  0.00    -0.381 OA
ATOM     22  C   UNL     1      18.453   9.416  21.631  0.00  0.00    +0.194 C 
ENDBRANCH  20   1
ENDBRANCH  16  20
ENDBRANCH  14   4
ENDBRANCH   8  14
BRANCH  10  15
ATOM     15  C   UNL     1      11.275   8.832  21.900  0.00  0.00    +0.124 C 
BRANCH  15   5
ATOM      2  O   UNL     1      12.403  11.084  23.308  0.00  0.00    -0.253 OA
ATOM      5  N   UNL     1      10.558  10.018  22.394  0.00  0.00    -0.298 N 
ATOM      6  N   UNL     1      10.289  12.034  23.413  0.00  0.00    -0.297 N 
ATOM     21  C   UNL     1      11.200  11.041  23.059  0.00  0.00    +0.300 C 
ATOM     26  H   UNL     1       9.557  10.076  22.239  0.00  0.00    +0.150 HD
ATOM     27  H   UNL     1       9.328  11.943  23.095  0.00  0.00    +0.150 HD
BRANCH   6  23
ATOM     23  C   UNL     1      10.673  13.231  24.121  0.00  0.00    +0.068 C 
ATOM     24  C   UNL     1      10.581  13.010  25.625  0.00  0.00    +0.027 C 
ATOM     25  C   UNL     1       9.814  14.410  23.682  0.00  0.00    +0.027 C 
ENDBRANCH   6  23
ENDBRANCH  15   5
ENDBRANCH  10  15
TORSDOF 7
ENDMDL
MODEL 2
REMARK VINA RESULT:      -5.7     26.346     28.522
REMARK  Name = 40779924
REMARK  10 active torsions:
REMARK  status: ('A' for Active; 'I' for Inactive)
REMARK    1  A    between atoms: O_1  and  C_20
REMARK    2  A    between atoms: O_1  and  C_22
REMARK    3  A    between atoms: N_4  and  C_14
REMARK    4  A    between atoms: N_5  and  C_15
REMARK    5  A    between atoms: N_6  and  C_23
REMARK    6  A    between atoms: C_8  and  C_14
REMARK    7  A    between atoms: C_10  and  C_15
REMARK    8  A    between atoms: C_16  and  C_20
REMARK    9  A    between atoms: C_23  and  C_24
REMARK   10  A    between atoms: C_23  and  C_25
REMARK                            x       y       z     vdW  Elec       q    Type
REMARK                         _______ _______ _______ _____ _____    ______ ____
ROOT
ATOM      3  N   UNL     1      -6.938 -10.286  18.247  0.00  0.00    -0.298 NA
ATOM      7  C   UNL     1      -5.229 -12.233  18.478  0.00  0.00    -0.003 C 
ATOM      8  C   UNL     1      -4.696 -11.141  17.523  0.00  0.00    +0.020 C 
ATOM      9  C   UNL     1      -6.586 -12.744  17.961  0.00  0.00    +0.024 C 
ATOM     10  C   UNL     1      -7.609 -11.586  17.977  0.00  0.00    +0.074 C 
ATOM     11  C   UNL     1      -5.805 -10.087  17.311  0.00  0.00    +0.089 C 
ATOM     12  C   UNL     1      -5.486 -11.552  19.837  0.00  0.00    +0.019 C 
ATOM     13  C   UNL     1      -6.396 -10.329  19.627  0.00  0.00    +0.085 C 
ENDROOT
BRANCH   8  14
ATOM     14  C   UNL     1      -4.186 -11.699  16.196  0.00  0.00    +0.089 C 
BRANCH  14   4
ATOM      4  N   UNL     1      -3.275 -10.738  15.588  0.00  0.00    -0.297 NA
ATOM     16  C   UNL     1      -2.962 -11.040  14.184  0.00  0.00    +0.082 C 
ATOM     17  C   UNL     1      -1.978 -10.722  16.269  0.00  0.00    +0.085 C 
ATOM     18  C   UNL     1      -1.720 -10.184  13.925  0.00  0.00    +0.022 C 
ATOM     19  C   UNL     1      -1.078  -9.983  15.293  0.00  0.00    +0.017 C 
BRANCH  16  20
ATOM     20  C   UNL     1      -4.094 -10.697  13.224  0.00  0.00    +0.178 C 
BRANCH  20   1
ATOM      1  O   UNL     1      -3.535 -10.193  12.025  0.00  0.00    -0.381 OA
ATOM     22  C   UNL     1      -4.507  -9.521  11.232  0.00  0.00    +0.194 C 
ENDBRANCH  20   1
ENDBRANCH  16  20
ENDBRANCH  14   4
ENDBRANCH   8  14
BRANCH  10  15
ATOM     15  C   UNL     1      -8.451 -11.555  16.700  0.00  0.00    +0.124 C 
BRANCH  15   5
ATOM      2  O   UNL     1      -8.744  -9.334  14.882  0.00  0.00    -0.253 OA
ATOM      5  N   UNL     1      -9.427 -10.458  16.791  0.00  0.00    -0.298 N 
ATOM      6  N   UNL     1     -10.491  -8.541  16.186  0.00  0.00    -0.297 N 
ATOM     21  C   UNL     1      -9.479  -9.441  15.861  0.00  0.00    +0.300 C 
ATOM     26  H   UNL     1     -10.079 -10.455  17.568  0.00  0.00    +0.150 HD
ATOM     27  H   UNL     1     -11.095  -8.756  16.974  0.00  0.00    +0.150 HD
BRANCH   6  23
ATOM     23  C   UNL     1     -10.782  -7.371  15.391  0.00  0.00    +0.068 C 
ATOM     24  C   UNL     1     -11.212  -6.217  16.287  0.00  0.00    +0.027 C 
ATOM     25  C   UNL     1     -11.844  -7.686  14.346  0.00  0.00    +0.027 C 
ENDBRANCH   6  23
ENDBRANCH  15   5
ENDBRANCH  10  15
TORSDOF 7
ENDMDL
MODEL 3
REMARK VINA RESULT:      -5.7      1.663      2.507
REMARK  Name = 40779924
REMARK  10 active torsions:
REMARK  status: ('A' for Active; 'I' for Inactive)
REMARK    1  A    between atoms: O_1  and  C_20
REMARK    2  A    between atoms: O_1  and  C_22
REMARK    3  A    between atoms: N_4  and  C_14
REMARK    4  A    between atoms: N_5  and  C_15
REMARK    5  A    between atoms: N_6  and  C_23
REMARK    6  A    between atoms: C_8  and  C_14
REMARK    7  A    between atoms: C_10  and  C_15
REMARK    8  A    between atoms: C_16  and  C_20
REMARK    9  A    between atoms: C_23  and  C_24
REMARK   10  A    between atoms: C_23  and  C_25
REMARK                            x       y       z     vdW  Elec       q    Type
REMARK                         _______ _______ _______ _____ _____    ______ ____
ROOT
ATOM      3  N   UNL     1      12.013   7.352  19.201  0.00  0.00    -0.298 NA
ATOM      7  C   UNL     1      14.320   8.536  18.998  0.00  0.00    -0.003 C 
ATOM      8  C   UNL     1      14.452   7.198  19.760  0.00  0.00    +0.020 C 
ATOM      9  C   UNL     1      13.297   9.434  19.717  0.00  0.00    +0.024 C 
ATOM     10  C   UNL     1      11.910   8.754  19.687  0.00  0.00    +0.074 C 
ATOM     11  C   UNL     1      13.038   6.613  19.976  0.00  0.00    +0.089 C 
ATOM     12  C   UNL     1      13.739   8.205  17.609  0.00  0.00    +0.019 C 
ATOM     13  C   UNL     1      12.445   7.391  17.782  0.00  0.00    +0.085 C 
ENDROOT
BRANCH   8  14
ATOM     14  C   UNL     1      15.216   7.327  21.076  0.00  0.00    +0.089 C 
BRANCH  14   4
ATOM      4  N   UNL     1      16.429   8.104  20.855  0.00  0.00    -0.297 NA
ATOM     16  C   UNL     1      17.653   7.403  21.263  0.00  0.00    +0.082 C 
ATOM     17  C   UNL     1      16.423   9.342  21.639  0.00  0.00    +0.085 C 
ATOM     18  C   UNL     1      18.682   8.533  21.332  0.00  0.00    +0.022 C 
ATOM     19  C   UNL     1      17.871   9.800  21.581  0.00  0.00    +0.017 C 
BRANCH  16  20
ATOM     20  C   UNL     1      18.078   6.310  20.290  0.00  0.00    +0.178 C 
BRANCH  20   1
ATOM      1  O   UNL     1      19.492   6.223  20.295  0.00  0.00    -0.381 OA
ATOM     22  C   UNL     1      19.936   4.873  20.235  0.00  0.00    +0.194 C 
ENDBRANCH  20   1
ENDBRANCH  16  20
ENDBRANCH  14   4
ENDBRANCH   8  14
BRANCH  10  15
ATOM     15  C   UNL     1      11.200   8.854  21.038  0.00  0.00    +0.124 C 
BRANCH  15   5
ATOM      2  O   UNL     1      10.848  11.308  22.514  0.00  0.00    -0.253 OA
ATOM      5  N   UNL     1      12.122   9.433  22.028  0.00  0.00    -0.298 N 
ATOM      6  N   UNL     1      12.886  10.934  23.556  0.00  0.00    -0.297 N 
ATOM     21  C   UNL     1      11.853  10.619  22.678  0.00  0.00    +0.300 C 
ATOM     26  H   UNL     1      12.984   8.938  22.232  0.00  0.00    +0.150 HD
ATOM     27  H   UNL     1      13.639  10.262  23.677  0.00  0.00    +0.150 HD
BRANCH   6  23
ATOM     23  C   UNL     1      12.882  12.122  24.376  0.00  0.00    +0.068 C 
ATOM     24  C   UNL     1      13.328  13.329  23.561  0.00  0.00    +0.027 C 
ATOM     25  C   UNL     1      13.763  11.927  25.604  0.00  0.00    +0.027 C 
ENDBRANCH   6  23
ENDBRANCH  15   5
ENDBRANCH  10  15
TORSDOF 7
ENDMDL
MODEL 4
REMARK VINA RESULT:      -5.6     18.532     21.077
REMARK  Name = 40779924
REMARK  10 active torsions:
REMARK  status: ('A' for Active; 'I' for Inactive)
REMARK    1  A    between atoms: O_1  and  C_20
REMARK    2  A    between atoms: O_1  and  C_22
REMARK    3  A    between atoms: N_4  and  C_14
REMARK    4  A    between atoms: N_5  and  C_15
REMARK    5  A    between atoms: N_6  and  C_23
REMARK    6  A    between atoms: C_8  and  C_14
REMARK    7  A    between atoms: C_10  and  C_15
REMARK    8  A    between atoms: C_16  and  C_20
REMARK    9  A    between atoms: C_23  and  C_24
REMARK   10  A    between atoms: C_23  and  C_25
REMARK                            x       y       z     vdW  Elec       q    Type
REMARK                         _______ _______ _______ _____ _____    ______ ____
ROOT
ATOM      3  N   UNL     1      13.055   5.720   1.637  0.00  0.00    -0.298 NA
ATOM      7  C   UNL     1      12.889   3.220   0.941  0.00  0.00    -0.003 C 
ATOM      8  C   UNL     1      12.614   4.147  -0.264  0.00  0.00    +0.020 C 
ATOM      9  C   UNL     1      11.898   3.547   2.073  0.00  0.00    +0.024 C 
ATOM     10  C   UNL     1      12.131   4.998   2.552  0.00  0.00    +0.074 C 
ATOM     11  C   UNL     1      12.583   5.609   0.236  0.00  0.00    +0.089 C 
ATOM     12  C   UNL     1      14.300   3.562   1.457  0.00  0.00    +0.019 C 
ATOM     13  C   UNL     1      14.387   5.075   1.729  0.00  0.00    +0.085 C 
ENDROOT
BRANCH   8  14
ATOM     14  C   UNL     1      11.341   3.784  -1.026  0.00  0.00    +0.089 C 
BRANCH  14   4
ATOM      4  N   UNL     1      11.590   3.890  -2.458  0.00  0.00    -0.297 NA
ATOM     16  C   UNL     1      10.515   3.317  -3.280  0.00  0.00    +0.082 C 
ATOM     17  C   UNL     1      12.796   3.157  -2.849  0.00  0.00    +0.085 C 
ATOM     18  C   UNL     1      11.181   3.170  -4.649  0.00  0.00    +0.022 C 
ATOM     19  C   UNL     1      12.674   3.062  -4.361  0.00  0.00    +0.017 C 
BRANCH  16  20
ATOM     20  C   UNL     1       9.271   4.195  -3.347  0.00  0.00    +0.178 C 
BRANCH  20   1
ATOM      1  O   UNL     1       9.677   5.547  -3.470  0.00  0.00    -0.381 OA
ATOM     22  C   UNL     1       8.879   6.410  -2.669  0.00  0.00    +0.194 C 
ENDBRANCH  20   1
ENDBRANCH  16  20
ENDBRANCH  14   4
ENDBRANCH   8  14
BRANCH  10  15
ATOM     15  C   UNL     1      10.812   5.745   2.761  0.00  0.00    +0.124 C 
BRANCH  15   5
ATOM      2  O   UNL     1      11.489   6.570   5.442  0.00  0.00    -0.253 OA
ATOM      5  N   UNL     1      10.190   5.287   4.013  0.00  0.00    -0.298 N 
ATOM      6  N   UNL     1       9.841   5.155   6.256  0.00  0.00    -0.297 N 
ATOM     21  C   UNL     1      10.594   5.750   5.247  0.00  0.00    +0.300 C 
ATOM     26  H   UNL     1       9.440   4.606   3.958  0.00  0.00    +0.150 HD
ATOM     27  H   UNL     1       9.072   4.546   5.991  0.00  0.00    +0.150 HD
BRANCH   6  23
ATOM     23  C   UNL     1      10.040   5.447   7.656  0.00  0.00    +0.068 C 
ATOM     24  C   UNL     1       9.748   4.213   8.500  0.00  0.00    +0.027 C 
ATOM     25  C   UNL     1       9.176   6.626   8.084  0.00  0.00    +0.027 C 
ENDBRANCH   6  23
ENDBRANCH  15   5
ENDBRANCH  10  15
TORSDOF 7
ENDMDL
MODEL 5
REMARK VINA RESULT:      -5.6     17.390     20.914
REMARK  Name = 40779924
REMARK  10 active torsions:
REMARK  status: ('A' for Active; 'I' for Inactive)
REMARK    1  A    between atoms: O_1  and  C_20
REMARK    2  A    between atoms: O_1  and  C_22
REMARK    3  A    between atoms: N_4  and  C_14
REMARK    4  A    between atoms: N_5  and  C_15
REMARK    5  A    between atoms: N_6  and  C_23
REMARK    6  A    between atoms: C_8  and  C_14
REMARK    7  A    between atoms: C_10  and  C_15
REMARK    8  A    between atoms: C_16  and  C_20
REMARK    9  A    between atoms: C_23  and  C_24
REMARK   10  A    between atoms: C_23  and  C_25
REMARK                            x       y       z     vdW  Elec       q    Type
REMARK                         _______ _______ _______ _____ _____    ______ ____
ROOT
ATOM      3  N   UNL     1      12.739   5.305   0.530  0.00  0.00    -0.298 NA
ATOM      7  C   UNL     1      10.872   4.325   2.053  0.00  0.00    -0.003 C 
ATOM      8  C   UNL     1      11.234   5.765   2.481  0.00  0.00    +0.020 C 
ATOM      9  C   UNL     1      12.137   3.449   2.092  0.00  0.00    +0.024 C 
ATOM     10  C   UNL     1      13.163   3.985   1.068  0.00  0.00    +0.074 C 
ATOM     11  C   UNL     1      12.440   6.241   1.641  0.00  0.00    +0.089 C 
ATOM     12  C   UNL     1      10.413   4.397   0.583  0.00  0.00    +0.019 C 
ATOM     13  C   UNL     1      11.495   5.104  -0.252  0.00  0.00    +0.085 C 
ENDROOT
BRANCH   8  14
ATOM     14  C   UNL     1      11.502   5.899   3.979  0.00  0.00    +0.089 C 
BRANCH  14   4
ATOM      4  N   UNL     1      10.340   6.497   4.625  0.00  0.00    -0.297 NA
ATOM     16  C   UNL     1       9.375   5.505   5.120  0.00  0.00    +0.082 C 
ATOM     17  C   UNL     1       9.578   7.332   3.693  0.00  0.00    +0.085 C 
ATOM     18  C   UNL     1       8.117   6.345   5.349  0.00  0.00    +0.022 C 
ATOM     19  C   UNL     1       8.253   7.538   4.409  0.00  0.00    +0.017 C 
BRANCH  16  20
ATOM     20  C   UNL     1       9.827   4.806   6.396  0.00  0.00    +0.178 C 
BRANCH  20   1
ATOM      1  O   UNL     1       9.378   5.559   7.509  0.00  0.00    -0.381 OA
ATOM     22  C   UNL     1      10.430   5.810   8.433  0.00  0.00    +0.194 C 
ENDBRANCH  20   1
ENDBRANCH  16  20
ENDBRANCH  14   4
ENDBRANCH   8  14
BRANCH  10  15
ATOM     15  C   UNL     1      14.579   4.015   1.646  0.00  0.00    +0.124 C 
BRANCH  15   5
ATOM      2  O   UNL     1      16.088   5.794  -0.053  0.00  0.00    -0.253 OA
ATOM      5  N   UNL     1      15.538   3.637   0.595  0.00  0.00    -0.298 N 
ATOM      6  N   UNL     1      17.049   3.946  -1.076  0.00  0.00    -0.297 N 
ATOM     21  C   UNL     1      16.207   4.574  -0.162  0.00  0.00    +0.300 C 
ATOM     26  H   UNL     1      15.705   2.650   0.427  0.00  0.00    +0.150 HD
ATOM     27  H   UNL     1      17.135   2.934  -1.037  0.00  0.00    +0.150 HD
BRANCH   6  23
ATOM     23  C   UNL     1      17.878   4.675  -2.006  0.00  0.00    +0.068 C 
ATOM     24  C   UNL     1      17.147   4.870  -3.327  0.00  0.00    +0.027 C 
ATOM     25  C   UNL     1      19.208   3.960  -2.210  0.00  0.00    +0.027 C 
ENDBRANCH   6  23
ENDBRANCH  15   5
ENDBRANCH  10  15
TORSDOF 7
ENDMDL
MODEL 6
REMARK VINA RESULT:      -5.6     15.400     17.844
REMARK  Name = 40779924
REMARK  10 active torsions:
REMARK  status: ('A' for Active; 'I' for Inactive)
REMARK    1  A    between atoms: O_1  and  C_20
REMARK    2  A    between atoms: O_1  and  C_22
REMARK    3  A    between atoms: N_4  and  C_14
REMARK    4  A    between atoms: N_5  and  C_15
REMARK    5  A    between atoms: N_6  and  C_23
REMARK    6  A    between atoms: C_8  and  C_14
REMARK    7  A    between atoms: C_10  and  C_15
REMARK    8  A    between atoms: C_16  and  C_20
REMARK    9  A    between atoms: C_23  and  C_24
REMARK   10  A    between atoms: C_23  and  C_25
REMARK                            x       y       z     vdW  Elec       q    Type
REMARK                         _______ _______ _______ _____ _____    ______ ____
ROOT
ATOM      3  N   UNL     1      10.365   7.138   6.842  0.00  0.00    -0.298 NA
ATOM      7  C   UNL     1       9.382   5.081   5.589  0.00  0.00    -0.003 C 
ATOM      8  C   UNL     1      10.732   5.509   4.972  0.00  0.00    +0.020 C 
ATOM      9  C   UNL     1       8.405   6.270   5.555  0.00  0.00    +0.024 C 
ATOM     10  C   UNL     1       8.963   7.416   6.429  0.00  0.00    +0.074 C 
ATOM     11  C   UNL     1      11.196   6.814   5.657  0.00  0.00    +0.089 C 
ATOM     12  C   UNL     1       9.651   4.755   7.072  0.00  0.00    +0.019 C 
ATOM     13  C   UNL     1      10.352   5.953   7.735  0.00  0.00    +0.085 C 
ENDROOT
BRANCH   8  14
ATOM     14  C   UNL     1      10.680   5.658   3.453  0.00  0.00    +0.089 C 
BRANCH  14   4
ATOM      4  N   UNL     1      11.838   4.997   2.864  0.00  0.00    -0.297 NA
ATOM     16  C   UNL     1      12.352   5.679   1.669  0.00  0.00    +0.082 C 
ATOM     17  C   UNL     1      11.513   3.641   2.415  0.00  0.00    +0.085 C 
ATOM     18  C   UNL     1      13.240   4.611   1.028  0.00  0.00    +0.022 C 
ATOM     19  C   UNL     1      12.684   3.279   1.517  0.00  0.00    +0.017 C 
BRANCH  16  20
ATOM     20  C   UNL     1      13.133   6.948   1.985  0.00  0.00    +0.178 C 
BRANCH  20   1
ATOM      1  O   UNL     1      14.047   6.669   3.031  0.00  0.00    -0.381 OA
ATOM     22  C   UNL     1      14.275   7.811   3.849  0.00  0.00    +0.194 C 
ENDBRANCH  20   1
ENDBRANCH  16  20
ENDBRANCH  14   4
ENDBRANCH   8  14
BRANCH  10  15
ATOM     15  C   UNL     1       8.814   8.776   5.745  0.00  0.00    +0.124 C 
BRANCH  15   5
ATOM      2  O   UNL     1       7.812  10.880   4.043  0.00  0.00    -0.253 OA
ATOM      5  N   UNL     1       7.466   8.880   5.163  0.00  0.00    -0.298 N 
ATOM      6  N   UNL     1       5.770   9.782   3.946  0.00  0.00    -0.297 N 
ATOM     21  C   UNL     1       7.091   9.935   4.359  0.00  0.00    +0.300 C 
ATOM     26  H   UNL     1       6.795   8.147   5.368  0.00  0.00    +0.150 HD
ATOM     27  H   UNL     1       5.280   8.928   4.198  0.00  0.00    +0.150 HD
BRANCH   6  23
ATOM     23  C   UNL     1       5.102  10.736   3.093  0.00  0.00    +0.068 C 
ATOM     24  C   UNL     1       4.317  11.736   3.931  0.00  0.00    +0.027 C 
ATOM     25  C   UNL     1       4.199  10.020   2.097  0.00  0.00    +0.027 C 
ENDBRANCH   6  23
ENDBRANCH  15   5
ENDBRANCH  10  15
TORSDOF 7
ENDMDL
MODEL 7
REMARK VINA RESULT:      -5.6     15.781     18.903
REMARK  Name = 40779924
REMARK  10 active torsions:
REMARK  status: ('A' for Active; 'I' for Inactive)
REMARK    1  A    between atoms: O_1  and  C_20
REMARK    2  A    between atoms: O_1  and  C_22
REMARK    3  A    between atoms: N_4  and  C_14
REMARK    4  A    between atoms: N_5  and  C_15
REMARK    5  A    between atoms: N_6  and  C_23
REMARK    6  A    between atoms: C_8  and  C_14
REMARK    7  A    between atoms: C_10  and  C_15
REMARK    8  A    between atoms: C_16  and  C_20
REMARK    9  A    between atoms: C_23  and  C_24
REMARK   10  A    between atoms: C_23  and  C_25
REMARK                            x       y       z     vdW  Elec       q    Type
REMARK                         _______ _______ _______ _____ _____    ______ ____
ROOT
ATOM      3  N   UNL     1      12.171   5.613   0.177  0.00  0.00    -0.298 NA
ATOM      7  C   UNL     1      11.105   4.374   2.201  0.00  0.00    -0.003 C 
ATOM      8  C   UNL     1      10.977   5.906   2.361  0.00  0.00    +0.020 C 
ATOM      9  C   UNL     1      12.590   4.001   2.042  0.00  0.00    +0.024 C 
ATOM     10  C   UNL     1      13.143   4.643   0.750  0.00  0.00    +0.074 C 
ATOM     11  C   UNL     1      11.749   6.589   1.211  0.00  0.00    +0.089 C 
ATOM     12  C   UNL     1      10.398   4.001   0.883  0.00  0.00    +0.019 C 
ATOM     13  C   UNL     1      10.973   4.856  -0.260  0.00  0.00    +0.085 C 
ENDROOT
BRANCH   8  14
ATOM     14  C   UNL     1      11.438   6.409   3.728  0.00  0.00    +0.089 C 
BRANCH  14   4
ATOM      4  N   UNL     1      10.282   6.869   4.488  0.00  0.00    -0.297 NA
ATOM     16  C   UNL     1       9.433   5.773   4.974  0.00  0.00    +0.082 C 
ATOM     17  C   UNL     1       9.396   7.698   3.668  0.00  0.00    +0.085 C 
ATOM     18  C   UNL     1       8.134   6.493   5.342  0.00  0.00    +0.022 C 
ATOM     19  C   UNL     1       8.113   7.750   4.481  0.00  0.00    +0.017 C 
BRANCH  16  20
ATOM     20  C   UNL     1      10.025   5.032   6.166  0.00  0.00    +0.178 C 
BRANCH  20   1
ATOM      1  O   UNL     1      10.466   5.983   7.118  0.00  0.00    -0.381 OA
ATOM     22  C   UNL     1      10.055   5.639   8.436  0.00  0.00    +0.194 C 
ENDBRANCH  20   1
ENDBRANCH  16  20
ENDBRANCH  14   4
ENDBRANCH   8  14
BRANCH  10  15
ATOM     15  C   UNL     1      14.526   5.260   0.969  0.00  0.00    +0.124 C 
BRANCH  15   5
ATOM      2  O   UNL     1      14.912   7.801   2.280  0.00  0.00    -0.253 OA
ATOM      5  N   UNL     1      14.729   5.494   2.407  0.00  0.00    -0.298 N 
ATOM      6  N   UNL     1      15.074   6.691   4.310  0.00  0.00    -0.297 N 
ATOM     21  C   UNL     1      14.905   6.757   2.929  0.00  0.00    +0.300 C 
ATOM     26  H   UNL     1      14.741   4.692   3.029  0.00  0.00    +0.150 HD
ATOM     27  H   UNL     1      14.976   5.788   4.766  0.00  0.00    +0.150 HD
BRANCH   6  23
ATOM     23  C   UNL     1      15.280   7.861   5.130  0.00  0.00    +0.068 C 
ATOM     24  C   UNL     1      16.757   8.227   5.168  0.00  0.00    +0.027 C 
ATOM     25  C   UNL     1      14.731   7.633   6.533  0.00  0.00    +0.027 C 
ENDBRANCH   6  23
ENDBRANCH  15   5
ENDBRANCH  10  15
TORSDOF 7
ENDMDL
MODEL 8
REMARK VINA RESULT:      -5.5     26.444     29.402
REMARK  Name = 40779924
REMARK  10 active torsions:
REMARK  status: ('A' for Active; 'I' for Inactive)
REMARK    1  A    between atoms: O_1  and  C_20
REMARK    2  A    between atoms: O_1  and  C_22
REMARK    3  A    between atoms: N_4  and  C_14
REMARK    4  A    between atoms: N_5  and  C_15
REMARK    5  A    between atoms: N_6  and  C_23
REMARK    6  A    between atoms: C_8  and  C_14
REMARK    7  A    between atoms: C_10  and  C_15
REMARK    8  A    between atoms: C_16  and  C_20
REMARK    9  A    between atoms: C_23  and  C_24
REMARK   10  A    between atoms: C_23  and  C_25
REMARK                            x       y       z     vdW  Elec       q    Type
REMARK                         _______ _______ _______ _____ _____    ______ ____
ROOT
ATOM      3  N   UNL     1      -5.255 -12.800  17.206  0.00  0.00    -0.298 NA
ATOM      7  C   UNL     1      -5.708 -10.324  17.860  0.00  0.00    -0.003 C 
ATOM      8  C   UNL     1      -7.015 -11.029  17.433  0.00  0.00    +0.020 C 
ATOM      9  C   UNL     1      -4.681 -10.417  16.718  0.00  0.00    +0.024 C 
ATOM     10  C   UNL     1      -4.335 -11.901  16.460  0.00  0.00    +0.074 C 
ATOM     11  C   UNL     1      -6.666 -12.445  16.920  0.00  0.00    +0.089 C 
ATOM     12  C   UNL     1      -5.139 -11.120  19.051  0.00  0.00    +0.019 C 
ATOM     13  C   UNL     1      -5.014 -12.602  18.656  0.00  0.00    +0.085 C 
ENDROOT
BRANCH   8  14
ATOM     14  C   UNL     1      -7.818 -10.238  16.402  0.00  0.00    +0.089 C 
BRANCH  14   4
ATOM      4  N   UNL     1      -9.182 -10.065  16.883  0.00  0.00    -0.297 NA
ATOM     16  C   UNL     1      -9.597  -8.658  16.964  0.00  0.00    +0.082 C 
ATOM     17  C   UNL     1      -9.342 -10.585  18.243  0.00  0.00    +0.085 C 
ATOM     18  C   UNL     1     -10.838  -8.725  17.857  0.00  0.00    +0.022 C 
ATOM     19  C   UNL     1     -10.663  -9.987  18.695  0.00  0.00    +0.017 C 
BRANCH  16  20
ATOM     20  C   UNL     1      -9.911  -8.040  15.607  0.00  0.00    +0.178 C 
BRANCH  20   1
ATOM      1  O   UNL     1     -10.001  -6.635  15.760  0.00  0.00    -0.381 OA
ATOM     22  C   UNL     1     -11.221  -6.126  15.234  0.00  0.00    +0.194 C 
ENDBRANCH  20   1
ENDBRANCH  16  20
ENDBRANCH  14   4
ENDBRANCH   8  14
BRANCH  10  15
ATOM     15  C   UNL     1      -4.287 -12.222  14.965  0.00  0.00    +0.124 C 
BRANCH  15   5
ATOM      2  O   UNL     1      -3.418 -12.218  12.214  0.00  0.00    -0.253 OA
ATOM      5  N   UNL     1      -3.577 -11.142  14.261  0.00  0.00    -0.298 N 
ATOM      6  N   UNL     1      -2.554 -10.088  12.525  0.00  0.00    -0.297 N 
ATOM     21  C   UNL     1      -3.207 -11.247  12.938  0.00  0.00    +0.300 C 
ATOM     26  H   UNL     1      -3.354 -10.296  14.775  0.00  0.00    +0.150 HD
ATOM     27  H   UNL     1      -2.495  -9.309  13.175  0.00  0.00    +0.150 HD
BRANCH   6  23
ATOM     23  C   UNL     1      -2.050  -9.908  11.185  0.00  0.00    +0.068 C 
ATOM     24  C   UNL     1      -0.812  -9.022  11.199  0.00  0.00    +0.027 C 
ATOM     25  C   UNL     1      -3.132  -9.331  10.280  0.00  0.00    +0.027 C 
ENDBRANCH   6  23
ENDBRANCH  15   5
ENDBRANCH  10  15
TORSDOF 7
ENDMDL
MODEL 9
REMARK VINA RESULT:      -5.5      5.182      8.861
REMARK  Name = 40779924
REMARK  10 active torsions:
REMARK  status: ('A' for Active; 'I' for Inactive)
REMARK    1  A    between atoms: O_1  and  C_20
REMARK    2  A    between atoms: O_1  and  C_22
REMARK    3  A    between atoms: N_4  and  C_14
REMARK    4  A    between atoms: N_5  and  C_15
REMARK    5  A    between atoms: N_6  and  C_23
REMARK    6  A    between atoms: C_8  and  C_14
REMARK    7  A    between atoms: C_10  and  C_15
REMARK    8  A    between atoms: C_16  and  C_20
REMARK    9  A    between atoms: C_23  and  C_24
REMARK   10  A    between atoms: C_23  and  C_25
REMARK                            x       y       z     vdW  Elec       q    Type
REMARK                         _______ _______ _______ _____ _____    ______ ____
ROOT
ATOM      3  N   UNL     1      21.291   6.897  20.351  0.00  0.00    -0.298 NA
ATOM      7  C   UNL     1      21.711   6.062  22.778  0.00  0.00    -0.003 C 
ATOM      8  C   UNL     1      22.383   5.126  21.749  0.00  0.00    +0.020 C 
ATOM      9  C   UNL     1      20.204   6.155  22.476  0.00  0.00    +0.024 C 
ATOM     10  C   UNL     1      20.000   6.789  21.081  0.00  0.00    +0.074 C 
ATOM     11  C   UNL     1      21.982   5.585  20.329  0.00  0.00    +0.089 C 
ATOM     12  C   UNL     1      22.307   7.467  22.561  0.00  0.00    +0.019 C 
ATOM     13  C   UNL     1      22.152   7.860  21.081  0.00  0.00    +0.085 C 
ENDROOT
BRANCH   8  14
ATOM     14  C   UNL     1      22.060   3.650  21.976  0.00  0.00    +0.089 C 
BRANCH  14   4
ATOM      4  N   UNL     1      23.269   2.952  22.394  0.00  0.00    -0.297 NA
ATOM     16  C   UNL     1      23.724   1.945  21.426  0.00  0.00    +0.082 C 
ATOM     17  C   UNL     1      23.057   2.210  23.639  0.00  0.00    +0.085 C 
ATOM     18  C   UNL     1      24.698   1.101  22.251  0.00  0.00    +0.022 C 
ATOM     19  C   UNL     1      24.254   1.275  23.699  0.00  0.00    +0.017 C 
BRANCH  16  20
ATOM     20  C   UNL     1      24.397   2.547  20.198  0.00  0.00    +0.178 C 
BRANCH  20   1
ATOM      1  O   UNL     1      25.654   3.074  20.584  0.00  0.00    -0.381 OA
ATOM     22  C   UNL     1      25.789   4.440  20.208  0.00  0.00    +0.194 C 
ENDBRANCH  20   1
ENDBRANCH  16  20
ENDBRANCH  14   4
ENDBRANCH   8  14
BRANCH  10  15
ATOM     15  C   UNL     1      18.931   6.052  20.274  0.00  0.00    +0.124 C 
BRANCH  15   5
ATOM      2  O   UNL     1      16.593   5.580  18.648  0.00  0.00    -0.253 OA
ATOM      5  N   UNL     1      17.723   6.890  20.192  0.00  0.00    -0.298 N 
ATOM      6  N   UNL     1      15.655   7.526  19.493  0.00  0.00    -0.297 N 
ATOM     21  C   UNL     1      16.659   6.569  19.377  0.00  0.00    +0.300 C 
ATOM     26  H   UNL     1      17.682   7.732  20.756  0.00  0.00    +0.150 HD
ATOM     27  H   UNL     1      15.770   8.267  20.180  0.00  0.00    +0.150 HD
BRANCH   6  23
ATOM     23  C   UNL     1      14.416   7.454  18.756  0.00  0.00    +0.068 C 
ATOM     24  C   UNL     1      14.095   8.804  18.128  0.00  0.00    +0.027 C 
ATOM     25  C   UNL     1      13.284   6.983  19.660  0.00  0.00    +0.027 C 
ENDBRANCH   6  23
ENDBRANCH  15   5
ENDBRANCH  10  15
TORSDOF 7
ENDMDL
MODEL 10
REMARK VINA RESULT:      -5.3     28.478     31.231
REMARK  Name = 40779924
REMARK  10 active torsions:
REMARK  status: ('A' for Active; 'I' for Inactive)
REMARK    1  A    between atoms: O_1  and  C_20
REMARK    2  A    between atoms: O_1  and  C_22
REMARK    3  A    between atoms: N_4  and  C_14
REMARK    4  A    between atoms: N_5  and  C_15
REMARK    5  A    between atoms: N_6  and  C_23
REMARK    6  A    between atoms: C_8  and  C_14
REMARK    7  A    between atoms: C_10  and  C_15
REMARK    8  A    between atoms: C_16  and  C_20
REMARK    9  A    between atoms: C_23  and  C_24
REMARK   10  A    between atoms: C_23  and  C_25
REMARK                            x       y       z     vdW  Elec       q    Type
REMARK                         _______ _______ _______ _____ _____    ______ ____
ROOT
ATOM      3  N   UNL     1     -11.926  -8.543  15.193  0.00  0.00    -0.298 NA
ATOM      7  C   UNL     1     -13.493  -6.476  15.393  0.00  0.00    -0.003 C 
ATOM      8  C   UNL     1     -12.955  -6.623  13.952  0.00  0.00    +0.020 C 
ATOM      9  C   UNL     1     -12.309  -6.372  16.372  0.00  0.00    +0.024 C 
ATOM     10  C   UNL     1     -11.487  -7.680  16.322  0.00  0.00    +0.074 C 
ATOM     11  C   UNL     1     -11.923  -7.773  13.926  0.00  0.00    +0.089 C 
ATOM     12  C   UNL     1     -14.244  -7.781  15.726  0.00  0.00    +0.019 C 
ATOM     13  C   UNL     1     -13.317  -8.980  15.465  0.00  0.00    +0.085 C 
ENDROOT
BRANCH   8  14
ATOM     14  C   UNL     1     -12.371  -5.327  13.392  0.00  0.00    +0.089 C 
BRANCH  14   4
ATOM      4  N   UNL     1     -13.282  -4.779  12.396  0.00  0.00    -0.297 NA
ATOM     16  C   UNL     1     -12.609  -3.957  11.381  0.00  0.00    +0.082 C 
ATOM     17  C   UNL     1     -14.273  -3.890  13.006  0.00  0.00    +0.085 C 
ATOM     18  C   UNL     1     -13.770  -3.189  10.747  0.00  0.00    +0.022 C 
ATOM     19  C   UNL     1     -14.855  -3.145  11.816  0.00  0.00    +0.017 C 
BRANCH  16  20
ATOM     20  C   UNL     1     -11.842  -4.776  10.350  0.00  0.00    +0.178 C 
BRANCH  20   1
ATOM      1  O   UNL     1     -10.988  -3.907   9.626  0.00  0.00    -0.381 OA
ATOM     22  C   UNL     1     -10.077  -4.629   8.806  0.00  0.00    +0.194 C 
ENDBRANCH  20   1
ENDBRANCH  16  20
ENDBRANCH  14   4
ENDBRANCH   8  14
BRANCH  10  15
ATOM     15  C   UNL     1      -9.983  -7.405  16.299  0.00  0.00    +0.124 C 
BRANCH  15   5
ATOM      2  O   UNL     1      -8.132  -9.610  16.111  0.00  0.00    -0.253 OA
ATOM      5  N   UNL     1      -9.342  -8.123  17.413  0.00  0.00    -0.298 N 
ATOM      6  N   UNL     1      -8.012  -9.663  18.427  0.00  0.00    -0.297 N 
ATOM     21  C   UNL     1      -8.469  -9.169  17.208  0.00  0.00    +0.300 C 
ATOM     26  H   UNL     1      -9.559  -7.833  18.361  0.00  0.00    +0.150 HD
ATOM     27  H   UNL     1      -8.289  -9.182  19.278  0.00  0.00    +0.150 HD
BRANCH   6  23
ATOM     23  C   UNL     1      -7.083 -10.763  18.526  0.00  0.00    +0.068 C 
ATOM     24  C   UNL     1      -7.834 -12.074  18.720  0.00  0.00    +0.027 C 
ATOM     25  C   UNL     1      -6.090 -10.523  19.657  0.00  0.00    +0.027 C 
ENDBRANCH   6  23
ENDBRANCH  15   5
ENDBRANCH  10  15
TORSDOF 7
ENDMDL
