MODEL 1
REMARK VINA RESULT:      -6.8      0.000      0.000
REMARK  Name = 71694092
REMARK  8 active torsions:
REMARK  status: ('A' for Active; 'I' for Inactive)
REMARK    1  A    between atoms: O_4  and  C_26
REMARK    2  A    between atoms: O_4  and  C_27
REMARK    3  A    between atoms: N_5  and  C_7
REMARK    4  A    between atoms: N_5  and  C_12
REMARK    5  A    between atoms: C_7  and  C_10
REMARK    6  A    between atoms: C_10  and  C_11
REMARK    7  A    between atoms: C_12  and  C_13
REMARK    8  A    between atoms: C_15  and  C_18
REMARK                            x       y       z     vdW  Elec       q    Type
REMARK                         _______ _______ _______ _____ _____    ______ ____
ROOT
ATOM      2  O   UNL     1      13.028   8.537  16.062  0.00  0.00    -0.376 OA
ATOM      7  C   UNL     1      12.968   8.271  18.183  0.00  0.00    +0.072 C 
ATOM      8  C   UNL     1      11.959   8.381  17.032  0.00  0.00    +0.184 C 
ATOM      9  C   UNL     1      13.991   8.726  17.133  0.00  0.00    +0.184 C 
ENDROOT
BRANCH   7   5
ATOM      5  N   UNL     1      12.738   9.378  19.113  0.00  0.00    -0.302 NA
ATOM     28  H   UNL     1      13.529   9.629  19.703  0.00  0.00    +0.123 HD
BRANCH   5  12
ATOM     12  C   UNL     1      11.565   9.089  19.929  0.00  0.00    +0.118 C 
BRANCH  12  13
ATOM      1 CL   UNL     1      10.288   7.902  22.478  0.00  0.00    -0.083 Cl
ATOM     13  C   UNL     1      11.513   9.950  21.163  0.00  0.00    -0.015 A 
ATOM     16  C   UNL     1      10.954   9.489  22.355  0.00  0.00    +0.045 A 
ATOM     17  C   UNL     1      12.046  11.238  21.095  0.00  0.00    +0.006 A 
ATOM     19  C   UNL     1      10.926  10.316  23.478  0.00  0.00    +0.020 A 
ATOM     20  C   UNL     1      12.017  12.065  22.217  0.00  0.00    +0.000 A 
ATOM     21  C   UNL     1      11.457  11.604  23.410  0.00  0.00    +0.001 A 
ENDBRANCH  12  13
ENDBRANCH   5  12
ENDBRANCH   7   5
BRANCH   7  10
ATOM     10  C   UNL     1      13.165   6.945  18.871  0.00  0.00    +0.085 C 
BRANCH  10  11
ATOM      3  O   UNL     1      15.696   7.216  21.433  0.00  0.00    -0.354 OA
ATOM      6  N   UNL     1      14.383   7.309  20.985  0.00  0.00    -0.083 NA
ATOM     11  C   UNL     1      14.432   6.960  19.697  0.00  0.00    +0.086 A 
ATOM     14  C   UNL     1      15.735   6.640  19.280  0.00  0.00    +0.076 A 
ATOM     15  C   UNL     1      16.491   6.817  20.408  0.00  0.00    +0.167 A 
BRANCH  15  18
ATOM     18  C   UNL     1      17.883   6.673  20.720  0.00  0.00    +0.020 A 
ATOM     22  C   UNL     1      18.624   5.641  20.144  0.00  0.00    +0.015 A 
ATOM     23  C   UNL     1      18.497   7.564  21.599  0.00  0.00    +0.015 A 
ATOM     24  C   UNL     1      19.978   5.501  20.448  0.00  0.00    +0.046 A 
ATOM     25  C   UNL     1      19.851   7.425  21.902  0.00  0.00    +0.046 A 
ATOM     26  C   UNL     1      20.591   6.393  21.327  0.00  0.00    +0.120 A 
BRANCH  26   4
ATOM      4  O   UNL     1      21.914   6.259  21.620  0.00  0.00    -0.495 OA
ATOM     27  C   UNL     1      22.480   4.957  21.482  0.00  0.00    +0.277 C 
ENDBRANCH  26   4
ENDBRANCH  15  18
ENDBRANCH  10  11
ENDBRANCH   7  10
TORSDOF 7
ENDMDL
MODEL 2
REMARK VINA RESULT:      -6.2     26.880     28.889
REMARK  Name = 71694092
REMARK  8 active torsions:
REMARK  status: ('A' for Active; 'I' for Inactive)
REMARK    1  A    between atoms: O_4  and  C_26
REMARK    2  A    between atoms: O_4  and  C_27
REMARK    3  A    between atoms: N_5  and  C_7
REMARK    4  A    between atoms: N_5  and  C_12
REMARK    5  A    between atoms: C_7  and  C_10
REMARK    6  A    between atoms: C_10  and  C_11
REMARK    7  A    between atoms: C_12  and  C_13
REMARK    8  A    between atoms: C_15  and  C_18
REMARK                            x       y       z     vdW  Elec       q    Type
REMARK                         _______ _______ _______ _____ _____    ______ ____
ROOT
ATOM      2  O   UNL     1      -2.125 -13.669  12.957  0.00  0.00    -0.376 OA
ATOM      7  C   UNL     1      -2.626 -12.044  14.252  0.00  0.00    +0.072 C 
ATOM      8  C   UNL     1      -1.463 -13.030  14.080  0.00  0.00    +0.184 C 
ATOM      9  C   UNL     1      -3.356 -12.959  13.259  0.00  0.00    +0.184 C 
ENDROOT
BRANCH   7   5
ATOM      5  N   UNL     1      -3.213 -12.242  15.580  0.00  0.00    -0.302 NA
ATOM     28  H   UNL     1      -4.153 -12.632  15.591  0.00  0.00    +0.123 HD
BRANCH   5  12
ATOM     12  C   UNL     1      -3.174 -10.986  16.319  0.00  0.00    +0.118 C 
BRANCH  12  13
ATOM      1 CL   UNL     1      -3.768 -11.959  19.188  0.00  0.00    -0.083 Cl
ATOM     13  C   UNL     1      -4.512 -10.646  16.919  0.00  0.00    -0.015 A 
ATOM     16  C   UNL     1      -4.858 -11.047  18.209  0.00  0.00    +0.045 A 
ATOM     17  C   UNL     1      -5.414  -9.908  16.152  0.00  0.00    +0.006 A 
ATOM     19  C   UNL     1      -6.108 -10.712  18.732  0.00  0.00    +0.020 A 
ATOM     20  C   UNL     1      -6.663  -9.574  16.675  0.00  0.00    +0.000 A 
ATOM     21  C   UNL     1      -7.010  -9.975  17.965  0.00  0.00    +0.001 A 
ENDBRANCH  12  13
ENDBRANCH   5  12
ENDBRANCH   7   5
BRANCH   7  10
ATOM     10  C   UNL     1      -2.425 -10.594  13.900  0.00  0.00    +0.085 C 
BRANCH  10  11
ATOM      3  O   UNL     1      -2.938  -9.994  10.376  0.00  0.00    -0.354 OA
ATOM      6  N   UNL     1      -2.131 -10.283  11.470  0.00  0.00    -0.083 NA
ATOM     11  C   UNL     1      -2.962 -10.305  12.516  0.00  0.00    +0.086 A 
ATOM     14  C   UNL     1      -4.291 -10.039  12.147  0.00  0.00    +0.076 A 
ATOM     15  C   UNL     1      -4.222  -9.851  10.792  0.00  0.00    +0.167 A 
BRANCH  15  18
ATOM     18  C   UNL     1      -5.179  -9.551   9.766  0.00  0.00    +0.020 A 
ATOM     22  C   UNL     1      -4.914  -9.899   8.442  0.00  0.00    +0.015 A 
ATOM     23  C   UNL     1      -6.374  -8.913  10.093  0.00  0.00    +0.015 A 
ATOM     24  C   UNL     1      -5.844  -9.608   7.444  0.00  0.00    +0.046 A 
ATOM     25  C   UNL     1      -7.305  -8.621   9.096  0.00  0.00    +0.046 A 
ATOM     26  C   UNL     1      -7.040  -8.968   7.772  0.00  0.00    +0.120 A 
BRANCH  26   4
ATOM      4  O   UNL     1      -7.950  -8.687   6.799  0.00  0.00    -0.495 OA
ATOM     27  C   UNL     1      -8.200  -7.310   6.524  0.00  0.00    +0.277 C 
ENDBRANCH  26   4
ENDBRANCH  15  18
ENDBRANCH  10  11
ENDBRANCH   7  10
TORSDOF 7
ENDMDL
MODEL 3
REMARK VINA RESULT:      -6.1     26.819     28.867
REMARK  Name = 71694092
REMARK  8 active torsions:
REMARK  status: ('A' for Active; 'I' for Inactive)
REMARK    1  A    between atoms: O_4  and  C_26
REMARK    2  A    between atoms: O_4  and  C_27
REMARK    3  A    between atoms: N_5  and  C_7
REMARK    4  A    between atoms: N_5  and  C_12
REMARK    5  A    between atoms: C_7  and  C_10
REMARK    6  A    between atoms: C_10  and  C_11
REMARK    7  A    between atoms: C_12  and  C_13
REMARK    8  A    between atoms: C_15  and  C_18
REMARK                            x       y       z     vdW  Elec       q    Type
REMARK                         _______ _______ _______ _____ _____    ______ ____
ROOT
ATOM      2  O   UNL     1      -2.242 -13.670  12.758  0.00  0.00    -0.376 OA
ATOM      7  C   UNL     1      -2.570 -12.089  14.158  0.00  0.00    +0.072 C 
ATOM      8  C   UNL     1      -1.476 -13.123  13.864  0.00  0.00    +0.184 C 
ATOM      9  C   UNL     1      -3.411 -12.914  13.174  0.00  0.00    +0.184 C 
ENDROOT
BRANCH   7   5
ATOM      5  N   UNL     1      -3.082 -12.322  15.511  0.00  0.00    -0.302 NA
ATOM     28  H   UNL     1      -3.978 -12.802  15.566  0.00  0.00    +0.123 HD
BRANCH   5  12
ATOM     12  C   UNL     1      -3.136 -11.057  16.232  0.00  0.00    +0.118 C 
BRANCH  12  13
ATOM      1 CL   UNL     1      -5.781  -9.646  15.490  0.00  0.00    -0.083 Cl
ATOM     13  C   UNL     1      -4.242 -11.041  17.254  0.00  0.00    -0.015 A 
ATOM     16  C   UNL     1      -5.467 -10.425  16.997  0.00  0.00    +0.045 A 
ATOM     17  C   UNL     1      -4.019 -11.664  18.482  0.00  0.00    +0.006 A 
ATOM     19  C   UNL     1      -6.469 -10.433  17.969  0.00  0.00    +0.020 A 
ATOM     20  C   UNL     1      -5.019 -11.670  19.453  0.00  0.00    +0.000 A 
ATOM     21  C   UNL     1      -6.245 -11.055  19.196  0.00  0.00    +0.001 A 
ENDBRANCH  12  13
ENDBRANCH   5  12
ENDBRANCH   7   5
BRANCH   7  10
ATOM     10  C   UNL     1      -2.313 -10.634  13.861  0.00  0.00    +0.085 C 
BRANCH  10  11
ATOM      3  O   UNL     1      -2.779  -9.777  10.384  0.00  0.00    -0.354 OA
ATOM      6  N   UNL     1      -1.980 -10.090  11.478  0.00  0.00    -0.083 NA
ATOM     11  C   UNL     1      -2.835 -10.273  12.488  0.00  0.00    +0.086 A 
ATOM     14  C   UNL     1      -4.171 -10.091  12.096  0.00  0.00    +0.076 A 
ATOM     15  C   UNL     1      -4.081  -9.781  10.765  0.00  0.00    +0.167 A 
BRANCH  15  18
ATOM     18  C   UNL     1      -5.032  -9.475   9.735  0.00  0.00    +0.020 A 
ATOM     22  C   UNL     1      -4.874 -10.014   8.458  0.00  0.00    +0.015 A 
ATOM     23  C   UNL     1      -6.115  -8.642  10.011  0.00  0.00    +0.015 A 
ATOM     24  C   UNL     1      -5.798  -9.717   7.457  0.00  0.00    +0.046 A 
ATOM     25  C   UNL     1      -7.039  -8.345   9.010  0.00  0.00    +0.046 A 
ATOM     26  C   UNL     1      -6.881  -8.882   7.733  0.00  0.00    +0.120 A 
BRANCH  26   4
ATOM      4  O   UNL     1      -7.786  -8.595   6.757  0.00  0.00    -0.495 OA
ATOM     27  C   UNL     1      -8.226  -7.242   6.657  0.00  0.00    +0.277 C 
ENDBRANCH  26   4
ENDBRANCH  15  18
ENDBRANCH  10  11
ENDBRANCH   7  10
TORSDOF 7
ENDMDL
MODEL 4
REMARK VINA RESULT:      -5.9     28.498     31.465
REMARK  Name = 71694092
REMARK  8 active torsions:
REMARK  status: ('A' for Active; 'I' for Inactive)
REMARK    1  A    between atoms: O_4  and  C_26
REMARK    2  A    between atoms: O_4  and  C_27
REMARK    3  A    between atoms: N_5  and  C_7
REMARK    4  A    between atoms: N_5  and  C_12
REMARK    5  A    between atoms: C_7  and  C_10
REMARK    6  A    between atoms: C_10  and  C_11
REMARK    7  A    between atoms: C_12  and  C_13
REMARK    8  A    between atoms: C_15  and  C_18
REMARK                            x       y       z     vdW  Elec       q    Type
REMARK                         _______ _______ _______ _____ _____    ______ ____
ROOT
ATOM      2  O   UNL     1     -11.412 -11.485  17.442  0.00  0.00    -0.376 OA
ATOM      7  C   UNL     1      -9.878 -10.072  16.972  0.00  0.00    +0.072 C 
ATOM      8  C   UNL     1      -9.982 -11.585  17.208  0.00  0.00    +0.184 C 
ATOM      9  C   UNL     1     -11.314 -10.037  17.512  0.00  0.00    +0.184 C 
ENDROOT
BRANCH   7   5
ATOM      5  N   UNL     1      -8.989  -9.502  17.987  0.00  0.00    -0.302 NA
ATOM     28  H   UNL     1      -9.332  -8.663  18.452  0.00  0.00    +0.123 HD
BRANCH   5  12
ATOM     12  C   UNL     1      -7.677  -9.258  17.399  0.00  0.00    +0.118 C 
BRANCH  12  13
ATOM      1 CL   UNL     1      -5.313 -10.116  15.608  0.00  0.00    -0.083 Cl
ATOM     13  C   UNL     1      -6.620 -10.146  17.999  0.00  0.00    -0.015 A 
ATOM     16  C   UNL     1      -5.520 -10.578  17.258  0.00  0.00    +0.045 A 
ATOM     17  C   UNL     1      -6.759 -10.536  19.332  0.00  0.00    +0.006 A 
ATOM     19  C   UNL     1      -4.560 -11.400  17.849  0.00  0.00    +0.020 A 
ATOM     20  C   UNL     1      -5.800 -11.358  19.922  0.00  0.00    +0.000 A 
ATOM     21  C   UNL     1      -4.700 -11.790  19.181  0.00  0.00    +0.001 A 
ENDBRANCH  12  13
ENDBRANCH   5  12
ENDBRANCH   7   5
BRANCH   7  10
ATOM     10  C   UNL     1      -9.605  -9.557  15.583  0.00  0.00    +0.085 C 
BRANCH  10  11
ATOM      3  O   UNL     1     -10.886  -6.181  15.624  0.00  0.00    -0.354 OA
ATOM      6  N   UNL     1     -10.049  -7.185  16.096  0.00  0.00    -0.083 NA
ATOM     11  C   UNL     1     -10.336  -8.254  15.348  0.00  0.00    +0.086 A 
ATOM     14  C   UNL     1     -11.336  -7.987  14.398  0.00  0.00    +0.076 A 
ATOM     15  C   UNL     1     -11.647  -6.671  14.613  0.00  0.00    +0.167 A 
BRANCH  15  18
ATOM     18  C   UNL     1     -12.566  -5.743  14.020  0.00  0.00    +0.020 A 
ATOM     22  C   UNL     1     -12.087  -4.688  13.243  0.00  0.00    +0.015 A 
ATOM     23  C   UNL     1     -13.937  -5.896  14.218  0.00  0.00    +0.015 A 
ATOM     24  C   UNL     1     -12.980  -3.786  12.665  0.00  0.00    +0.046 A 
ATOM     25  C   UNL     1     -14.830  -4.994  13.640  0.00  0.00    +0.046 A 
ATOM     26  C   UNL     1     -14.352  -3.939  12.864  0.00  0.00    +0.120 A 
BRANCH  26   4
ATOM      4  O   UNL     1     -15.224  -3.061  12.298  0.00  0.00    -0.495 OA
ATOM     27  C   UNL     1     -15.366  -3.111  10.879  0.00  0.00    +0.277 C 
ENDBRANCH  26   4
ENDBRANCH  15  18
ENDBRANCH  10  11
ENDBRANCH   7  10
TORSDOF 7
ENDMDL
MODEL 5
REMARK VINA RESULT:      -5.8     28.438     31.493
REMARK  Name = 71694092
REMARK  8 active torsions:
REMARK  status: ('A' for Active; 'I' for Inactive)
REMARK    1  A    between atoms: O_4  and  C_26
REMARK    2  A    between atoms: O_4  and  C_27
REMARK    3  A    between atoms: N_5  and  C_7
REMARK    4  A    between atoms: N_5  and  C_12
REMARK    5  A    between atoms: C_7  and  C_10
REMARK    6  A    between atoms: C_10  and  C_11
REMARK    7  A    between atoms: C_12  and  C_13
REMARK    8  A    between atoms: C_15  and  C_18
REMARK                            x       y       z     vdW  Elec       q    Type
REMARK                         _______ _______ _______ _____ _____    ______ ____
ROOT
ATOM      2  O   UNL     1      -9.558 -11.235  13.833  0.00  0.00    -0.376 OA
ATOM      7  C   UNL     1      -9.301  -9.801  15.399  0.00  0.00    +0.072 C 
ATOM      8  C   UNL     1      -9.386  -9.793  13.867  0.00  0.00    +0.184 C 
ATOM      9  C   UNL     1      -9.198 -11.324  15.238  0.00  0.00    +0.184 C 
ENDROOT
BRANCH   7   5
ATOM      5  N   UNL     1      -7.988  -9.289  15.796  0.00  0.00    -0.302 NA
ATOM     28  H   UNL     1      -7.188  -9.835  15.481  0.00  0.00    +0.123 HD
BRANCH   5  12
ATOM     12  C   UNL     1      -7.951  -9.121  17.243  0.00  0.00    +0.118 C 
BRANCH  12  13
ATOM      1 CL   UNL     1      -9.023 -10.872  19.549  0.00  0.00    -0.083 Cl
ATOM     13  C   UNL     1      -7.002 -10.090  17.897  0.00  0.00    -0.015 A 
ATOM     16  C   UNL     1      -7.408 -10.917  18.944  0.00  0.00    +0.045 A 
ATOM     17  C   UNL     1      -5.689 -10.150  17.429  0.00  0.00    +0.006 A 
ATOM     19  C   UNL     1      -6.499 -11.804  19.524  0.00  0.00    +0.020 A 
ATOM     20  C   UNL     1      -4.782 -11.036  18.009  0.00  0.00    +0.000 A 
ATOM     21  C   UNL     1      -5.187 -11.863  19.057  0.00  0.00    +0.001 A 
ENDBRANCH  12  13
ENDBRANCH   5  12
ENDBRANCH   7   5
BRANCH   7  10
ATOM     10  C   UNL     1     -10.434  -9.225  16.206  0.00  0.00    +0.085 C 
BRANCH  10  11
ATOM      3  O   UNL     1     -10.866  -5.803  15.137  0.00  0.00    -0.354 OA
ATOM      6  N   UNL     1     -10.171  -6.806  15.803  0.00  0.00    -0.083 NA
ATOM     11  C   UNL     1     -10.894  -7.913  15.613  0.00  0.00    +0.086 A 
ATOM     14  C   UNL     1     -12.044  -7.673  14.843  0.00  0.00    +0.076 A 
ATOM     15  C   UNL     1     -11.980  -6.332  14.569  0.00  0.00    +0.167 A 
BRANCH  15  18
ATOM     18  C   UNL     1     -12.803  -5.412  13.839  0.00  0.00    +0.020 A 
ATOM     22  C   UNL     1     -12.214  -4.431  13.041  0.00  0.00    +0.015 A 
ATOM     23  C   UNL     1     -14.192  -5.499  13.926  0.00  0.00    +0.015 A 
ATOM     24  C   UNL     1     -13.015  -3.537  12.331  0.00  0.00    +0.046 A 
ATOM     25  C   UNL     1     -14.992  -4.605  13.216  0.00  0.00    +0.046 A 
ATOM     26  C   UNL     1     -14.404  -3.624  12.419  0.00  0.00    +0.120 A 
BRANCH  26   4
ATOM      4  O   UNL     1     -15.186  -2.753  11.723  0.00  0.00    -0.495 OA
ATOM     27  C   UNL     1     -15.597  -3.152  10.417  0.00  0.00    +0.277 C 
ENDBRANCH  26   4
ENDBRANCH  15  18
ENDBRANCH  10  11
ENDBRANCH   7  10
TORSDOF 7
ENDMDL
MODEL 6
REMARK VINA RESULT:      -5.8     25.659     28.340
REMARK  Name = 71694092
REMARK  8 active torsions:
REMARK  status: ('A' for Active; 'I' for Inactive)
REMARK    1  A    between atoms: O_4  and  C_26
REMARK    2  A    between atoms: O_4  and  C_27
REMARK    3  A    between atoms: N_5  and  C_7
REMARK    4  A    between atoms: N_5  and  C_12
REMARK    5  A    between atoms: C_7  and  C_10
REMARK    6  A    between atoms: C_10  and  C_11
REMARK    7  A    between atoms: C_12  and  C_13
REMARK    8  A    between atoms: C_15  and  C_18
REMARK                            x       y       z     vdW  Elec       q    Type
REMARK                         _______ _______ _______ _____ _____    ______ ____
ROOT
ATOM      2  O   UNL     1     -10.784  12.832  18.115  0.00  0.00    -0.376 OA
ATOM      7  C   UNL     1     -10.354  10.896  17.316  0.00  0.00    +0.072 C 
ATOM      8  C   UNL     1      -9.682  12.275  17.350  0.00  0.00    +0.184 C 
ATOM      9  C   UNL     1     -11.579  11.642  17.864  0.00  0.00    +0.184 C 
ENDROOT
BRANCH   7   5
ATOM      5  N   UNL     1     -10.617  10.540  15.919  0.00  0.00    -0.302 NA
ATOM     28  H   UNL     1     -11.505  10.864  15.542  0.00  0.00    +0.123 HD
BRANCH   5  12
ATOM     12  C   UNL     1     -10.490   9.097  15.756  0.00  0.00    +0.118 C 
BRANCH  12  13
ATOM      1 CL   UNL     1     -10.192   7.742  12.998  0.00  0.00    -0.083 Cl
ATOM     13  C   UNL     1     -11.718   8.494  15.126  0.00  0.00    -0.015 A 
ATOM     16  C   UNL     1     -11.667   7.863  13.883  0.00  0.00    +0.045 A 
ATOM     17  C   UNL     1     -12.926   8.575  15.818  0.00  0.00    +0.006 A 
ATOM     19  C   UNL     1     -12.826   7.315  13.331  0.00  0.00    +0.020 A 
ATOM     20  C   UNL     1     -14.084   8.028  15.267  0.00  0.00    +0.000 A 
ATOM     21  C   UNL     1     -14.034   7.397  14.023  0.00  0.00    +0.001 A 
ENDBRANCH  12  13
ENDBRANCH   5  12
ENDBRANCH   7   5
BRANCH   7  10
ATOM     10  C   UNL     1      -9.766   9.765  18.118  0.00  0.00    +0.085 C 
BRANCH  10  11
ATOM      3  O   UNL     1     -12.128   9.207  20.792  0.00  0.00    -0.354 OA
ATOM      6  N   UNL     1     -11.222   9.999  20.096  0.00  0.00    -0.083 NA
ATOM     11  C   UNL     1     -10.783   9.226  19.099  0.00  0.00    +0.086 A 
ATOM     14  C   UNL     1     -11.370   7.950  19.114  0.00  0.00    +0.076 A 
ATOM     15  C   UNL     1     -12.208   7.990  20.198  0.00  0.00    +0.167 A 
BRANCH  15  18
ATOM     18  C   UNL     1     -13.112   7.058  20.806  0.00  0.00    +0.020 A 
ATOM     22  C   UNL     1     -14.489   7.240  20.683  0.00  0.00    +0.015 A 
ATOM     23  C   UNL     1     -12.615   5.969  21.521  0.00  0.00    +0.015 A 
ATOM     24  C   UNL     1     -15.369   6.333  21.274  0.00  0.00    +0.046 A 
ATOM     25  C   UNL     1     -13.493   5.062  22.113  0.00  0.00    +0.046 A 
ATOM     26  C   UNL     1     -14.870   5.245  21.990  0.00  0.00    +0.120 A 
BRANCH  26   4
ATOM      4  O   UNL     1     -15.728   4.358  22.564  0.00  0.00    -0.495 OA
ATOM     27  C   UNL     1     -17.100   4.442  22.183  0.00  0.00    +0.277 C 
ENDBRANCH  26   4
ENDBRANCH  15  18
ENDBRANCH  10  11
ENDBRANCH   7  10
TORSDOF 7
ENDMDL
MODEL 7
REMARK VINA RESULT:      -5.8     28.341     31.313
REMARK  Name = 71694092
REMARK  8 active torsions:
REMARK  status: ('A' for Active; 'I' for Inactive)
REMARK    1  A    between atoms: O_4  and  C_26
REMARK    2  A    between atoms: O_4  and  C_27
REMARK    3  A    between atoms: N_5  and  C_7
REMARK    4  A    between atoms: N_5  and  C_12
REMARK    5  A    between atoms: C_7  and  C_10
REMARK    6  A    between atoms: C_10  and  C_11
REMARK    7  A    between atoms: C_12  and  C_13
REMARK    8  A    between atoms: C_15  and  C_18
REMARK                            x       y       z     vdW  Elec       q    Type
REMARK                         _______ _______ _______ _____ _____    ______ ____
ROOT
ATOM      2  O   UNL     1     -10.406 -13.579  18.012  0.00  0.00    -0.376 OA
ATOM      7  C   UNL     1      -8.900 -12.460  19.036  0.00  0.00    +0.072 C 
ATOM      8  C   UNL     1      -9.418 -12.599  17.598  0.00  0.00    +0.184 C 
ATOM      9  C   UNL     1      -9.769 -13.694  19.312  0.00  0.00    +0.184 C 
ENDROOT
BRANCH   7   5
ATOM      5  N   UNL     1      -7.494 -12.868  19.067  0.00  0.00    -0.302 NA
ATOM     28  H   UNL     1      -7.288 -13.696  19.622  0.00  0.00    +0.123 HD
BRANCH   5  12
ATOM     12  C   UNL     1      -6.673 -11.745  19.503  0.00  0.00    +0.118 C 
BRANCH  12  13
ATOM      1 CL   UNL     1      -3.671 -12.463  19.576  0.00  0.00    -0.083 Cl
ATOM     13  C   UNL     1      -5.794 -11.229  18.395  0.00  0.00    -0.015 A 
ATOM     16  C   UNL     1      -4.428 -11.509  18.354  0.00  0.00    +0.045 A 
ATOM     17  C   UNL     1      -6.377 -10.455  17.391  0.00  0.00    +0.006 A 
ATOM     19  C   UNL     1      -3.646 -11.013  17.310  0.00  0.00    +0.020 A 
ATOM     20  C   UNL     1      -5.595  -9.960  16.349  0.00  0.00    +0.000 A 
ATOM     21  C   UNL     1      -4.229 -10.239  16.307  0.00  0.00    +0.001 A 
ENDBRANCH  12  13
ENDBRANCH   5  12
ENDBRANCH   7   5
BRANCH   7  10
ATOM     10  C   UNL     1      -9.169 -11.189  19.800  0.00  0.00    +0.085 C 
BRANCH  10  11
ATOM      3  O   UNL     1     -12.096  -9.518  18.505  0.00  0.00    -0.354 OA
ATOM      6  N   UNL     1     -11.472 -10.430  19.348  0.00  0.00    -0.083 NA
ATOM     11  C   UNL     1     -10.171 -10.329  19.064  0.00  0.00    +0.086 A 
ATOM     14  C   UNL     1      -9.916  -9.380  18.060  0.00  0.00    +0.076 A 
ATOM     15  C   UNL     1     -11.159  -8.899  17.744  0.00  0.00    +0.167 A 
BRANCH  15  18
ATOM     18  C   UNL     1     -11.656  -7.921  16.820  0.00  0.00    +0.020 A 
ATOM     22  C   UNL     1     -10.826  -6.886  16.387  0.00  0.00    +0.015 A 
ATOM     23  C   UNL     1     -12.966  -8.004  16.353  0.00  0.00    +0.015 A 
ATOM     24  C   UNL     1     -11.309  -5.935  15.488  0.00  0.00    +0.046 A 
ATOM     25  C   UNL     1     -13.449  -7.054  15.454  0.00  0.00    +0.046 A 
ATOM     26  C   UNL     1     -12.621  -6.019  15.022  0.00  0.00    +0.120 A 
BRANCH  26   4
ATOM      4  O   UNL     1     -13.090  -5.093  14.142  0.00  0.00    -0.495 OA
ATOM     27  C   UNL     1     -12.213  -4.693  13.090  0.00  0.00    +0.277 C 
ENDBRANCH  26   4
ENDBRANCH  15  18
ENDBRANCH  10  11
ENDBRANCH   7  10
TORSDOF 7
ENDMDL
MODEL 8
REMARK VINA RESULT:      -5.7     28.112     30.082
REMARK  Name = 71694092
REMARK  8 active torsions:
REMARK  status: ('A' for Active; 'I' for Inactive)
REMARK    1  A    between atoms: O_4  and  C_26
REMARK    2  A    between atoms: O_4  and  C_27
REMARK    3  A    between atoms: N_5  and  C_7
REMARK    4  A    between atoms: N_5  and  C_12
REMARK    5  A    between atoms: C_7  and  C_10
REMARK    6  A    between atoms: C_10  and  C_11
REMARK    7  A    between atoms: C_12  and  C_13
REMARK    8  A    between atoms: C_15  and  C_18
REMARK                            x       y       z     vdW  Elec       q    Type
REMARK                         _______ _______ _______ _____ _____    ______ ____
ROOT
ATOM      2  O   UNL     1     -11.951 -11.437  20.092  0.00  0.00    -0.376 OA
ATOM      7  C   UNL     1     -10.265 -10.521  19.149  0.00  0.00    +0.072 C 
ATOM      8  C   UNL     1     -10.876 -11.925  19.245  0.00  0.00    +0.184 C 
ATOM      9  C   UNL     1     -11.259 -10.171  20.265  0.00  0.00    +0.184 C 
ENDROOT
BRANCH   7   5
ATOM      5  N   UNL     1      -8.918 -10.558  19.725  0.00  0.00    -0.302 NA
ATOM     28  H   UNL     1      -8.231  -9.954  19.278  0.00  0.00    +0.123 HD
BRANCH   5  12
ATOM     12  C   UNL     1      -8.442 -11.935  19.756  0.00  0.00    +0.118 C 
BRANCH  12  13
ATOM      1 CL   UNL     1      -8.038 -14.212  17.711  0.00  0.00    -0.083 Cl
ATOM     13  C   UNL     1      -7.089 -12.076  19.111  0.00  0.00    -0.015 A 
ATOM     16  C   UNL     1      -6.825 -13.077  18.177  0.00  0.00    +0.045 A 
ATOM     17  C   UNL     1      -6.088 -11.172  19.467  0.00  0.00    +0.006 A 
ATOM     19  C   UNL     1      -5.558 -13.175  17.599  0.00  0.00    +0.020 A 
ATOM     20  C   UNL     1      -4.822 -11.271  18.890  0.00  0.00    +0.000 A 
ATOM     21  C   UNL     1      -4.557 -12.272  17.956  0.00  0.00    +0.001 A 
ENDBRANCH  12  13
ENDBRANCH   5  12
ENDBRANCH   7   5
BRANCH   7  10
ATOM     10  C   UNL     1     -10.334  -9.771  17.845  0.00  0.00    +0.085 C 
BRANCH  10  11
ATOM      3  O   UNL     1      -6.983  -9.296  16.587  0.00  0.00    -0.354 OA
ATOM      6  N   UNL     1      -8.046  -8.955  17.415  0.00  0.00    -0.083 NA
ATOM     11  C   UNL     1      -9.006  -9.837  17.124  0.00  0.00    +0.086 A 
ATOM     14  C   UNL     1      -8.611 -10.748  16.130  0.00  0.00    +0.076 A 
ATOM     15  C   UNL     1      -7.332 -10.364  15.827  0.00  0.00    +0.167 A 
BRANCH  15  18
ATOM     18  C   UNL     1      -6.328 -10.835  14.917  0.00  0.00    +0.020 A 
ATOM     22  C   UNL     1      -6.618 -11.879  14.039  0.00  0.00    +0.015 A 
ATOM     23  C   UNL     1      -5.063 -10.250  14.910  0.00  0.00    +0.015 A 
ATOM     24  C   UNL     1      -5.642 -12.337  13.153  0.00  0.00    +0.046 A 
ATOM     25  C   UNL     1      -4.087 -10.707  14.026  0.00  0.00    +0.046 A 
ATOM     26  C   UNL     1      -4.376 -11.751  13.148  0.00  0.00    +0.120 A 
BRANCH  26   4
ATOM      4  O   UNL     1      -3.425 -12.196  12.281  0.00  0.00    -0.495 OA
ATOM     27  C   UNL     1      -2.096 -12.323  12.786  0.00  0.00    +0.277 C 
ENDBRANCH  26   4
ENDBRANCH  15  18
ENDBRANCH  10  11
ENDBRANCH   7  10
TORSDOF 7
ENDMDL
MODEL 9
REMARK VINA RESULT:      -5.7     17.109     20.790
REMARK  Name = 71694092
REMARK  8 active torsions:
REMARK  status: ('A' for Active; 'I' for Inactive)
REMARK    1  A    between atoms: O_4  and  C_26
REMARK    2  A    between atoms: O_4  and  C_27
REMARK    3  A    between atoms: N_5  and  C_7
REMARK    4  A    between atoms: N_5  and  C_12
REMARK    5  A    between atoms: C_7  and  C_10
REMARK    6  A    between atoms: C_10  and  C_11
REMARK    7  A    between atoms: C_12  and  C_13
REMARK    8  A    between atoms: C_15  and  C_18
REMARK                            x       y       z     vdW  Elec       q    Type
REMARK                         _______ _______ _______ _____ _____    ______ ____
ROOT
ATOM      2  O   UNL     1      13.259   7.279   2.959  0.00  0.00    -0.376 OA
ATOM      7  C   UNL     1      11.428   6.180   3.044  0.00  0.00    +0.072 C 
ATOM      8  C   UNL     1      12.031   7.418   3.722  0.00  0.00    +0.184 C 
ATOM      9  C   UNL     1      12.850   5.959   2.512  0.00  0.00    +0.184 C 
ENDROOT
BRANCH   7   5
ATOM      5  N   UNL     1      11.157   5.171   4.071  0.00  0.00    -0.302 NA
ATOM     28  H   UNL     1      11.481   4.229   3.859  0.00  0.00    +0.123 HD
BRANCH   5  12
ATOM     12  C   UNL     1       9.732   5.162   4.378  0.00  0.00    +0.118 C 
BRANCH  12  13
ATOM      1 CL   UNL     1       8.015   7.729   4.397  0.00  0.00    -0.083 Cl
ATOM     13  C   UNL     1       9.439   5.810   5.705  0.00  0.00    -0.015 A 
ATOM     16  C   UNL     1       8.672   6.970   5.800  0.00  0.00    +0.045 A 
ATOM     17  C   UNL     1       9.956   5.219   6.859  0.00  0.00    +0.006 A 
ATOM     19  C   UNL     1       8.421   7.540   7.049  0.00  0.00    +0.020 A 
ATOM     20  C   UNL     1       9.706   5.789   8.106  0.00  0.00    +0.000 A 
ATOM     21  C   UNL     1       8.938   6.950   8.202  0.00  0.00    +0.001 A 
ENDBRANCH  12  13
ENDBRANCH   5  12
ENDBRANCH   7   5
BRANCH   7  10
ATOM     10  C   UNL     1      10.297   6.350   2.063  0.00  0.00    +0.085 C 
BRANCH  10  11
ATOM      3  O   UNL     1      10.459   3.582  -0.250  0.00  0.00    -0.354 OA
ATOM      6  N   UNL     1      10.183   4.128   0.998  0.00  0.00    -0.083 NA
ATOM     11  C   UNL     1      10.478   5.426   0.881  0.00  0.00    +0.086 A 
ATOM     14  C   UNL     1      10.940   5.753  -0.405  0.00  0.00    +0.076 A 
ATOM     15  C   UNL     1      10.910   4.560  -1.077  0.00  0.00    +0.167 A 
BRANCH  15  18
ATOM     18  C   UNL     1      11.236   4.146  -2.410  0.00  0.00    +0.020 A 
ATOM     22  C   UNL     1      10.630   4.767  -3.501  0.00  0.00    +0.015 A 
ATOM     23  C   UNL     1      12.161   3.123  -2.616  0.00  0.00    +0.015 A 
ATOM     24  C   UNL     1      10.947   4.365  -4.799  0.00  0.00    +0.046 A 
ATOM     25  C   UNL     1      12.479   2.721  -3.913  0.00  0.00    +0.046 A 
ATOM     26  C   UNL     1      11.872   3.341  -5.004  0.00  0.00    +0.120 A 
BRANCH  26   4
ATOM      4  O   UNL     1      12.185   2.951  -6.270  0.00  0.00    -0.495 OA
ATOM     27  C   UNL     1      11.103   2.570  -7.118  0.00  0.00    +0.277 C 
ENDBRANCH  26   4
ENDBRANCH  15  18
ENDBRANCH  10  11
ENDBRANCH   7  10
TORSDOF 7
ENDMDL
MODEL 10
REMARK VINA RESULT:      -5.7     16.155     20.036
REMARK  Name = 71694092
REMARK  8 active torsions:
REMARK  status: ('A' for Active; 'I' for Inactive)
REMARK    1  A    between atoms: O_4  and  C_26
REMARK    2  A    between atoms: O_4  and  C_27
REMARK    3  A    between atoms: N_5  and  C_7
REMARK    4  A    between atoms: N_5  and  C_12
REMARK    5  A    between atoms: C_7  and  C_10
REMARK    6  A    between atoms: C_10  and  C_11
REMARK    7  A    between atoms: C_12  and  C_13
REMARK    8  A    between atoms: C_15  and  C_18
REMARK                            x       y       z     vdW  Elec       q    Type
REMARK                         _______ _______ _______ _____ _____    ______ ____
ROOT
ATOM      2  O   UNL     1      10.690   8.342  -1.498  0.00  0.00    -0.376 OA
ATOM      7  C   UNL     1      11.147   6.527  -0.467  0.00  0.00    +0.072 C 
ATOM      8  C   UNL     1      11.021   8.016  -0.122  0.00  0.00    +0.184 C 
ATOM      9  C   UNL     1      11.076   7.008  -1.922  0.00  0.00    +0.184 C 
ENDROOT
BRANCH   7   5
ATOM      5  N   UNL     1      12.520   6.098  -0.188  0.00  0.00    -0.302 NA
ATOM     28  H   UNL     1      13.242   6.796  -0.355  0.00  0.00    +0.123 HD
BRANCH   5  12
ATOM     12  C   UNL     1      12.808   4.879  -0.934  0.00  0.00    +0.118 C 
BRANCH  12  13
ATOM      1 CL   UNL     1      14.471   3.533   1.292  0.00  0.00    -0.083 Cl
ATOM     13  C   UNL     1      14.285   4.697  -1.164  0.00  0.00    -0.015 A 
ATOM     16  C   UNL     1      15.106   4.098  -0.209  0.00  0.00    +0.045 A 
ATOM     17  C   UNL     1      14.828   5.144  -2.370  0.00  0.00    +0.006 A 
ATOM     19  C   UNL     1      16.470   3.947  -0.459  0.00  0.00    +0.020 A 
ATOM     20  C   UNL     1      16.191   4.992  -2.619  0.00  0.00    +0.000 A 
ATOM     21  C   UNL     1      17.013   4.393  -1.664  0.00  0.00    +0.001 A 
ENDBRANCH  12  13
ENDBRANCH   5  12
ENDBRANCH   7   5
BRANCH   7  10
ATOM     10  C   UNL     1      10.108   5.559   0.036  0.00  0.00    +0.085 C 
BRANCH  10  11
ATOM      3  O   UNL     1      11.110   4.039   3.154  0.00  0.00    -0.354 OA
ATOM      6  N   UNL     1      11.036   4.067   1.767  0.00  0.00    -0.083 NA
ATOM     11  C   UNL     1      10.378   5.193   1.478  0.00  0.00    +0.086 A 
ATOM     14  C   UNL     1      10.015   5.909   2.631  0.00  0.00    +0.076 A 
ATOM     15  C   UNL     1      10.499   5.141   3.657  0.00  0.00    +0.167 A 
BRANCH  15  18
ATOM     18  C   UNL     1      10.496   5.254   5.087  0.00  0.00    +0.020 A 
ATOM     22  C   UNL     1      11.275   6.229   5.710  0.00  0.00    +0.015 A 
ATOM     23  C   UNL     1       9.715   4.391   5.853  0.00  0.00    +0.015 A 
ATOM     24  C   UNL     1      11.273   6.339   7.101  0.00  0.00    +0.046 A 
ATOM     25  C   UNL     1       9.712   4.501   7.243  0.00  0.00    +0.046 A 
ATOM     26  C   UNL     1      10.491   5.475   7.867  0.00  0.00    +0.120 A 
BRANCH  26   4
ATOM      4  O   UNL     1      10.486   5.585   9.224  0.00  0.00    -0.495 OA
ATOM     27  C   UNL     1       9.535   4.794   9.936  0.00  0.00    +0.277 C 
ENDBRANCH  26   4
ENDBRANCH  15  18
ENDBRANCH  10  11
ENDBRANCH   7  10
TORSDOF 7
ENDMDL
