MODEL 1
REMARK VINA RESULT:      -6.5      0.000      0.000
REMARK  Name = 71693765
REMARK  5 active torsions:
REMARK  status: ('A' for Active; 'I' for Inactive)
REMARK    1  A    between atoms: O_1  and  C_8
REMARK    2  A    between atoms: O_2  and  C_10
REMARK    3  A    between atoms: N_4  and  C_6
REMARK    4  A    between atoms: C_7  and  C_15
REMARK    5  A    between atoms: C_11  and  C_14
REMARK                            x       y       z     vdW  Elec       q    Type
REMARK                         _______ _______ _______ _____ _____    ______ ____
ROOT
ATOM      6  C   UNL     1      12.890   7.271  20.838  0.00  0.00    +0.111 C 
ATOM      7  C   UNL     1      12.890   8.504  21.769  0.00  0.00    +0.046 C 
ATOM      8  C   UNL     1      11.765   6.402  21.399  0.00  0.00    +0.164 C 
ATOM      9  C   UNL     1      11.470   8.567  22.388  0.00  0.00    +0.044 C 
ATOM     10  C   UNL     1      10.687   7.419  21.754  0.00  0.00    +0.145 C 
ENDROOT
BRANCH   7  15
ATOM      5  N   UNL     1      14.676  11.779  21.077  0.00  0.00    -0.263 NA
ATOM     15  C   UNL     1      13.323   9.775  21.069  0.00  0.00    -0.024 A 
ATOM     16  C   UNL     1      12.804  10.121  19.826  0.00  0.00    +0.007 A 
ATOM     17  C   UNL     1      14.248  10.630  21.647  0.00  0.00    +0.114 A 
ATOM     18  C   UNL     1      13.220  11.294  19.208  0.00  0.00    +0.020 A 
ATOM     19  C   UNL     1      14.149  12.082  19.869  0.00  0.00    +0.111 A 
ENDBRANCH   7  15
BRANCH   6   4
ATOM      3  O   UNL     1      15.039   7.484  18.891  0.00  0.00    -0.276 OA
ATOM      4  N   UNL     1      14.156   6.585  20.850  0.00  0.00    -0.309 N 
ATOM     14  C   UNL     1      15.121   6.753  19.871  0.00  0.00    +0.216 C 
ATOM     20  H   UNL     1      14.359   5.972  21.635  0.00  0.00    +0.149 HD
BRANCH  14  11
ATOM     11  C   UNL     1      16.357   5.944  20.084  0.00  0.00    +0.075 C 
ATOM     12  C   UNL     1      17.659   6.659  20.227  0.00  0.00    +0.013 C 
ATOM     13  C   UNL     1      17.363   5.876  18.984  0.00  0.00    +0.013 C 
ENDBRANCH  14  11
ENDBRANCH   6   4
BRANCH   8   1
ATOM      1  O   UNL     1      11.290   5.463  20.453  0.00  0.00    -0.387 OA
ATOM     21  H   UNL     1      11.130   5.942  19.622  0.00  0.00    +0.210 HD
ENDBRANCH   8   1
BRANCH  10   2
ATOM      2  O   UNL     1      10.034   7.903  20.583  0.00  0.00    -0.389 OA
ATOM     22  H   UNL     1       9.113   7.595  20.615  0.00  0.00    +0.210 HD
ENDBRANCH  10   2
TORSDOF 5
ENDMDL
MODEL 2
REMARK VINA RESULT:      -6.5      2.221      2.712
REMARK  Name = 71693765
REMARK  5 active torsions:
REMARK  status: ('A' for Active; 'I' for Inactive)
REMARK    1  A    between atoms: O_1  and  C_8
REMARK    2  A    between atoms: O_2  and  C_10
REMARK    3  A    between atoms: N_4  and  C_6
REMARK    4  A    between atoms: C_7  and  C_15
REMARK    5  A    between atoms: C_11  and  C_14
REMARK                            x       y       z     vdW  Elec       q    Type
REMARK                         _______ _______ _______ _____ _____    ______ ____
ROOT
ATOM      6  C   UNL     1      13.031   7.097  20.097  0.00  0.00    +0.111 C 
ATOM      7  C   UNL     1      13.057   8.620  19.837  0.00  0.00    +0.046 C 
ATOM      8  C   UNL     1      12.393   6.984  21.482  0.00  0.00    +0.164 C 
ATOM      9  C   UNL     1      11.952   9.223  20.743  0.00  0.00    +0.044 C 
ATOM     10  C   UNL     1      11.292   8.036  21.442  0.00  0.00    +0.145 C 
ENDROOT
BRANCH   7  15
ATOM      5  N   UNL     1      11.713   8.733  16.291  0.00  0.00    -0.263 NA
ATOM     15  C   UNL     1      12.923   8.973  18.370  0.00  0.00    -0.024 A 
ATOM     16  C   UNL     1      13.833   9.822  17.751  0.00  0.00    +0.007 A 
ATOM     17  C   UNL     1      11.890   8.459  17.603  0.00  0.00    +0.114 A 
ATOM     18  C   UNL     1      13.685  10.128  16.404  0.00  0.00    +0.020 A 
ATOM     19  C   UNL     1      12.618   9.562  15.724  0.00  0.00    +0.111 A 
ENDBRANCH   7  15
BRANCH   6   4
ATOM      3  O   UNL     1      15.264   7.680  21.867  0.00  0.00    -0.276 OA
ATOM      4  N   UNL     1      14.351   6.521  20.064  0.00  0.00    -0.309 N 
ATOM     14  C   UNL     1      15.353   6.866  20.955  0.00  0.00    +0.216 C 
ATOM     20  H   UNL     1      14.541   5.804  19.369  0.00  0.00    +0.149 HD
BRANCH  14  11
ATOM     11  C   UNL     1      16.641   6.144  20.736  0.00  0.00    +0.075 C 
ATOM     12  C   UNL     1      17.871   6.948  20.474  0.00  0.00    +0.013 C 
ATOM     13  C   UNL     1      17.241   6.155  19.370  0.00  0.00    +0.013 C 
ENDBRANCH  14  11
ENDBRANCH   6   4
BRANCH   8   1
ATOM      1  O   UNL     1      11.860   5.695  21.723  0.00  0.00    -0.387 OA
ATOM     21  H   UNL     1      10.905   5.738  21.549  0.00  0.00    +0.210 HD
ENDBRANCH   8   1
BRANCH  10   2
ATOM      2  O   UNL     1      10.192   7.595  20.651  0.00  0.00    -0.389 OA
ATOM     22  H   UNL     1       9.526   7.229  21.256  0.00  0.00    +0.210 HD
ENDBRANCH  10   2
TORSDOF 5
ENDMDL
MODEL 3
REMARK VINA RESULT:      -6.4      2.523      5.369
REMARK  Name = 71693765
REMARK  5 active torsions:
REMARK  status: ('A' for Active; 'I' for Inactive)
REMARK    1  A    between atoms: O_1  and  C_8
REMARK    2  A    between atoms: O_2  and  C_10
REMARK    3  A    between atoms: N_4  and  C_6
REMARK    4  A    between atoms: C_7  and  C_15
REMARK    5  A    between atoms: C_11  and  C_14
REMARK                            x       y       z     vdW  Elec       q    Type
REMARK                         _______ _______ _______ _____ _____    ______ ____
ROOT
ATOM      6  C   UNL     1      12.618   8.628  18.032  0.00  0.00    +0.111 C 
ATOM      7  C   UNL     1      13.979   9.309  18.303  0.00  0.00    +0.046 C 
ATOM      8  C   UNL     1      12.101   9.353  16.789  0.00  0.00    +0.164 C 
ATOM      9  C   UNL     1      14.428   9.914  16.948  0.00  0.00    +0.044 C 
ATOM     10  C   UNL     1      13.353   9.516  15.937  0.00  0.00    +0.145 C 
ENDROOT
BRANCH   7  15
ATOM      5  N   UNL     1      16.024   6.191  19.009  0.00  0.00    -0.263 NA
ATOM     15  C   UNL     1      14.991   8.377  18.936  0.00  0.00    -0.024 A 
ATOM     16  C   UNL     1      15.800   8.802  19.984  0.00  0.00    +0.007 A 
ATOM     17  C   UNL     1      15.141   7.074  18.488  0.00  0.00    +0.114 A 
ATOM     18  C   UNL     1      16.720   7.924  20.545  0.00  0.00    +0.020 A 
ATOM     19  C   UNL     1      16.792   6.641  20.026  0.00  0.00    +0.111 A 
ENDBRANCH   7  15
BRANCH   6   4
ATOM      3  O   UNL     1      11.994   6.635  20.055  0.00  0.00    -0.276 OA
ATOM      4  N   UNL     1      11.716   8.762  19.147  0.00  0.00    -0.309 N 
ATOM     14  C   UNL     1      11.484   7.749  20.062  0.00  0.00    +0.216 C 
ATOM     20  H   UNL     1      11.254   9.657  19.281  0.00  0.00    +0.149 HD
BRANCH  14  11
ATOM     11  C   UNL     1      10.512   8.106  21.136  0.00  0.00    +0.075 C 
ATOM     12  C   UNL     1      10.733   9.367  21.905  0.00  0.00    +0.013 C 
ATOM     13  C   UNL     1      10.964   8.038  22.557  0.00  0.00    +0.013 C 
ENDBRANCH  14  11
ENDBRANCH   6   4
BRANCH   8   1
ATOM      1  O   UNL     1      11.112   8.606  16.106  0.00  0.00    -0.387 OA
ATOM     21  H   UNL     1      10.751   9.172  15.404  0.00  0.00    +0.210 HD
ENDBRANCH   8   1
BRANCH  10   2
ATOM      2  O   UNL     1      13.728   8.279  15.337  0.00  0.00    -0.389 OA
ATOM     22  H   UNL     1      13.210   8.183  14.520  0.00  0.00    +0.210 HD
ENDBRANCH  10   2
TORSDOF 5
ENDMDL
MODEL 4
REMARK VINA RESULT:      -6.2     15.928     18.843
REMARK  Name = 71693765
REMARK  5 active torsions:
REMARK  status: ('A' for Active; 'I' for Inactive)
REMARK    1  A    between atoms: O_1  and  C_8
REMARK    2  A    between atoms: O_2  and  C_10
REMARK    3  A    between atoms: N_4  and  C_6
REMARK    4  A    between atoms: C_7  and  C_15
REMARK    5  A    between atoms: C_11  and  C_14
REMARK                            x       y       z     vdW  Elec       q    Type
REMARK                         _______ _______ _______ _____ _____    ______ ____
ROOT
ATOM      6  C   UNL     1      -1.615   1.398  24.659  0.00  0.00    +0.111 C 
ATOM      7  C   UNL     1      -2.577   2.316  23.873  0.00  0.00    +0.046 C 
ATOM      8  C   UNL     1      -0.232   1.936  24.293  0.00  0.00    +0.164 C 
ATOM      9  C   UNL     1      -1.790   3.626  23.607  0.00  0.00    +0.044 C 
ATOM     10  C   UNL     1      -0.437   3.446  24.293  0.00  0.00    +0.145 C 
ENDROOT
BRANCH   7  15
ATOM      5  N   UNL     1      -5.349   3.935  25.897  0.00  0.00    -0.263 NA
ATOM     15  C   UNL     1      -3.906   2.518  24.571  0.00  0.00    -0.024 A 
ATOM     16  C   UNL     1      -4.885   1.530  24.549  0.00  0.00    +0.007 A 
ATOM     17  C   UNL     1      -4.185   3.692  25.253  0.00  0.00    +0.114 A 
ATOM     18  C   UNL     1      -6.095   1.743  25.199  0.00  0.00    +0.020 A 
ATOM     19  C   UNL     1      -6.275   2.952  25.853  0.00  0.00    +0.111 A 
ENDBRANCH   7  15
BRANCH   6   4
ATOM      3  O   UNL     1      -2.856  -0.724  26.214  0.00  0.00    -0.276 OA
ATOM      4  N   UNL     1      -1.769   0.013  24.290  0.00  0.00    -0.309 N 
ATOM     14  C   UNL     1      -2.377  -0.927  25.104  0.00  0.00    +0.216 C 
ATOM     20  H   UNL     1      -1.440  -0.275  23.373  0.00  0.00    +0.149 HD
BRANCH  14  11
ATOM     11  C   UNL     1      -2.428  -2.299  24.522  0.00  0.00    +0.075 C 
ATOM     12  C   UNL     1      -3.675  -2.730  23.822  0.00  0.00    +0.013 C 
ATOM     13  C   UNL     1      -3.322  -3.311  25.158  0.00  0.00    +0.013 C 
ENDBRANCH  14  11
ENDBRANCH   6   4
BRANCH   8   1
ATOM      1  O   UNL     1       0.757   1.554  25.230  0.00  0.00    -0.387 OA
ATOM     21  H   UNL     1       0.546   1.992  26.072  0.00  0.00    +0.210 HD
ENDBRANCH   8   1
BRANCH  10   2
ATOM      2  O   UNL     1      -0.529   3.948  25.623  0.00  0.00    -0.389 OA
ATOM     22  H   UNL     1      -0.160   3.273  26.216  0.00  0.00    +0.210 HD
ENDBRANCH  10   2
TORSDOF 5
ENDMDL
MODEL 5
REMARK VINA RESULT:      -5.6      2.467      4.367
REMARK  Name = 71693765
REMARK  5 active torsions:
REMARK  status: ('A' for Active; 'I' for Inactive)
REMARK    1  A    between atoms: O_1  and  C_8
REMARK    2  A    between atoms: O_2  and  C_10
REMARK    3  A    between atoms: N_4  and  C_6
REMARK    4  A    between atoms: C_7  and  C_15
REMARK    5  A    between atoms: C_11  and  C_14
REMARK                            x       y       z     vdW  Elec       q    Type
REMARK                         _______ _______ _______ _____ _____    ______ ____
ROOT
ATOM      6  C   UNL     1      14.419   8.134  19.446  0.00  0.00    +0.111 C 
ATOM      7  C   UNL     1      14.469   8.973  20.742  0.00  0.00    +0.046 C 
ATOM      8  C   UNL     1      15.762   7.404  19.443  0.00  0.00    +0.164 C 
ATOM      9  C   UNL     1      15.493   8.265  21.666  0.00  0.00    +0.044 C 
ATOM     10  C   UNL     1      15.950   7.021  20.906  0.00  0.00    +0.145 C 
ENDROOT
BRANCH   7  15
ATOM      5  N   UNL     1      11.136   8.223  22.394  0.00  0.00    -0.263 NA
ATOM     15  C   UNL     1      13.104   9.180  21.367  0.00  0.00    -0.024 A 
ATOM     16  C   UNL     1      12.560  10.454  21.494  0.00  0.00    +0.007 A 
ATOM     17  C   UNL     1      12.359   8.108  21.828  0.00  0.00    +0.114 A 
ATOM     18  C   UNL     1      11.306  10.613  22.071  0.00  0.00    +0.020 A 
ATOM     19  C   UNL     1      10.640   9.476  22.501  0.00  0.00    +0.111 A 
ENDBRANCH   7  15
BRANCH   6   4
ATOM      3  O   UNL     1      13.410   7.329  16.840  0.00  0.00    -0.276 OA
ATOM      4  N   UNL     1      14.252   8.958  18.276  0.00  0.00    -0.309 N 
ATOM     14  C   UNL     1      13.761   8.480  17.073  0.00  0.00    +0.216 C 
ATOM     20  H   UNL     1      14.479   9.946  18.353  0.00  0.00    +0.149 HD
BRANCH  14  11
ATOM     11  C   UNL     1      13.672   9.509  15.996  0.00  0.00    +0.075 C 
ATOM     12  C   UNL     1      14.925  10.190  15.556  0.00  0.00    +0.013 C 
ATOM     13  C   UNL     1      13.903  10.939  16.356  0.00  0.00    +0.013 C 
ENDBRANCH  14  11
ENDBRANCH   6   4
BRANCH   8   1
ATOM      1  O   UNL     1      15.748   6.259  18.613  0.00  0.00    -0.387 OA
ATOM     21  H   UNL     1      15.028   5.683  18.922  0.00  0.00    +0.210 HD
ENDBRANCH   8   1
BRANCH  10   2
ATOM      2  O   UNL     1      15.102   5.932  21.262  0.00  0.00    -0.389 OA
ATOM     22  H   UNL     1      14.562   6.218  22.017  0.00  0.00    +0.210 HD
ENDBRANCH  10   2
TORSDOF 5
ENDMDL
MODEL 6
REMARK VINA RESULT:      -5.5      2.648      4.870
REMARK  Name = 71693765
REMARK  5 active torsions:
REMARK  status: ('A' for Active; 'I' for Inactive)
REMARK    1  A    between atoms: O_1  and  C_8
REMARK    2  A    between atoms: O_2  and  C_10
REMARK    3  A    between atoms: N_4  and  C_6
REMARK    4  A    between atoms: C_7  and  C_15
REMARK    5  A    between atoms: C_11  and  C_14
REMARK                            x       y       z     vdW  Elec       q    Type
REMARK                         _______ _______ _______ _____ _____    ______ ____
ROOT
ATOM      6  C   UNL     1      14.181   8.722  19.667  0.00  0.00    +0.111 C 
ATOM      7  C   UNL     1      14.363   7.206  19.902  0.00  0.00    +0.046 C 
ATOM      8  C   UNL     1      12.842   9.028  20.337  0.00  0.00    +0.164 C 
ATOM      9  C   UNL     1      13.491   6.861  21.137  0.00  0.00    +0.044 C 
ATOM     10  C   UNL     1      12.890   8.186  21.606  0.00  0.00    +0.145 C 
ENDROOT
BRANCH   7  15
ATOM      5  N   UNL     1      17.833   6.729  21.361  0.00  0.00    -0.263 NA
ATOM     15  C   UNL     1      15.816   6.796  20.030  0.00  0.00    -0.024 A 
ATOM     16  C   UNL     1      16.468   6.137  18.994  0.00  0.00    +0.007 A 
ATOM     17  C   UNL     1      16.536   7.066  21.183  0.00  0.00    +0.114 A 
ATOM     18  C   UNL     1      17.802   5.774  19.140  0.00  0.00    +0.020 A 
ATOM     19  C   UNL     1      18.434   6.090  20.332  0.00  0.00    +0.111 A 
ENDBRANCH   7  15
BRANCH   6   4
ATOM      3  O   UNL     1      12.794   7.324  17.527  0.00  0.00    -0.276 OA
ATOM      4  N   UNL     1      14.170   9.053  18.265  0.00  0.00    -0.309 N 
ATOM     14  C   UNL     1      13.475   8.321  17.317  0.00  0.00    +0.216 C 
ATOM     20  H   UNL     1      14.674   9.884  17.967  0.00  0.00    +0.149 HD
BRANCH  14  11
ATOM     11  C   UNL     1      13.603   8.845  15.925  0.00  0.00    +0.075 C 
ATOM     12  C   UNL     1      13.817  10.310  15.733  0.00  0.00    +0.013 C 
ATOM     13  C   UNL     1      12.500   9.689  15.377  0.00  0.00    +0.013 C 
ENDBRANCH  14  11
ENDBRANCH   6   4
BRANCH   8   1
ATOM      1  O   UNL     1      12.696  10.402  20.640  0.00  0.00    -0.387 OA
ATOM     21  H   UNL     1      13.027  10.538  21.544  0.00  0.00    +0.210 HD
ENDBRANCH   8   1
BRANCH  10   2
ATOM      2  O   UNL     1      13.762   8.766  22.572  0.00  0.00    -0.389 OA
ATOM     22  H   UNL     1      14.383   9.341  22.095  0.00  0.00    +0.210 HD
ENDBRANCH  10   2
TORSDOF 5
ENDMDL
MODEL 7
REMARK VINA RESULT:      -5.5      2.788      4.390
REMARK  Name = 71693765
REMARK  5 active torsions:
REMARK  status: ('A' for Active; 'I' for Inactive)
REMARK    1  A    between atoms: O_1  and  C_8
REMARK    2  A    between atoms: O_2  and  C_10
REMARK    3  A    between atoms: N_4  and  C_6
REMARK    4  A    between atoms: C_7  and  C_15
REMARK    5  A    between atoms: C_11  and  C_14
REMARK                            x       y       z     vdW  Elec       q    Type
REMARK                         _______ _______ _______ _____ _____    ______ ____
ROOT
ATOM      6  C   UNL     1      14.537   9.312  19.323  0.00  0.00    +0.111 C 
ATOM      7  C   UNL     1      13.330   8.533  18.753  0.00  0.00    +0.046 C 
ATOM      8  C   UNL     1      14.908  10.270  18.191  0.00  0.00    +0.164 C 
ATOM      9  C   UNL     1      12.723   9.439  17.652  0.00  0.00    +0.044 C 
ATOM     10  C   UNL     1      13.552  10.723  17.664  0.00  0.00    +0.145 C 
ENDROOT
BRANCH   7  15
ATOM      5  N   UNL     1      11.297   6.313  21.063  0.00  0.00    -0.263 NA
ATOM     15  C   UNL     1      12.346   8.103  19.821  0.00  0.00    -0.024 A 
ATOM     16  C   UNL     1      11.601   9.041  20.529  0.00  0.00    +0.007 A 
ATOM     17  C   UNL     1      12.158   6.764  20.124  0.00  0.00    +0.114 A 
ATOM     18  C   UNL     1      10.705   8.616  21.503  0.00  0.00    +0.020 A 
ATOM     19  C   UNL     1      10.591   7.254  21.730  0.00  0.00    +0.111 A 
ENDBRANCH   7  15
BRANCH   6   4
ATOM      3  O   UNL     1      16.730   9.852  21.156  0.00  0.00    -0.276 OA
ATOM      4  N   UNL     1      15.630   8.438  19.668  0.00  0.00    -0.309 N 
ATOM     14  C   UNL     1      16.632   8.788  20.556  0.00  0.00    +0.216 C 
ATOM     20  H   UNL     1      15.643   7.507  19.258  0.00  0.00    +0.149 HD
BRANCH  14  11
ATOM     11  C   UNL     1      17.662   7.729  20.765  0.00  0.00    +0.075 C 
ATOM     12  C   UNL     1      17.673   6.555  19.843  0.00  0.00    +0.013 C 
ATOM     13  C   UNL     1      17.219   6.392  21.262  0.00  0.00    +0.013 C 
ENDBRANCH  14  11
ENDBRANCH   6   4
BRANCH   8   1
ATOM      1  O   UNL     1      15.671  11.369  18.648  0.00  0.00    -0.387 OA
ATOM     21  H   UNL     1      16.221  11.672  17.905  0.00  0.00    +0.210 HD
ENDBRANCH   8   1
BRANCH  10   2
ATOM      2  O   UNL     1      12.941  11.652  18.554  0.00  0.00    -0.389 OA
ATOM     22  H   UNL     1      13.412  12.497  18.461  0.00  0.00    +0.210 HD
ENDBRANCH  10   2
TORSDOF 5
ENDMDL
MODEL 8
REMARK VINA RESULT:      -5.4     15.181     16.140
REMARK  Name = 71693765
REMARK  5 active torsions:
REMARK  status: ('A' for Active; 'I' for Inactive)
REMARK    1  A    between atoms: O_1  and  C_8
REMARK    2  A    between atoms: O_2  and  C_10
REMARK    3  A    between atoms: N_4  and  C_6
REMARK    4  A    between atoms: C_7  and  C_15
REMARK    5  A    between atoms: C_11  and  C_14
REMARK                            x       y       z     vdW  Elec       q    Type
REMARK                         _______ _______ _______ _____ _____    ______ ____
ROOT
ATOM      6  C   UNL     1      11.336   6.278   6.048  0.00  0.00    +0.111 C 
ATOM      7  C   UNL     1      10.056   6.359   5.188  0.00  0.00    +0.046 C 
ATOM      8  C   UNL     1      10.800   6.072   7.465  0.00  0.00    +0.164 C 
ATOM      9  C   UNL     1       8.953   5.630   5.999  0.00  0.00    +0.044 C 
ATOM     10  C   UNL     1       9.640   5.105   7.258  0.00  0.00    +0.145 C 
ENDROOT
BRANCH   7  15
ATOM      5  N   UNL     1      10.991   4.036   2.337  0.00  0.00    -0.263 NA
ATOM     15  C   UNL     1      10.251   5.827   3.783  0.00  0.00    -0.024 A 
ATOM     16  C   UNL     1       9.895   6.586   2.673  0.00  0.00    +0.007 A 
ATOM     17  C   UNL     1      10.790   4.570   3.563  0.00  0.00    +0.114 A 
ATOM     18  C   UNL     1      10.087   6.071   1.396  0.00  0.00    +0.020 A 
ATOM     19  C   UNL     1      10.634   4.803   1.283  0.00  0.00    +0.111 A 
ENDBRANCH   7  15
BRANCH   6   4
ATOM      3  O   UNL     1      14.076   6.664   6.942  0.00  0.00    -0.276 OA
ATOM      4  N   UNL     1      12.134   7.473   5.943  0.00  0.00    -0.309 N 
ATOM     14  C   UNL     1      13.437   7.560   6.402  0.00  0.00    +0.216 C 
ATOM     20  H   UNL     1      11.724   8.280   5.480  0.00  0.00    +0.149 HD
BRANCH  14  11
ATOM     11  C   UNL     1      14.074   8.892   6.189  0.00  0.00    +0.075 C 
ATOM     12  C   UNL     1      14.755   9.155   4.886  0.00  0.00    +0.013 C 
ATOM     13  C   UNL     1      15.563   8.970   6.134  0.00  0.00    +0.013 C 
ENDBRANCH  14  11
ENDBRANCH   6   4
BRANCH   8   1
ATOM      1  O   UNL     1      11.774   5.524   8.332  0.00  0.00    -0.387 OA
ATOM     21  H   UNL     1      12.490   6.176   8.416  0.00  0.00    +0.210 HD
ENDBRANCH   8   1
BRANCH  10   2
ATOM      2  O   UNL     1      10.114   3.786   7.004  0.00  0.00    -0.389 OA
ATOM     22  H   UNL     1      10.900   3.863   6.438  0.00  0.00    +0.210 HD
ENDBRANCH  10   2
TORSDOF 5
ENDMDL
MODEL 9
REMARK VINA RESULT:      -5.4     24.965     27.315
REMARK  Name = 71693765
REMARK  5 active torsions:
REMARK  status: ('A' for Active; 'I' for Inactive)
REMARK    1  A    between atoms: O_1  and  C_8
REMARK    2  A    between atoms: O_2  and  C_10
REMARK    3  A    between atoms: N_4  and  C_6
REMARK    4  A    between atoms: C_7  and  C_15
REMARK    5  A    between atoms: C_11  and  C_14
REMARK                            x       y       z     vdW  Elec       q    Type
REMARK                         _______ _______ _______ _____ _____    ______ ____
ROOT
ATOM      6  C   UNL     1      -4.535 -11.659  17.359  0.00  0.00    +0.111 C 
ATOM      7  C   UNL     1      -5.482 -10.440  17.439  0.00  0.00    +0.046 C 
ATOM      8  C   UNL     1      -4.353 -12.063  18.821  0.00  0.00    +0.164 C 
ATOM      9  C   UNL     1      -6.236 -10.577  18.787  0.00  0.00    +0.044 C 
ATOM     10  C   UNL     1      -5.750 -11.887  19.405  0.00  0.00    +0.145 C 
ENDROOT
BRANCH   7  15
ATOM      5  N   UNL     1      -8.607 -10.457  15.286  0.00  0.00    -0.263 NA
ATOM     15  C   UNL     1      -6.386 -10.312  16.229  0.00  0.00    -0.024 A 
ATOM     16  C   UNL     1      -5.874  -9.950  14.988  0.00  0.00    +0.007 A 
ATOM     17  C   UNL     1      -7.747 -10.552  16.325  0.00  0.00    +0.114 A 
ATOM     18  C   UNL     1      -6.727  -9.840  13.896  0.00  0.00    +0.020 A 
ATOM     19  C   UNL     1      -8.073 -10.102  14.095  0.00  0.00    +0.111 A 
ENDBRANCH   7  15
BRANCH   6   4
ATOM      3  O   UNL     1      -3.546 -12.570  14.780  0.00  0.00    -0.276 OA
ATOM      4  N   UNL     1      -3.281 -11.327  16.732  0.00  0.00    -0.309 N 
ATOM     14  C   UNL     1      -2.897 -11.815  15.495  0.00  0.00    +0.216 C 
ATOM     20  H   UNL     1      -2.665 -10.678  17.214  0.00  0.00    +0.149 HD
BRANCH  14  11
ATOM     11  C   UNL     1      -1.559 -11.340  15.038  0.00  0.00    +0.075 C 
ATOM     12  C   UNL     1      -0.985 -10.114  15.668  0.00  0.00    +0.013 C 
ATOM     13  C   UNL     1      -1.481 -10.072  14.255  0.00  0.00    +0.013 C 
ENDBRANCH  14  11
ENDBRANCH   6   4
BRANCH   8   1
ATOM      1  O   UNL     1      -3.908 -13.399  18.956  0.00  0.00    -0.387 OA
ATOM     21  H   UNL     1      -4.694 -13.959  19.072  0.00  0.00    +0.210 HD
ENDBRANCH   8   1
BRANCH  10   2
ATOM      2  O   UNL     1      -6.615 -12.939  18.987  0.00  0.00    -0.389 OA
ATOM     22  H   UNL     1      -6.070 -13.734  18.866  0.00  0.00    +0.210 HD
ENDBRANCH  10   2
TORSDOF 5
ENDMDL
MODEL 10
REMARK VINA RESULT:      -5.2     30.392     31.461
REMARK  Name = 71693765
REMARK  5 active torsions:
REMARK  status: ('A' for Active; 'I' for Inactive)
REMARK    1  A    between atoms: O_1  and  C_8
REMARK    2  A    between atoms: O_2  and  C_10
REMARK    3  A    between atoms: N_4  and  C_6
REMARK    4  A    between atoms: C_7  and  C_15
REMARK    5  A    between atoms: C_11  and  C_14
REMARK                            x       y       z     vdW  Elec       q    Type
REMARK                         _______ _______ _______ _____ _____    ______ ____
ROOT
ATOM      6  C   UNL     1     -14.869   3.229  31.171  0.00  0.00    +0.111 C 
ATOM      7  C   UNL     1     -15.959   2.536  30.322  0.00  0.00    +0.046 C 
ATOM      8  C   UNL     1     -14.137   2.060  31.830  0.00  0.00    +0.164 C 
ATOM      9  C   UNL     1     -15.445   1.097  30.064  0.00  0.00    +0.044 C 
ATOM     10  C   UNL     1     -14.063   1.025  30.713  0.00  0.00    +0.145 C 
ENDROOT
BRANCH   7  15
ATOM      5  N   UNL     1     -16.274   3.453  26.654  0.00  0.00    -0.263 NA
ATOM     15  C   UNL     1     -16.311   3.308  29.067  0.00  0.00    -0.024 A 
ATOM     16  C   UNL     1     -16.965   4.533  29.138  0.00  0.00    +0.007 A 
ATOM     17  C   UNL     1     -15.990   2.816  27.812  0.00  0.00    +0.114 A 
ATOM     18  C   UNL     1     -17.274   5.218  27.969  0.00  0.00    +0.020 A 
ATOM     19  C   UNL     1     -16.910   4.641  26.763  0.00  0.00    +0.111 A 
ENDBRANCH   7  15
BRANCH   6   4
ATOM      3  O   UNL     1     -13.555   5.457  32.499  0.00  0.00    -0.276 OA
ATOM      4  N   UNL     1     -15.434   4.127  32.146  0.00  0.00    -0.309 N 
ATOM     14  C   UNL     1     -14.723   5.164  32.725  0.00  0.00    +0.216 C 
ATOM     20  H   UNL     1     -16.413   4.007  32.394  0.00  0.00    +0.149 HD
BRANCH  14  11
ATOM     11  C   UNL     1     -15.507   5.969  33.708  0.00  0.00    +0.075 C 
ATOM     12  C   UNL     1     -16.670   5.326  34.388  0.00  0.00    +0.013 C 
ATOM     13  C   UNL     1     -16.896   6.380  33.347  0.00  0.00    +0.013 C 
ENDBRANCH  14  11
ENDBRANCH   6   4
BRANCH   8   1
ATOM      1  O   UNL     1     -12.844   2.421  32.277  0.00  0.00    -0.387 OA
ATOM     21  H   UNL     1     -12.228   1.732  31.976  0.00  0.00    +0.210 HD
ENDBRANCH   8   1
BRANCH  10   2
ATOM      2  O   UNL     1     -13.084   1.387  29.744  0.00  0.00    -0.389 OA
ATOM     22  H   UNL     1     -12.353   0.751  29.817  0.00  0.00    +0.210 HD
ENDBRANCH  10   2
TORSDOF 5
ENDMDL
