MODEL 1
REMARK VINA RESULT:      -6.8      0.000      0.000
REMARK  Name = 25390225
REMARK  7 active torsions:
REMARK  status: ('A' for Active; 'I' for Inactive)
REMARK    1  A    between atoms: O_2  and  C_11
REMARK    2  A    between atoms: O_3  and  C_13
REMARK    3  A    between atoms: N_7  and  C_15
REMARK    4  A    between atoms: N_8  and  C_16
REMARK    5  A    between atoms: C_10  and  C_14
REMARK    6  A    between atoms: C_12  and  C_15
REMARK    7  A    between atoms: C_14  and  C_22
REMARK                            x       y       z     vdW  Elec       q    Type
REMARK                         _______ _______ _______ _____ _____    ______ ____
ROOT
ATOM      1  O   UNL     1      12.695   6.871  19.315  0.00  0.00    -0.366 OA
ATOM     10  C   UNL     1      13.842   7.423  18.627  0.00  0.00    +0.159 C 
ATOM     11  C   UNL     1      15.001   7.374  19.617  0.00  0.00    +0.175 C 
ATOM     12  C   UNL     1      13.041   6.645  20.693  0.00  0.00    +0.167 C 
ATOM     13  C   UNL     1      14.283   7.482  20.947  0.00  0.00    +0.176 C 
ENDROOT
BRANCH  11   2
ATOM      2  O   UNL     1      15.632   6.100  19.498  0.00  0.00    -0.387 OA
ATOM     30  H   UNL     1      14.936   5.448  19.308  0.00  0.00    +0.210 HD
ENDBRANCH  11   2
BRANCH  13   3
ATOM      3  O   UNL     1      15.040   6.991  22.032  0.00  0.00    -0.387 OA
ATOM     31  H   UNL     1      15.266   6.066  21.836  0.00  0.00    +0.210 HD
ENDBRANCH  13   3
BRANCH  10  14
ATOM     14  C   UNL     1      13.488   8.838  18.192  0.00  0.00    +0.130 C 
BRANCH  14  22
ATOM      4  O   UNL     1      15.115  12.964  15.780  0.00  0.00    -0.377 OA
ATOM      5  O   UNL     1      13.750   8.213  15.920  0.00  0.00    -0.276 OA
ATOM      9  N   UNL     1      14.562  10.303  16.522  0.00  0.00    -0.297 N 
ATOM     22  C   UNL     1      13.943   9.081  16.775  0.00  0.00    +0.218 C 
ATOM     24  C   UNL     1      15.030  10.621  15.173  0.00  0.00    +0.136 C 
ATOM     25  C   UNL     1      14.921  11.301  17.535  0.00  0.00    +0.136 C 
ATOM     26  C   UNL     1      14.635  12.043  14.797  0.00  0.00    +0.179 C 
ATOM     27  C   UNL     1      14.536  12.697  17.060  0.00  0.00    +0.179 C 
ENDBRANCH  14  22
ENDBRANCH  10  14
BRANCH  12  15
ATOM     15  C   UNL     1      11.869   7.020  21.583  0.00  0.00    +0.140 C 
BRANCH  15   7
ATOM      6  O   UNL     1      10.022   9.133  22.206  0.00  0.00    -0.253 OA
ATOM      7  N   UNL     1      12.149   8.208  22.333  0.00  0.00    -0.297 N 
ATOM      8  N   UNL     1      11.719  10.241  23.340  0.00  0.00    -0.297 N 
ATOM     23  C   UNL     1      11.189   9.193  22.593  0.00  0.00    +0.300 C 
ATOM     28  H   UNL     1      13.100   8.368  22.649  0.00  0.00    +0.150 HD
ATOM     29  H   UNL     1      12.673  10.151  23.673  0.00  0.00    +0.151 HD
BRANCH   8  16
ATOM     16  C   UNL     1      10.944  11.392  23.750  0.00  0.00    +0.074 C 
ATOM     17  C   UNL     1      11.258  11.780  25.198  0.00  0.00    +0.022 C 
ATOM     18  C   UNL     1      11.165  12.572  22.797  0.00  0.00    +0.022 C 
ATOM     19  C   UNL     1      12.645  12.405  25.348  0.00  0.00    +0.002 C 
ATOM     20  C   UNL     1      12.552  13.195  22.951  0.00  0.00    +0.002 C 
ATOM     21  C   UNL     1      12.837  13.584  24.398  0.00  0.00    +0.000 C 
ENDBRANCH   8  16
ENDBRANCH  15   7
ENDBRANCH  12  15
TORSDOF 7
ENDMDL
MODEL 2
REMARK VINA RESULT:      -6.7      1.887      2.553
REMARK  Name = 25390225
REMARK  7 active torsions:
REMARK  status: ('A' for Active; 'I' for Inactive)
REMARK    1  A    between atoms: O_2  and  C_11
REMARK    2  A    between atoms: O_3  and  C_13
REMARK    3  A    between atoms: N_7  and  C_15
REMARK    4  A    between atoms: N_8  and  C_16
REMARK    5  A    between atoms: C_10  and  C_14
REMARK    6  A    between atoms: C_12  and  C_15
REMARK    7  A    between atoms: C_14  and  C_22
REMARK                            x       y       z     vdW  Elec       q    Type
REMARK                         _______ _______ _______ _____ _____    ______ ____
ROOT
ATOM      1  O   UNL     1      11.026   7.673  20.436  0.00  0.00    -0.366 OA
ATOM     10  C   UNL     1      12.044   7.749  19.413  0.00  0.00    +0.159 C 
ATOM     11  C   UNL     1      13.384   7.604  20.128  0.00  0.00    +0.175 C 
ATOM     12  C   UNL     1      11.661   7.654  21.727  0.00  0.00    +0.167 C 
ATOM     13  C   UNL     1      13.071   8.169  21.498  0.00  0.00    +0.176 C 
ENDROOT
BRANCH  11   2
ATOM      2  O   UNL     1      13.686   6.213  20.224  0.00  0.00    -0.387 OA
ATOM     30  H   UNL     1      12.847   5.743  20.371  0.00  0.00    +0.210 HD
ENDBRANCH  11   2
BRANCH  13   3
ATOM      3  O   UNL     1      13.965   7.732  22.500  0.00  0.00    -0.387 OA
ATOM     31  H   UNL     1      14.115   8.480  23.103  0.00  0.00    +0.210 HD
ENDBRANCH  13   3
BRANCH  10  14
ATOM     14  C   UNL     1      11.890   9.086  18.700  0.00  0.00    +0.130 C 
BRANCH  14  22
ATOM      4  O   UNL     1      15.549  11.507  16.202  0.00  0.00    -0.377 OA
ATOM      5  O   UNL     1      11.747   8.354  16.450  0.00  0.00    -0.276 OA
ATOM      9  N   UNL     1      13.597   9.642  17.007  0.00  0.00    -0.297 N 
ATOM     22  C   UNL     1      12.398   8.988  17.284  0.00  0.00    +0.218 C 
ATOM     24  C   UNL     1      14.158   9.601  15.657  0.00  0.00    +0.136 C 
ATOM     25  C   UNL     1      14.459  10.295  17.999  0.00  0.00    +0.136 C 
ATOM     26  C   UNL     1      14.630  10.986  15.238  0.00  0.00    +0.179 C 
ATOM     27  C   UNL     1      14.924  11.650  17.480  0.00  0.00    +0.179 C 
ENDBRANCH  14  22
ENDBRANCH  10  14
BRANCH  12  15
ATOM     15  C   UNL     1      10.861   8.499  22.703  0.00  0.00    +0.140 C 
BRANCH  15   7
ATOM      6  O   UNL     1      11.777  10.965  23.864  0.00  0.00    -0.253 OA
ATOM      7  N   UNL     1      10.647   9.819  22.189  0.00  0.00    -0.297 N 
ATOM      8  N   UNL     1      10.782  12.123  22.114  0.00  0.00    -0.297 N 
ATOM     23  C   UNL     1      11.128  10.973  22.818  0.00  0.00    +0.300 C 
ATOM     28  H   UNL     1      10.077   9.927  21.356  0.00  0.00    +0.150 HD
ATOM     29  H   UNL     1      10.313  12.010  21.221  0.00  0.00    +0.151 HD
BRANCH   8  16
ATOM     16  C   UNL     1      11.153  13.454  22.541  0.00  0.00    +0.074 C 
ATOM     17  C   UNL     1      12.038  14.141  21.496  0.00  0.00    +0.022 C 
ATOM     18  C   UNL     1       9.912  14.296  22.861  0.00  0.00    +0.022 C 
ATOM     19  C   UNL     1      11.259  14.541  20.243  0.00  0.00    +0.002 C 
ATOM     20  C   UNL     1       9.138  14.694  21.604  0.00  0.00    +0.002 C 
ATOM     21  C   UNL     1      10.036  15.386  20.584  0.00  0.00    +0.000 C 
ENDBRANCH   8  16
ENDBRANCH  15   7
ENDBRANCH  12  15
TORSDOF 7
ENDMDL
MODEL 3
REMARK VINA RESULT:      -6.7     13.795     17.884
REMARK  Name = 25390225
REMARK  7 active torsions:
REMARK  status: ('A' for Active; 'I' for Inactive)
REMARK    1  A    between atoms: O_2  and  C_11
REMARK    2  A    between atoms: O_3  and  C_13
REMARK    3  A    between atoms: N_7  and  C_15
REMARK    4  A    between atoms: N_8  and  C_16
REMARK    5  A    between atoms: C_10  and  C_14
REMARK    6  A    between atoms: C_12  and  C_15
REMARK    7  A    between atoms: C_14  and  C_22
REMARK                            x       y       z     vdW  Elec       q    Type
REMARK                         _______ _______ _______ _____ _____    ______ ____
ROOT
ATOM      1  O   UNL     1      10.819   7.081   6.473  0.00  0.00    -0.366 OA
ATOM     10  C   UNL     1      10.070   6.753   7.666  0.00  0.00    +0.159 C 
ATOM     11  C   UNL     1       9.801   5.253   7.606  0.00  0.00    +0.175 C 
ATOM     12  C   UNL     1      10.879   5.920   5.626  0.00  0.00    +0.167 C 
ATOM     13  C   UNL     1       9.774   4.998   6.113  0.00  0.00    +0.176 C 
ENDROOT
BRANCH  11   2
ATOM      2  O   UNL     1      10.909   4.580   8.202  0.00  0.00    -0.387 OA
ATOM     30  H   UNL     1      11.709   5.089   7.985  0.00  0.00    +0.210 HD
ENDBRANCH  11   2
BRANCH  13   3
ATOM      3  O   UNL     1      10.019   3.651   5.771  0.00  0.00    -0.387 OA
ATOM     31  H   UNL     1      10.317   3.634   4.845  0.00  0.00    +0.210 HD
ENDBRANCH  13   3
BRANCH  10  14
ATOM     14  C   UNL     1       8.797   7.587   7.662  0.00  0.00    +0.130 C 
BRANCH  14  22
ATOM      4  O   UNL     1       8.714  10.708   3.694  0.00  0.00    -0.377 OA
ATOM      5  O   UNL     1       9.706   9.642   8.420  0.00  0.00    -0.276 OA
ATOM      9  N   UNL     1       8.751   9.647   6.304  0.00  0.00    -0.297 N 
ATOM     22  C   UNL     1       9.127   9.050   7.505  0.00  0.00    +0.218 C 
ATOM     24  C   UNL     1       9.038  11.062   6.067  0.00  0.00    +0.136 C 
ATOM     25  C   UNL     1       7.952   9.010   5.251  0.00  0.00    +0.136 C 
ATOM     26  C   UNL     1       9.603  11.261   4.668  0.00  0.00    +0.179 C 
ATOM     27  C   UNL     1       8.558   9.299   3.883  0.00  0.00    +0.179 C 
ENDBRANCH  14  22
ENDBRANCH  10  14
BRANCH  12  15
ATOM     15  C   UNL     1      10.720   6.337   4.174  0.00  0.00    +0.140 C 
BRANCH  15   7
ATOM      6  O   UNL     1      11.256   3.815   2.904  0.00  0.00    -0.253 OA
ATOM      7  N   UNL     1      11.880   5.994   3.406  0.00  0.00    -0.297 N 
ATOM      8  N   UNL     1      13.273   4.667   2.131  0.00  0.00    -0.297 N 
ATOM     23  C   UNL     1      12.065   4.738   2.819  0.00  0.00    +0.300 C 
ATOM     28  H   UNL     1      12.625   6.679   3.326  0.00  0.00    +0.150 HD
ATOM     29  H   UNL     1      13.828   5.513   2.058  0.00  0.00    +0.151 HD
BRANCH   8  16
ATOM     16  C   UNL     1      13.715   3.482   1.429  0.00  0.00    +0.074 C 
ATOM     17  C   UNL     1      12.990   3.333   0.087  0.00  0.00    +0.022 C 
ATOM     18  C   UNL     1      15.237   3.488   1.242  0.00  0.00    +0.022 C 
ATOM     19  C   UNL     1      13.452   4.363  -0.944  0.00  0.00    +0.002 C 
ATOM     20  C   UNL     1      15.694   4.519   0.209  0.00  0.00    +0.002 C 
ATOM     21  C   UNL     1      14.968   4.343  -1.120  0.00  0.00    +0.000 C 
ENDBRANCH   8  16
ENDBRANCH  15   7
ENDBRANCH  12  15
TORSDOF 7
ENDMDL
MODEL 4
REMARK VINA RESULT:      -6.6     26.613     29.398
REMARK  Name = 25390225
REMARK  7 active torsions:
REMARK  status: ('A' for Active; 'I' for Inactive)
REMARK    1  A    between atoms: O_2  and  C_11
REMARK    2  A    between atoms: O_3  and  C_13
REMARK    3  A    between atoms: N_7  and  C_15
REMARK    4  A    between atoms: N_8  and  C_16
REMARK    5  A    between atoms: C_10  and  C_14
REMARK    6  A    between atoms: C_12  and  C_15
REMARK    7  A    between atoms: C_14  and  C_22
REMARK                            x       y       z     vdW  Elec       q    Type
REMARK                         _______ _______ _______ _____ _____    ______ ____
ROOT
ATOM      1  O   UNL     1      -4.540 -11.426  18.581  0.00  0.00    -0.366 OA
ATOM     10  C   UNL     1      -5.889 -11.869  18.851  0.00  0.00    +0.159 C 
ATOM     11  C   UNL     1      -6.370 -12.578  17.589  0.00  0.00    +0.175 C 
ATOM     12  C   UNL     1      -4.235 -11.676  17.197  0.00  0.00    +0.167 C 
ATOM     13  C   UNL     1      -5.575 -11.872  16.510  0.00  0.00    +0.176 C 
ENDROOT
BRANCH  11   2
ATOM      2  O   UNL     1      -5.979 -13.948  17.675  0.00  0.00    -0.387 OA
ATOM     30  H   UNL     1      -6.574 -14.456  17.099  0.00  0.00    +0.210 HD
ENDBRANCH  11   2
BRANCH  13   3
ATOM      3  O   UNL     1      -5.457 -12.624  15.321  0.00  0.00    -0.387 OA
ATOM     31  H   UNL     1      -4.607 -12.388  14.911  0.00  0.00    +0.210 HD
ENDBRANCH  13   3
BRANCH  10  14
ATOM     14  C   UNL     1      -6.722 -10.644  19.200  0.00  0.00    +0.130 C 
BRANCH  14  22
ATOM      4  O   UNL     1     -10.852  -8.578  17.161  0.00  0.00    -0.377 OA
ATOM      5  O   UNL     1      -8.565 -11.837  20.095  0.00  0.00    -0.276 OA
ATOM      9  N   UNL     1      -9.028 -10.351  18.372  0.00  0.00    -0.297 N 
ATOM     22  C   UNL     1      -8.184 -11.004  19.268  0.00  0.00    +0.218 C 
ATOM     24  C   UNL     1     -10.462 -10.637  18.373  0.00  0.00    +0.136 C 
ATOM     25  C   UNL     1      -8.594  -9.453  17.295  0.00  0.00    +0.136 C 
ATOM     26  C   UNL     1     -11.261  -9.344  18.297  0.00  0.00    +0.179 C 
ATOM     27  C   UNL     1      -9.474  -8.210  17.258  0.00  0.00    +0.179 C 
ENDBRANCH  14  22
ENDBRANCH  10  14
BRANCH  12  15
ATOM     15  C   UNL     1      -3.433 -10.516  16.633  0.00  0.00    +0.140 C 
BRANCH  15   7
ATOM      6  O   UNL     1      -1.686 -11.334  14.501  0.00  0.00    -0.253 OA
ATOM      7  N   UNL     1      -3.665 -10.361  15.228  0.00  0.00    -0.297 N 
ATOM      8  N   UNL     1      -3.226 -10.520  12.966  0.00  0.00    -0.297 N 
ATOM     23  C   UNL     1      -2.760 -10.788  14.250  0.00  0.00    +0.300 C 
ATOM     28  H   UNL     1      -4.504  -9.874  14.927  0.00  0.00    +0.150 HD
ATOM     29  H   UNL     1      -4.161 -10.137  12.872  0.00  0.00    +0.151 HD
BRANCH   8  16
ATOM     16  C   UNL     1      -2.488 -10.858  11.770  0.00  0.00    +0.074 C 
ATOM     17  C   UNL     1      -3.209 -11.946  10.967  0.00  0.00    +0.022 C 
ATOM     18  C   UNL     1      -2.229  -9.614  10.912  0.00  0.00    +0.022 C 
ATOM     19  C   UNL     1      -4.475 -11.429  10.285  0.00  0.00    +0.002 C 
ATOM     20  C   UNL     1      -3.498  -9.100  10.231  0.00  0.00    +0.002 C 
ATOM     21  C   UNL     1      -4.190 -10.198   9.429  0.00  0.00    +0.000 C 
ENDBRANCH   8  16
ENDBRANCH  15   7
ENDBRANCH  12  15
TORSDOF 7
ENDMDL
MODEL 5
REMARK VINA RESULT:      -6.4      3.078      6.064
REMARK  Name = 25390225
REMARK  7 active torsions:
REMARK  status: ('A' for Active; 'I' for Inactive)
REMARK    1  A    between atoms: O_2  and  C_11
REMARK    2  A    between atoms: O_3  and  C_13
REMARK    3  A    between atoms: N_7  and  C_15
REMARK    4  A    between atoms: N_8  and  C_16
REMARK    5  A    between atoms: C_10  and  C_14
REMARK    6  A    between atoms: C_12  and  C_15
REMARK    7  A    between atoms: C_14  and  C_22
REMARK                            x       y       z     vdW  Elec       q    Type
REMARK                         _______ _______ _______ _____ _____    ______ ____
ROOT
ATOM      1  O   UNL     1      12.739  11.383  22.006  0.00  0.00    -0.366 OA
ATOM     10  C   UNL     1      11.640  10.444  22.015  0.00  0.00    +0.159 C 
ATOM     11  C   UNL     1      11.095  10.435  23.439  0.00  0.00    +0.175 C 
ATOM     12  C   UNL     1      12.996  11.816  23.353  0.00  0.00    +0.167 C 
ATOM     13  C   UNL     1      12.326  10.788  24.249  0.00  0.00    +0.176 C 
ENDROOT
BRANCH  11   2
ATOM      2  O   UNL     1      10.119  11.470  23.547  0.00  0.00    -0.387 OA
ATOM     30  H   UNL     1       9.353  11.203  23.010  0.00  0.00    +0.210 HD
ENDBRANCH  11   2
BRANCH  13   3
ATOM      3  O   UNL     1      12.024  11.312  25.524  0.00  0.00    -0.387 OA
ATOM     31  H   UNL     1      12.457  10.743  26.184  0.00  0.00    +0.210 HD
ENDBRANCH  13   3
BRANCH  10  14
ATOM     14  C   UNL     1      12.178   9.091  21.573  0.00  0.00    +0.130 C 
BRANCH  14  22
ATOM      4  O   UNL     1      14.181   9.682  16.977  0.00  0.00    -0.377 OA
ATOM      5  O   UNL     1      10.500   8.431  20.034  0.00  0.00    -0.276 OA
ATOM      9  N   UNL     1      12.613   8.833  19.158  0.00  0.00    -0.297 N 
ATOM     22  C   UNL     1      11.681   8.753  20.191  0.00  0.00    +0.218 C 
ATOM     24  C   UNL     1      12.213   8.526  17.785  0.00  0.00    +0.136 C 
ATOM     25  C   UNL     1      14.048   9.087  19.325  0.00  0.00    +0.136 C 
ATOM     26  C   UNL     1      12.763   9.572  16.826  0.00  0.00    +0.179 C 
ATOM     27  C   UNL     1      14.525  10.107  18.298  0.00  0.00    +0.179 C 
ENDBRANCH  14  22
ENDBRANCH  10  14
BRANCH  12  15
ATOM     15  C   UNL     1      14.493  11.927  23.579  0.00  0.00    +0.140 C 
BRANCH  15   7
ATOM      6  O   UNL     1      16.308  11.599  21.373  0.00  0.00    -0.253 OA
ATOM      7  N   UNL     1      15.165  10.721  23.194  0.00  0.00    -0.297 N 
ATOM      8  N   UNL     1      16.554   9.363  21.946  0.00  0.00    -0.297 N 
ATOM     23  C   UNL     1      16.036  10.645  22.101  0.00  0.00    +0.300 C 
ATOM     28  H   UNL     1      14.962   9.869  23.707  0.00  0.00    +0.150 HD
ATOM     29  H   UNL     1      16.324   8.670  22.650  0.00  0.00    +0.151 HD
BRANCH   8  16
ATOM     16  C   UNL     1      17.481   9.006  20.895  0.00  0.00    +0.074 C 
ATOM     17  C   UNL     1      18.932   9.178  21.358  0.00  0.00    +0.022 C 
ATOM     18  C   UNL     1      17.223   7.580  20.393  0.00  0.00    +0.022 C 
ATOM     19  C   UNL     1      19.353   8.114  22.370  0.00  0.00    +0.002 C 
ATOM     20  C   UNL     1      17.647   6.519  21.408  0.00  0.00    +0.002 C 
ATOM     21  C   UNL     1      19.097   6.704  21.845  0.00  0.00    +0.000 C 
ENDBRANCH   8  16
ENDBRANCH  15   7
ENDBRANCH  12  15
TORSDOF 7
ENDMDL
MODEL 6
REMARK VINA RESULT:      -6.3      1.972      7.276
REMARK  Name = 25390225
REMARK  7 active torsions:
REMARK  status: ('A' for Active; 'I' for Inactive)
REMARK    1  A    between atoms: O_2  and  C_11
REMARK    2  A    between atoms: O_3  and  C_13
REMARK    3  A    between atoms: N_7  and  C_15
REMARK    4  A    between atoms: N_8  and  C_16
REMARK    5  A    between atoms: C_10  and  C_14
REMARK    6  A    between atoms: C_12  and  C_15
REMARK    7  A    between atoms: C_14  and  C_22
REMARK                            x       y       z     vdW  Elec       q    Type
REMARK                         _______ _______ _______ _____ _____    ______ ____
ROOT
ATOM      1  O   UNL     1      13.498   8.954  19.549  0.00  0.00    -0.366 OA
ATOM     10  C   UNL     1      13.527   8.719  20.976  0.00  0.00    +0.159 C 
ATOM     11  C   UNL     1      13.028   7.293  21.186  0.00  0.00    +0.175 C 
ATOM     12  C   UNL     1      12.869   7.833  18.904  0.00  0.00    +0.167 C 
ATOM     13  C   UNL     1      12.108   7.103  19.997  0.00  0.00    +0.176 C 
ENDROOT
BRANCH  11   2
ATOM      2  O   UNL     1      14.147   6.414  21.092  0.00  0.00    -0.387 OA
ATOM     30  H   UNL     1      14.733   6.607  21.843  0.00  0.00    +0.210 HD
ENDBRANCH  11   2
BRANCH  13   3
ATOM      3  O   UNL     1      11.886   5.747  19.674  0.00  0.00    -0.387 OA
ATOM     31  H   UNL     1      12.754   5.310  19.636  0.00  0.00    +0.210 HD
ENDBRANCH  13   3
BRANCH  10  14
ATOM     14  C   UNL     1      12.641   9.765  21.639  0.00  0.00    +0.130 C 
BRANCH  14  22
ATOM      4  O   UNL     1      11.255  12.956  25.297  0.00  0.00    -0.377 OA
ATOM      5  O   UNL     1      14.650  10.611  22.570  0.00  0.00    -0.276 OA
ATOM      9  N   UNL     1      12.684  11.137  23.689  0.00  0.00    -0.297 N 
ATOM     22  C   UNL     1      13.422  10.538  22.670  0.00  0.00    +0.218 C 
ATOM     24  C   UNL     1      13.363  11.910  24.729  0.00  0.00    +0.136 C 
ATOM     25  C   UNL     1      11.244  10.966  23.909  0.00  0.00    +0.136 C 
ATOM     26  C   UNL     1      12.626  13.217  24.984  0.00  0.00    +0.179 C 
ATOM     27  C   UNL     1      10.593  12.312  24.206  0.00  0.00    +0.179 C 
ENDBRANCH  14  22
ENDBRANCH  10  14
BRANCH  12  15
ATOM     15  C   UNL     1      11.979   8.326  17.777  0.00  0.00    +0.140 C 
BRANCH  15   7
ATOM      6  O   UNL     1      13.318   8.777  15.273  0.00  0.00    -0.253 OA
ATOM      7  N   UNL     1      12.439   9.583  17.265  0.00  0.00    -0.297 N 
ATOM      8  N   UNL     1      13.428  11.042  15.773  0.00  0.00    -0.297 N 
ATOM     23  C   UNL     1      13.085   9.717  16.031  0.00  0.00    +0.300 C 
ATOM     28  H   UNL     1      12.336  10.408  17.847  0.00  0.00    +0.150 HD
ATOM     29  H   UNL     1      13.118  11.749  16.432  0.00  0.00    +0.151 HD
BRANCH   8  16
ATOM     16  C   UNL     1      14.105  11.463  14.567  0.00  0.00    +0.074 C 
ATOM     17  C   UNL     1      13.778  12.922  14.233  0.00  0.00    +0.022 C 
ATOM     18  C   UNL     1      15.618  11.244  14.680  0.00  0.00    +0.022 C 
ATOM     19  C   UNL     1      14.444  13.906  15.193  0.00  0.00    +0.002 C 
ATOM     20  C   UNL     1      16.281  12.231  15.641  0.00  0.00    +0.002 C 
ATOM     21  C   UNL     1      15.950  13.676  15.281  0.00  0.00    +0.000 C 
ENDBRANCH   8  16
ENDBRANCH  15   7
ENDBRANCH  12  15
TORSDOF 7
ENDMDL
MODEL 7
REMARK VINA RESULT:      -6.2     26.611     28.306
REMARK  Name = 25390225
REMARK  7 active torsions:
REMARK  status: ('A' for Active; 'I' for Inactive)
REMARK    1  A    between atoms: O_2  and  C_11
REMARK    2  A    between atoms: O_3  and  C_13
REMARK    3  A    between atoms: N_7  and  C_15
REMARK    4  A    between atoms: N_8  and  C_16
REMARK    5  A    between atoms: C_10  and  C_14
REMARK    6  A    between atoms: C_12  and  C_15
REMARK    7  A    between atoms: C_14  and  C_22
REMARK                            x       y       z     vdW  Elec       q    Type
REMARK                         _______ _______ _______ _____ _____    ______ ____
ROOT
ATOM      1  O   UNL     1      -4.565 -11.124  14.634  0.00  0.00    -0.366 OA
ATOM     10  C   UNL     1      -3.610 -11.522  13.624  0.00  0.00    +0.159 C 
ATOM     11  C   UNL     1      -2.288 -11.751  14.349  0.00  0.00    +0.175 C 
ATOM     12  C   UNL     1      -3.876 -10.944  15.884  0.00  0.00    +0.167 C 
ATOM     13  C   UNL     1      -2.406 -10.804  15.525  0.00  0.00    +0.176 C 
ENDROOT
BRANCH  11   2
ATOM      2  O   UNL     1      -2.262 -13.103  14.804  0.00  0.00    -0.387 OA
ATOM     30  H   UNL     1      -1.618 -13.582  14.255  0.00  0.00    +0.210 HD
ENDBRANCH  11   2
BRANCH  13   3
ATOM      3  O   UNL     1      -1.562 -11.144  16.604  0.00  0.00    -0.387 OA
ATOM     31  H   UNL     1      -0.651 -11.176  16.264  0.00  0.00    +0.210 HD
ENDBRANCH  13   3
BRANCH  10  14
ATOM     14  C   UNL     1      -3.537 -10.408  12.588  0.00  0.00    +0.130 C 
BRANCH  14  22
ATOM      4  O   UNL     1      -6.100  -8.961   8.486  0.00  0.00    -0.377 OA
ATOM      5  O   UNL     1      -3.201 -12.106  10.968  0.00  0.00    -0.276 OA
ATOM      9  N   UNL     1      -4.256 -10.171  10.239  0.00  0.00    -0.297 N 
ATOM     22  C   UNL     1      -3.644 -10.978  11.196  0.00  0.00    +0.218 C 
ATOM     24  C   UNL     1      -4.405 -10.648   8.865  0.00  0.00    +0.136 C 
ATOM     25  C   UNL     1      -4.678  -8.780  10.444  0.00  0.00    +0.136 C 
ATOM     26  C   UNL     1      -5.807 -10.354   8.351  0.00  0.00    +0.179 C 
ATOM     27  C   UNL     1      -6.068  -8.561   9.859  0.00  0.00    +0.179 C 
ENDBRANCH  14  22
ENDBRANCH  10  14
BRANCH  12  15
ATOM     15  C   UNL     1      -4.437  -9.733  16.608  0.00  0.00    +0.140 C 
BRANCH  15   7
ATOM      6  O   UNL     1      -6.951 -10.024  17.973  0.00  0.00    -0.253 OA
ATOM      7  N   UNL     1      -5.732  -9.383  16.103  0.00  0.00    -0.297 N 
ATOM      8  N   UNL     1      -8.028  -9.138  16.116  0.00  0.00    -0.297 N 
ATOM     23  C   UNL     1      -6.912  -9.557  16.835  0.00  0.00    +0.300 C 
ATOM     28  H   UNL     1      -5.802  -9.037  15.151  0.00  0.00    +0.150 HD
ATOM     29  H   UNL     1      -7.874  -8.695  15.216  0.00  0.00    +0.151 HD
BRANCH   8  16
ATOM     16  C   UNL     1      -9.375  -9.206  16.637  0.00  0.00    +0.074 C 
ATOM     17  C   UNL     1      -9.887  -7.815  17.026  0.00  0.00    +0.022 C 
ATOM     18  C   UNL     1     -10.318  -9.886  15.637  0.00  0.00    +0.022 C 
ATOM     19  C   UNL     1     -10.183  -6.939  15.809  0.00  0.00    +0.002 C 
ATOM     20  C   UNL     1     -10.613  -9.006  14.422  0.00  0.00    +0.002 C 
ATOM     21  C   UNL     1     -11.132  -7.632  14.835  0.00  0.00    +0.000 C 
ENDBRANCH   8  16
ENDBRANCH  15   7
ENDBRANCH  12  15
TORSDOF 7
ENDMDL
MODEL 8
REMARK VINA RESULT:      -6.2     27.390     29.778
REMARK  Name = 25390225
REMARK  7 active torsions:
REMARK  status: ('A' for Active; 'I' for Inactive)
REMARK    1  A    between atoms: O_2  and  C_11
REMARK    2  A    between atoms: O_3  and  C_13
REMARK    3  A    between atoms: N_7  and  C_15
REMARK    4  A    between atoms: N_8  and  C_16
REMARK    5  A    between atoms: C_10  and  C_14
REMARK    6  A    between atoms: C_12  and  C_15
REMARK    7  A    between atoms: C_14  and  C_22
REMARK                            x       y       z     vdW  Elec       q    Type
REMARK                         _______ _______ _______ _____ _____    ______ ____
ROOT
ATOM      1  O   UNL     1      -6.118 -10.739  18.520  0.00  0.00    -0.366 OA
ATOM     10  C   UNL     1      -5.939 -12.112  18.940  0.00  0.00    +0.159 C 
ATOM     11  C   UNL     1      -4.634 -12.587  18.310  0.00  0.00    +0.175 C 
ATOM     12  C   UNL     1      -5.101 -10.409  17.558  0.00  0.00    +0.167 C 
ATOM     13  C   UNL     1      -4.562 -11.739  17.057  0.00  0.00    +0.176 C 
ENDROOT
BRANCH  11   2
ATOM      2  O   UNL     1      -3.567 -12.253  19.196  0.00  0.00    -0.387 OA
ATOM     30  H   UNL     1      -3.828 -11.447  19.674  0.00  0.00    +0.210 HD
ENDBRANCH  11   2
BRANCH  13   3
ATOM      3  O   UNL     1      -3.256 -11.619  16.537  0.00  0.00    -0.387 OA
ATOM     31  H   UNL     1      -3.031 -12.466  16.114  0.00  0.00    +0.210 HD
ENDBRANCH  13   3
BRANCH  10  14
ATOM     14  C   UNL     1      -7.151 -12.904  18.471  0.00  0.00    +0.130 C 
BRANCH  14  22
ATOM      4  O   UNL     1     -10.972  -9.620  18.790  0.00  0.00    -0.377 OA
ATOM      5  O   UNL     1      -8.271 -13.391  20.503  0.00  0.00    -0.276 OA
ATOM      9  N   UNL     1      -9.308 -11.874  19.085  0.00  0.00    -0.297 N 
ATOM     22  C   UNL     1      -8.289 -12.752  19.448  0.00  0.00    +0.218 C 
ATOM     24  C   UNL     1     -10.447 -11.664  19.977  0.00  0.00    +0.136 C 
ATOM     25  C   UNL     1      -9.425 -11.197  17.788  0.00  0.00    +0.136 C 
ATOM     26  C   UNL     1     -10.766 -10.179  20.090  0.00  0.00    +0.179 C 
ATOM     27  C   UNL     1      -9.793  -9.732  17.990  0.00  0.00    +0.179 C 
ENDBRANCH  14  22
ENDBRANCH  10  14
BRANCH  12  15
ATOM     15  C   UNL     1      -5.698  -9.549  16.458  0.00  0.00    +0.140 C 
BRANCH  15   7
ATOM      6  O   UNL     1      -7.083  -9.924  13.967  0.00  0.00    -0.253 OA
ATOM      7  N   UNL     1      -5.109  -9.850  15.187  0.00  0.00    -0.297 N 
ATOM      8  N   UNL     1      -5.043 -10.305  12.924  0.00  0.00    -0.297 N 
ATOM     23  C   UNL     1      -5.857 -10.019  14.017  0.00  0.00    +0.300 C 
ATOM     28  H   UNL     1      -4.105  -9.998  15.143  0.00  0.00    +0.150 HD
ATOM     29  H   UNL     1      -4.038 -10.281  13.063  0.00  0.00    +0.151 HD
BRANCH   8  16
ATOM     16  C   UNL     1      -5.557 -10.524  11.591  0.00  0.00    +0.074 C 
ATOM     17  C   UNL     1      -5.973  -9.203  10.936  0.00  0.00    +0.022 C 
ATOM     18  C   UNL     1      -4.540 -11.278  10.726  0.00  0.00    +0.022 C 
ATOM     19  C   UNL     1      -4.773  -8.338  10.551  0.00  0.00    +0.002 C 
ATOM     20  C   UNL     1      -3.342 -10.408  10.342  0.00  0.00    +0.002 C 
ATOM     21  C   UNL     1      -3.781  -9.105   9.682  0.00  0.00    +0.000 C 
ENDBRANCH   8  16
ENDBRANCH  15   7
ENDBRANCH  12  15
TORSDOF 7
ENDMDL
MODEL 9
REMARK VINA RESULT:      -6.1      3.565      4.501
REMARK  Name = 25390225
REMARK  7 active torsions:
REMARK  status: ('A' for Active; 'I' for Inactive)
REMARK    1  A    between atoms: O_2  and  C_11
REMARK    2  A    between atoms: O_3  and  C_13
REMARK    3  A    between atoms: N_7  and  C_15
REMARK    4  A    between atoms: N_8  and  C_16
REMARK    5  A    between atoms: C_10  and  C_14
REMARK    6  A    between atoms: C_12  and  C_15
REMARK    7  A    between atoms: C_14  and  C_22
REMARK                            x       y       z     vdW  Elec       q    Type
REMARK                         _______ _______ _______ _____ _____    ______ ____
ROOT
ATOM      1  O   UNL     1      12.504   8.749  21.095  0.00  0.00    -0.366 OA
ATOM     10  C   UNL     1      13.460   7.690  20.859  0.00  0.00    +0.159 C 
ATOM     11  C   UNL     1      12.656   6.396  20.778  0.00  0.00    +0.175 C 
ATOM     12  C   UNL     1      11.208   8.168  21.321  0.00  0.00    +0.167 C 
ATOM     13  C   UNL     1      11.466   6.710  21.662  0.00  0.00    +0.176 C 
ENDROOT
BRANCH  11   2
ATOM      2  O   UNL     1      12.235   6.221  19.426  0.00  0.00    -0.387 OA
ATOM     30  H   UNL     1      12.943   5.744  18.961  0.00  0.00    +0.210 HD
ENDBRANCH  11   2
BRANCH  13   3
ATOM      3  O   UNL     1      10.344   5.897  21.398  0.00  0.00    -0.387 OA
ATOM     31  H   UNL     1      10.518   5.419  20.569  0.00  0.00    +0.210 HD
ENDBRANCH  13   3
BRANCH  10  14
ATOM     14  C   UNL     1      14.460   7.700  22.006  0.00  0.00    +0.130 C 
BRANCH  14  22
ATOM      4  O   UNL     1      19.407   8.332  21.221  0.00  0.00    -0.377 OA
ATOM      5  O   UNL     1      14.882  10.015  22.292  0.00  0.00    -0.276 OA
ATOM      9  N   UNL     1      16.629   8.738  21.450  0.00  0.00    -0.297 N 
ATOM     22  C   UNL     1      15.335   8.926  21.931  0.00  0.00    +0.218 C 
ATOM     24  C   UNL     1      17.545   9.874  21.349  0.00  0.00    +0.136 C 
ATOM     25  C   UNL     1      17.157   7.487  20.895  0.00  0.00    +0.136 C 
ATOM     26  C   UNL     1      18.917   9.498  21.889  0.00  0.00    +0.179 C 
ATOM     27  C   UNL     1      18.549   7.211  21.449  0.00  0.00    +0.179 C 
ENDBRANCH  14  22
ENDBRANCH  10  14
BRANCH  12  15
ATOM     15  C   UNL     1      10.493   8.927  22.424  0.00  0.00    +0.140 C 
BRANCH  15   7
ATOM      6  O   UNL     1      11.042  11.724  22.049  0.00  0.00    -0.253 OA
ATOM      7  N   UNL     1      11.409   9.729  23.179  0.00  0.00    -0.297 N 
ATOM      8  N   UNL     1      12.558  11.632  23.805  0.00  0.00    -0.297 N 
ATOM     23  C   UNL     1      11.619  11.090  22.932  0.00  0.00    +0.300 C 
ATOM     28  H   UNL     1      11.969   9.278  23.896  0.00  0.00    +0.150 HD
ATOM     29  H   UNL     1      12.915  11.037  24.546  0.00  0.00    +0.151 HD
BRANCH   8  16
ATOM     16  C   UNL     1      12.963  13.020  23.771  0.00  0.00    +0.074 C 
ATOM     17  C   UNL     1      11.903  13.919  24.415  0.00  0.00    +0.022 C 
ATOM     18  C   UNL     1      14.332  13.210  24.434  0.00  0.00    +0.022 C 
ATOM     19  C   UNL     1      11.847  13.762  25.934  0.00  0.00    +0.002 C 
ATOM     20  C   UNL     1      14.271  13.054  25.953  0.00  0.00    +0.002 C 
ATOM     21  C   UNL     1      13.218  13.967  26.572  0.00  0.00    +0.000 C 
ENDBRANCH   8  16
ENDBRANCH  15   7
ENDBRANCH  12  15
TORSDOF 7
ENDMDL
MODEL 10
REMARK VINA RESULT:      -6.1      2.703      4.339
REMARK  Name = 25390225
REMARK  7 active torsions:
REMARK  status: ('A' for Active; 'I' for Inactive)
REMARK    1  A    between atoms: O_2  and  C_11
REMARK    2  A    between atoms: O_3  and  C_13
REMARK    3  A    between atoms: N_7  and  C_15
REMARK    4  A    between atoms: N_8  and  C_16
REMARK    5  A    between atoms: C_10  and  C_14
REMARK    6  A    between atoms: C_12  and  C_15
REMARK    7  A    between atoms: C_14  and  C_22
REMARK                            x       y       z     vdW  Elec       q    Type
REMARK                         _______ _______ _______ _____ _____    ______ ____
ROOT
ATOM      1  O   UNL     1      14.138   8.427  19.466  0.00  0.00    -0.366 OA
ATOM     10  C   UNL     1      13.941   7.222  20.239  0.00  0.00    +0.159 C 
ATOM     11  C   UNL     1      12.436   6.972  20.270  0.00  0.00    +0.175 C 
ATOM     12  C   UNL     1      12.855   9.006  19.167  0.00  0.00    +0.167 C 
ATOM     13  C   UNL     1      11.882   8.377  20.150  0.00  0.00    +0.176 C 
ENDROOT
BRANCH  11   2
ATOM      2  O   UNL     1      12.091   6.204  19.119  0.00  0.00    -0.387 OA
ATOM     30  H   UNL     1      11.230   5.788  19.294  0.00  0.00    +0.210 HD
ENDBRANCH  11   2
BRANCH  13   3
ATOM      3  O   UNL     1      10.553   8.414  19.678  0.00  0.00    -0.387 OA
ATOM     31  H   UNL     1      10.037   7.779  20.205  0.00  0.00    +0.210 HD
ENDBRANCH  13   3
BRANCH  10  14
ATOM     14  C   UNL     1      14.535   7.452  21.622  0.00  0.00    +0.130 C 
BRANCH  14  22
ATOM      4  O   UNL     1      17.614  11.445  21.365  0.00  0.00    -0.377 OA
ATOM      5  O   UNL     1      16.716   6.582  21.294  0.00  0.00    -0.276 OA
ATOM      9  N   UNL     1      16.561   8.858  21.730  0.00  0.00    -0.297 N 
ATOM     22  C   UNL     1      16.035   7.583  21.534  0.00  0.00    +0.218 C 
ATOM     24  C   UNL     1      18.006   9.073  21.657  0.00  0.00    +0.136 C 
ATOM     25  C   UNL     1      15.795  10.040  22.140  0.00  0.00    +0.136 C 
ATOM     26  C   UNL     1      18.315  10.317  20.835  0.00  0.00    +0.179 C 
ATOM     27  C   UNL     1      16.200  11.247  21.302  0.00  0.00    +0.179 C 
ENDBRANCH  14  22
ENDBRANCH  10  14
BRANCH  12  15
ATOM     15  C   UNL     1      12.936  10.518  19.283  0.00  0.00    +0.140 C 
BRANCH  15   7
ATOM      6  O   UNL     1      13.267  13.154  20.382  0.00  0.00    -0.253 OA
ATOM      7  N   UNL     1      12.539  10.958  20.588  0.00  0.00    -0.297 N 
ATOM      8  N   UNL     1      12.263  12.429  22.346  0.00  0.00    -0.297 N 
ATOM     23  C   UNL     1      12.738  12.265  21.048  0.00  0.00    +0.300 C 
ATOM     28  H   UNL     1      12.140  10.278  21.227  0.00  0.00    +0.150 HD
ATOM     29  H   UNL     1      11.773  11.650  22.774  0.00  0.00    +0.151 HD
BRANCH   8  16
ATOM     16  C   UNL     1      12.341  13.682  23.064  0.00  0.00    +0.074 C 
ATOM     17  C   UNL     1      10.975  14.375  23.112  0.00  0.00    +0.022 C 
ATOM     18  C   UNL     1      12.909  13.475  24.473  0.00  0.00    +0.022 C 
ATOM     19  C   UNL     1       9.992  13.667  24.045  0.00  0.00    +0.002 C 
ATOM     20  C   UNL     1      11.923  12.768  25.403  0.00  0.00    +0.002 C 
ATOM     21  C   UNL     1      10.576  13.483  25.443  0.00  0.00    +0.000 C 
ENDBRANCH   8  16
ENDBRANCH  15   7
ENDBRANCH  12  15
TORSDOF 7
ENDMDL
