MODEL 1
REMARK VINA RESULT:      -6.3      0.000      0.000
REMARK  Name = 11881998
REMARK  12 active torsions:
REMARK  status: ('A' for Active; 'I' for Inactive)
REMARK    1  A    between atoms: S_1  and  C_21
REMARK    2  A    between atoms: S_1  and  C_25
REMARK    3  A    between atoms: O_2  and  C_12
REMARK    4  A    between atoms: O_3  and  C_14
REMARK    5  A    between atoms: N_9  and  C_13
REMARK    6  A    between atoms: N_10  and  C_19
REMARK    7  A    between atoms: C_16  and  C_18
REMARK    8  A    between atoms: C_19  and  C_20
REMARK    9  A    between atoms: C_19  and  C_23
REMARK   10  A    between atoms: C_20  and  C_21
REMARK   11  A    between atoms: C_22  and  C_24
REMARK   12  A    between atoms: C_30  and  C_31
REMARK                            x       y       z     vdW  Elec       q    Type
REMARK                         _______ _______ _______ _____ _____    ______ ____
ROOT
ATOM     12  C   UNL     1      13.638   4.065   1.456  0.00  0.00    +0.167 C 
ATOM     13  C   UNL     1      12.571   5.151   1.698  0.00  0.00    +0.128 C 
ATOM     14  C   UNL     1      14.020   3.973  -0.026  0.00  0.00    +0.149 C 
ATOM     15  C   UNL     1      12.796   3.725  -0.925  0.00  0.00    +0.074 C 
ATOM     16  C   UNL     1      11.572   4.480  -0.487  0.00  0.00    +0.015 C 
ATOM     17  C   UNL     1      11.461   5.130   0.682  0.00  0.00    +0.006 C 
ENDROOT
BRANCH  16  18
ATOM      4  O   UNL     1       9.356   5.020  -1.047  0.00  0.00    -0.271 OA
ATOM     10  N   UNL     1      10.704   3.982  -2.642  0.00  0.00    -0.300 N 
ATOM     18  C   UNL     1      10.429   4.531  -1.401  0.00  0.00    +0.241 C 
ATOM     33  H   UNL     1      11.629   3.602  -2.822  0.00  0.00    +0.150 HD
BRANCH  10  19
ATOM     19  C   UNL     1       9.731   3.916  -3.709  0.00  0.00    +0.160 C 
BRANCH  19  23
ATOM      8  O   UNL     1       9.388   1.575  -3.157  0.00  0.00    -0.274 OA
ATOM     11  N   UNL     1       9.351   2.198  -5.367  0.00  0.00    -0.328 N 
ATOM     23  C   UNL     1       9.492   2.445  -4.019  0.00  0.00    +0.231 C 
ATOM     36  H   UNL     1       9.177   1.257  -5.708  0.00  0.00    +0.145 HD
ATOM     37  H   UNL     1       9.396   2.931  -6.068  0.00  0.00    +0.145 HD
ENDBRANCH  19  23
BRANCH  19  20
ATOM     20  C   UNL     1      10.202   4.658  -4.962  0.00  0.00    +0.054 C 
BRANCH  20  21
ATOM     21  C   UNL     1      11.687   4.996  -4.912  0.00  0.00    +0.168 C 
BRANCH  21   1
ATOM      1  S   UNL     1      12.668   3.665  -5.529  0.00  0.00    -0.034 S 
ATOM      6  O   UNL     1      13.036   2.815  -4.410  0.00  0.00    -0.175 OA
ATOM      7  O   UNL     1      12.000   3.109  -6.694  0.00  0.00    -0.175 OA
ATOM     25  C   UNL     1      14.147   4.475  -6.096  0.00  0.00    +0.194 C 
ENDBRANCH  21   1
ENDBRANCH  20  21
ENDBRANCH  19  20
ENDBRANCH  10  19
ENDBRANCH  16  18
BRANCH  13   9
ATOM      5  O   UNL     1      11.843   7.324   3.426  0.00  0.00    -0.270 OA
ATOM      9  N   UNL     1      11.997   5.047   3.017  0.00  0.00    -0.302 N 
ATOM     22  C   UNL     1      11.677   6.160   3.780  0.00  0.00    +0.245 C 
ATOM     32  H   UNL     1      11.923   4.116   3.417  0.00  0.00    +0.150 HD
BRANCH  22  24
ATOM     24  C   UNL     1      11.117   5.885   5.129  0.00  0.00    +0.037 A 
ATOM     26  C   UNL     1      11.572   6.605   6.233  0.00  0.00    +0.013 A 
ATOM     27  C   UNL     1      10.137   4.905   5.291  0.00  0.00    +0.013 A 
ATOM     28  C   UNL     1      11.047   6.348   7.499  0.00  0.00    +0.004 A 
ATOM     29  C   UNL     1       9.612   4.647   6.557  0.00  0.00    +0.004 A 
ATOM     30  C   UNL     1      10.066   5.368   7.661  0.00  0.00    -0.050 A 
ATOM     31  C   UNL     1       9.505   5.094   9.015  0.00  0.00    +0.044 C 
ENDBRANCH  22  24
ENDBRANCH  13   9
BRANCH  12   2
ATOM      2  O   UNL     1      13.138   2.796   1.882  0.00  0.00    -0.387 OA
ATOM     34  H   UNL     1      12.629   2.420   1.144  0.00  0.00    +0.210 HD
ENDBRANCH  12   2
BRANCH  14   3
ATOM      3  O   UNL     1      14.695   5.162  -0.435  0.00  0.00    -0.389 OA
ATOM     35  H   UNL     1      15.633   4.939  -0.557  0.00  0.00    +0.210 HD
ENDBRANCH  14   3
TORSDOF 10
ENDMDL
MODEL 2
REMARK VINA RESULT:      -6.2     25.054     28.481
REMARK  Name = 11881998
REMARK  12 active torsions:
REMARK  status: ('A' for Active; 'I' for Inactive)
REMARK    1  A    between atoms: S_1  and  C_21
REMARK    2  A    between atoms: S_1  and  C_25
REMARK    3  A    between atoms: O_2  and  C_12
REMARK    4  A    between atoms: O_3  and  C_14
REMARK    5  A    between atoms: N_9  and  C_13
REMARK    6  A    between atoms: N_10  and  C_19
REMARK    7  A    between atoms: C_16  and  C_18
REMARK    8  A    between atoms: C_19  and  C_20
REMARK    9  A    between atoms: C_19  and  C_23
REMARK   10  A    between atoms: C_20  and  C_21
REMARK   11  A    between atoms: C_22  and  C_24
REMARK   12  A    between atoms: C_30  and  C_31
REMARK                            x       y       z     vdW  Elec       q    Type
REMARK                         _______ _______ _______ _____ _____    ______ ____
ROOT
ATOM     12  C   UNL     1      -8.331 -10.248  18.314  0.00  0.00    +0.167 C 
ATOM     13  C   UNL     1      -7.666  -9.344  17.259  0.00  0.00    +0.128 C 
ATOM     14  C   UNL     1      -7.286 -10.993  19.155  0.00  0.00    +0.149 C 
ATOM     15  C   UNL     1      -6.321 -11.815  18.283  0.00  0.00    +0.074 C 
ATOM     16  C   UNL     1      -5.936 -11.123  17.006  0.00  0.00    +0.015 C 
ATOM     17  C   UNL     1      -6.524 -10.010  16.540  0.00  0.00    +0.006 C 
ENDROOT
BRANCH  16  18
ATOM      4  O   UNL     1      -4.644 -12.898  16.171  0.00  0.00    -0.271 OA
ATOM     10  N   UNL     1      -4.069 -10.713  15.594  0.00  0.00    -0.300 N 
ATOM     18  C   UNL     1      -4.831 -11.682  16.224  0.00  0.00    +0.241 C 
ATOM     33  H   UNL     1      -4.315  -9.734  15.712  0.00  0.00    +0.150 HD
BRANCH  10  19
ATOM     19  C   UNL     1      -2.924 -11.022  14.768  0.00  0.00    +0.160 C 
BRANCH  19  23
ATOM      8  O   UNL     1      -1.009  -9.541  14.989  0.00  0.00    -0.274 OA
ATOM     11  N   UNL     1      -1.458 -11.015  16.692  0.00  0.00    -0.328 N 
ATOM     23  C   UNL     1      -1.694 -10.447  15.458  0.00  0.00    +0.231 C 
ATOM     36  H   UNL     1      -0.674 -10.714  17.261  0.00  0.00    +0.145 HD
ATOM     37  H   UNL     1      -2.056 -11.733  17.089  0.00  0.00    +0.145 HD
ENDBRANCH  19  23
BRANCH  19  20
ATOM     20  C   UNL     1      -3.063 -10.450  13.356  0.00  0.00    +0.054 C 
BRANCH  20  21
ATOM     21  C   UNL     1      -4.074 -11.219  12.516  0.00  0.00    +0.168 C 
BRANCH  21   1
ATOM      1  S   UNL     1      -5.438 -10.196  12.059  0.00  0.00    -0.034 S 
ATOM      6  O   UNL     1      -5.955  -9.564  13.261  0.00  0.00    -0.175 OA
ATOM      7  O   UNL     1      -5.042  -9.395  10.913  0.00  0.00    -0.175 OA
ATOM     25  C   UNL     1      -6.658 -11.364  11.500  0.00  0.00    +0.194 C 
ENDBRANCH  21   1
ENDBRANCH  20  21
ENDBRANCH  19  20
ENDBRANCH  10  19
ENDBRANCH  16  18
BRANCH  13   9
ATOM      5  O   UNL     1      -9.848  -7.538  17.727  0.00  0.00    -0.270 OA
ATOM      9  N   UNL     1      -8.620  -8.875  16.284  0.00  0.00    -0.302 N 
ATOM     22  C   UNL     1      -9.645  -7.997  16.607  0.00  0.00    +0.245 C 
ATOM     32  H   UNL     1      -8.575  -9.288  15.358  0.00  0.00    +0.150 HD
BRANCH  22  24
ATOM     24  C   UNL     1     -10.560  -7.630  15.495  0.00  0.00    +0.037 A 
ATOM     26  C   UNL     1     -10.921  -8.583  14.544  0.00  0.00    +0.013 A 
ATOM     27  C   UNL     1     -11.058  -6.329  15.403  0.00  0.00    +0.013 A 
ATOM     28  C   UNL     1     -11.780  -8.239  13.502  0.00  0.00    +0.004 A 
ATOM     29  C   UNL     1     -11.917  -5.984  14.359  0.00  0.00    +0.004 A 
ATOM     30  C   UNL     1     -12.278  -6.939  13.409  0.00  0.00    -0.050 A 
ATOM     31  C   UNL     1     -13.198  -6.571  12.294  0.00  0.00    +0.044 C 
ENDBRANCH  22  24
ENDBRANCH  13   9
BRANCH  12   2
ATOM      2  O   UNL     1      -9.169 -11.207  17.666  0.00  0.00    -0.387 OA
ATOM     34  H   UNL     1      -9.552 -11.774  18.357  0.00  0.00    +0.210 HD
ENDBRANCH  12   2
BRANCH  14   3
ATOM      3  O   UNL     1      -6.555 -10.070  19.960  0.00  0.00    -0.389 OA
ATOM     35  H   UNL     1      -5.609 -10.207  19.778  0.00  0.00    +0.210 HD
ENDBRANCH  14   3
TORSDOF 10
ENDMDL
MODEL 3
REMARK VINA RESULT:      -6.1      4.738      8.160
REMARK  Name = 11881998
REMARK  12 active torsions:
REMARK  status: ('A' for Active; 'I' for Inactive)
REMARK    1  A    between atoms: S_1  and  C_21
REMARK    2  A    between atoms: S_1  and  C_25
REMARK    3  A    between atoms: O_2  and  C_12
REMARK    4  A    between atoms: O_3  and  C_14
REMARK    5  A    between atoms: N_9  and  C_13
REMARK    6  A    between atoms: N_10  and  C_19
REMARK    7  A    between atoms: C_16  and  C_18
REMARK    8  A    between atoms: C_19  and  C_20
REMARK    9  A    between atoms: C_19  and  C_23
REMARK   10  A    between atoms: C_20  and  C_21
REMARK   11  A    between atoms: C_22  and  C_24
REMARK   12  A    between atoms: C_30  and  C_31
REMARK                            x       y       z     vdW  Elec       q    Type
REMARK                         _______ _______ _______ _____ _____    ______ ____
ROOT
ATOM     12  C   UNL     1      15.160   4.290   1.175  0.00  0.00    +0.167 C 
ATOM     13  C   UNL     1      14.665   5.671   1.648  0.00  0.00    +0.128 C 
ATOM     14  C   UNL     1      14.090   3.562   0.351  0.00  0.00    +0.149 C 
ATOM     15  C   UNL     1      12.766   3.417   1.120  0.00  0.00    +0.074 C 
ATOM     16  C   UNL     1      12.418   4.627   1.941  0.00  0.00    +0.015 C 
ATOM     17  C   UNL     1      13.256   5.648   2.178  0.00  0.00    +0.006 C 
ENDROOT
BRANCH  16  18
ATOM      4  O   UNL     1      10.210   3.878   2.226  0.00  0.00    -0.271 OA
ATOM     10  N   UNL     1      10.904   5.804   3.344  0.00  0.00    -0.300 N 
ATOM     18  C   UNL     1      11.069   4.714   2.506  0.00  0.00    +0.241 C 
ATOM     33  H   UNL     1      11.686   6.433   3.500  0.00  0.00    +0.150 HD
BRANCH  10  19
ATOM     19  C   UNL     1       9.659   6.100   4.016  0.00  0.00    +0.160 C 
BRANCH  19  23
ATOM      8  O   UNL     1       9.391   7.749   2.251  0.00  0.00    -0.274 OA
ATOM     11  N   UNL     1       8.124   7.964   4.155  0.00  0.00    -0.328 N 
ATOM     23  C   UNL     1       9.078   7.351   3.371  0.00  0.00    +0.231 C 
ATOM     36  H   UNL     1       7.651   8.804   3.836  0.00  0.00    +0.145 HD
ATOM     37  H   UNL     1       7.842   7.602   5.060  0.00  0.00    +0.145 HD
ENDBRANCH  19  23
BRANCH  19  20
ATOM     20  C   UNL     1       9.854   6.313   5.519  0.00  0.00    +0.054 C 
BRANCH  20  21
ATOM     21  C   UNL     1       9.946   4.999   6.284  0.00  0.00    +0.168 C 
BRANCH  21   1
ATOM      1  S   UNL     1      10.256   5.276   7.999  0.00  0.00    -0.034 S 
ATOM      6  O   UNL     1       9.891   4.072   8.727  0.00  0.00    -0.175 OA
ATOM      7  O   UNL     1      11.583   5.850   8.136  0.00  0.00    -0.175 OA
ATOM     25  C   UNL     1       9.079   6.539   8.429  0.00  0.00    +0.194 C 
ENDBRANCH  21   1
ENDBRANCH  20  21
ENDBRANCH  19  20
ENDBRANCH  10  19
ENDBRANCH  16  18
BRANCH  13   9
ATOM      5  O   UNL     1      15.334   8.442   1.986  0.00  0.00    -0.270 OA
ATOM      9  N   UNL     1      15.533   6.230   2.654  0.00  0.00    -0.302 N 
ATOM     22  C   UNL     1      15.797   7.590   2.739  0.00  0.00    +0.245 C 
ATOM     32  H   UNL     1      16.031   5.576   3.251  0.00  0.00    +0.150 HD
BRANCH  22  24
ATOM     24  C   UNL     1      16.733   8.005   3.816  0.00  0.00    +0.037 A 
ATOM     26  C   UNL     1      18.105   8.040   3.571  0.00  0.00    +0.013 A 
ATOM     27  C   UNL     1      16.239   8.359   5.072  0.00  0.00    +0.013 A 
ATOM     28  C   UNL     1      18.984   8.430   4.581  0.00  0.00    +0.004 A 
ATOM     29  C   UNL     1      17.118   8.749   6.082  0.00  0.00    +0.004 A 
ATOM     30  C   UNL     1      18.491   8.784   5.837  0.00  0.00    -0.050 A 
ATOM     31  C   UNL     1      19.431   9.202   6.917  0.00  0.00    +0.044 C 
ENDBRANCH  22  24
ENDBRANCH  13   9
BRANCH  12   2
ATOM      2  O   UNL     1      15.494   3.486   2.308  0.00  0.00    -0.387 OA
ATOM     34  H   UNL     1      15.213   3.970   3.103  0.00  0.00    +0.210 HD
ENDBRANCH  12   2
BRANCH  14   3
ATOM      3  O   UNL     1      13.869   4.245  -0.881  0.00  0.00    -0.389 OA
ATOM     35  H   UNL     1      14.016   5.193  -0.721  0.00  0.00    +0.210 HD
ENDBRANCH  14   3
TORSDOF 10
ENDMDL
MODEL 4
REMARK VINA RESULT:      -6.1      2.191      3.588
REMARK  Name = 11881998
REMARK  12 active torsions:
REMARK  status: ('A' for Active; 'I' for Inactive)
REMARK    1  A    between atoms: S_1  and  C_21
REMARK    2  A    between atoms: S_1  and  C_25
REMARK    3  A    between atoms: O_2  and  C_12
REMARK    4  A    between atoms: O_3  and  C_14
REMARK    5  A    between atoms: N_9  and  C_13
REMARK    6  A    between atoms: N_10  and  C_19
REMARK    7  A    between atoms: C_16  and  C_18
REMARK    8  A    between atoms: C_19  and  C_20
REMARK    9  A    between atoms: C_19  and  C_23
REMARK   10  A    between atoms: C_20  and  C_21
REMARK   11  A    between atoms: C_22  and  C_24
REMARK   12  A    between atoms: C_30  and  C_31
REMARK                            x       y       z     vdW  Elec       q    Type
REMARK                         _______ _______ _______ _____ _____    ______ ____
ROOT
ATOM     12  C   UNL     1      13.741   7.410   3.618  0.00  0.00    +0.167 C 
ATOM     13  C   UNL     1      12.373   6.718   3.463  0.00  0.00    +0.128 C 
ATOM     14  C   UNL     1      14.453   7.557   2.267  0.00  0.00    +0.149 C 
ATOM     15  C   UNL     1      14.619   6.206   1.549  0.00  0.00    +0.074 C 
ATOM     16  C   UNL     1      13.430   5.300   1.703  0.00  0.00    +0.015 C 
ATOM     17  C   UNL     1      12.413   5.522   2.550  0.00  0.00    +0.006 C 
ENDROOT
BRANCH  16  18
ATOM      4  O   UNL     1      13.533   2.983   1.334  0.00  0.00    -0.271 OA
ATOM     10  N   UNL     1      13.091   4.395  -0.468  0.00  0.00    -0.300 N 
ATOM     18  C   UNL     1      13.359   4.105   0.859  0.00  0.00    +0.241 C 
ATOM     33  H   UNL     1      12.969   5.364  -0.749  0.00  0.00    +0.150 HD
BRANCH  10  19
ATOM     19  C   UNL     1      12.977   3.380  -1.491  0.00  0.00    +0.160 C 
BRANCH  19  23
ATOM      8  O   UNL     1      14.663   4.684  -2.658  0.00  0.00    -0.274 OA
ATOM     11  N   UNL     1      13.322   3.277  -3.882  0.00  0.00    -0.328 N 
ATOM     23  C   UNL     1      13.740   3.874  -2.712  0.00  0.00    +0.231 C 
ATOM     36  H   UNL     1      13.756   3.511  -4.769  0.00  0.00    +0.145 HD
ATOM     37  H   UNL     1      12.587   2.577  -3.909  0.00  0.00    +0.145 HD
ENDBRANCH  19  23
BRANCH  19  20
ATOM     20  C   UNL     1      11.518   3.090  -1.851  0.00  0.00    +0.054 C 
BRANCH  20  21
ATOM     21  C   UNL     1      10.631   4.321  -1.717  0.00  0.00    +0.168 C 
BRANCH  21   1
ATOM      1  S   UNL     1       9.830   4.703  -3.242  0.00  0.00    -0.034 S 
ATOM      6  O   UNL     1       8.624   5.457  -2.945  0.00  0.00    -0.175 OA
ATOM      7  O   UNL     1      10.825   5.229  -4.160  0.00  0.00    -0.175 OA
ATOM     25  C   UNL     1       9.328   3.108  -3.852  0.00  0.00    +0.194 C 
ENDBRANCH  21   1
ENDBRANCH  20  21
ENDBRANCH  19  20
ENDBRANCH  10  19
ENDBRANCH  16  18
BRANCH  13   9
ATOM      5  O   UNL     1       9.599   6.422   4.137  0.00  0.00    -0.270 OA
ATOM      9  N   UNL     1      11.836   6.313   4.738  0.00  0.00    -0.302 N 
ATOM     22  C   UNL     1      10.472   6.197   4.970  0.00  0.00    +0.245 C 
ATOM     32  H   UNL     1      12.494   6.206   5.505  0.00  0.00    +0.150 HD
BRANCH  22  24
ATOM     24  C   UNL     1      10.078   5.795   6.345  0.00  0.00    +0.037 A 
ATOM     26  C   UNL     1       9.710   6.764   7.277  0.00  0.00    +0.013 A 
ATOM     27  C   UNL     1      10.076   4.446   6.703  0.00  0.00    +0.013 A 
ATOM     28  C   UNL     1       9.340   6.387   8.567  0.00  0.00    +0.004 A 
ATOM     29  C   UNL     1       9.706   4.069   7.994  0.00  0.00    +0.004 A 
ATOM     30  C   UNL     1       9.337   5.039   8.926  0.00  0.00    -0.050 A 
ATOM     31  C   UNL     1       8.940   4.636  10.305  0.00  0.00    +0.044 C 
ENDBRANCH  22  24
ENDBRANCH  13   9
BRANCH  12   2
ATOM      2  O   UNL     1      14.571   6.644   4.493  0.00  0.00    -0.387 OA
ATOM     34  H   UNL     1      14.241   5.730   4.483  0.00  0.00    +0.210 HD
ENDBRANCH  12   2
BRANCH  14   3
ATOM      3  O   UNL     1      13.741   8.470   1.433  0.00  0.00    -0.389 OA
ATOM     35  H   UNL     1      13.284   7.950   0.750  0.00  0.00    +0.210 HD
ENDBRANCH  14   3
TORSDOF 10
ENDMDL
MODEL 5
REMARK VINA RESULT:      -5.8      1.838      2.600
REMARK  Name = 11881998
REMARK  12 active torsions:
REMARK  status: ('A' for Active; 'I' for Inactive)
REMARK    1  A    between atoms: S_1  and  C_21
REMARK    2  A    between atoms: S_1  and  C_25
REMARK    3  A    between atoms: O_2  and  C_12
REMARK    4  A    between atoms: O_3  and  C_14
REMARK    5  A    between atoms: N_9  and  C_13
REMARK    6  A    between atoms: N_10  and  C_19
REMARK    7  A    between atoms: C_16  and  C_18
REMARK    8  A    between atoms: C_19  and  C_20
REMARK    9  A    between atoms: C_19  and  C_23
REMARK   10  A    between atoms: C_20  and  C_21
REMARK   11  A    between atoms: C_22  and  C_24
REMARK   12  A    between atoms: C_30  and  C_31
REMARK                            x       y       z     vdW  Elec       q    Type
REMARK                         _______ _______ _______ _____ _____    ______ ____
ROOT
ATOM     12  C   UNL     1      13.557   3.791   1.288  0.00  0.00    +0.167 C 
ATOM     13  C   UNL     1      12.595   4.968   1.543  0.00  0.00    +0.128 C 
ATOM     14  C   UNL     1      13.887   3.647  -0.203  0.00  0.00    +0.149 C 
ATOM     15  C   UNL     1      12.620   3.495  -1.064  0.00  0.00    +0.074 C 
ATOM     16  C   UNL     1      11.480   4.359  -0.604  0.00  0.00    +0.015 C 
ATOM     17  C   UNL     1      11.459   5.031   0.557  0.00  0.00    +0.006 C 
ENDROOT
BRANCH  16  18
ATOM      4  O   UNL     1       9.261   4.971  -1.073  0.00  0.00    -0.271 OA
ATOM     10  N   UNL     1      10.561   4.045  -2.773  0.00  0.00    -0.300 N 
ATOM     18  C   UNL     1      10.319   4.497  -1.487  0.00  0.00    +0.241 C 
ATOM     33  H   UNL     1      11.477   3.668  -3.002  0.00  0.00    +0.150 HD
BRANCH  10  19
ATOM     19  C   UNL     1       9.566   4.076  -3.821  0.00  0.00    +0.160 C 
BRANCH  19  23
ATOM      8  O   UNL     1       9.848   2.425  -5.581  0.00  0.00    -0.274 OA
ATOM     11  N   UNL     1       9.058   1.729  -3.540  0.00  0.00    -0.328 N 
ATOM     23  C   UNL     1       9.501   2.683  -4.431  0.00  0.00    +0.231 C 
ATOM     36  H   UNL     1       8.977   0.756  -3.817  0.00  0.00    +0.145 HD
ATOM     37  H   UNL     1       8.814   1.947  -2.578  0.00  0.00    +0.145 HD
ENDBRANCH  19  23
BRANCH  19  20
ATOM     20  C   UNL     1       9.896   5.117  -4.894  0.00  0.00    +0.054 C 
BRANCH  20  21
ATOM     21  C   UNL     1       8.795   6.158  -5.049  0.00  0.00    +0.168 C 
BRANCH  21   1
ATOM      1  S   UNL     1       9.116   7.582  -4.056  0.00  0.00    -0.034 S 
ATOM      6  O   UNL     1      10.352   7.358  -3.326  0.00  0.00    -0.175 OA
ATOM      7  O   UNL     1       8.950   8.763  -4.887  0.00  0.00    -0.175 OA
ATOM     25  C   UNL     1       7.786   7.567  -2.875  0.00  0.00    +0.194 C 
ENDBRANCH  21   1
ENDBRANCH  20  21
ENDBRANCH  19  20
ENDBRANCH  10  19
ENDBRANCH  16  18
BRANCH  13   9
ATOM      5  O   UNL     1      11.734   7.217   3.104  0.00  0.00    -0.270 OA
ATOM      9  N   UNL     1      12.053   4.932   2.878  0.00  0.00    -0.302 N 
ATOM     22  C   UNL     1      11.662   6.077   3.556  0.00  0.00    +0.245 C 
ATOM     32  H   UNL     1      12.055   4.034   3.354  0.00  0.00    +0.150 HD
BRANCH  22  24
ATOM     24  C   UNL     1      11.147   5.874   4.934  0.00  0.00    +0.037 A 
ATOM     26  C   UNL     1      10.126   4.954   5.169  0.00  0.00    +0.013 A 
ATOM     27  C   UNL     1      11.686   6.604   5.995  0.00  0.00    +0.013 A 
ATOM     28  C   UNL     1       9.644   4.762   6.463  0.00  0.00    +0.004 A 
ATOM     29  C   UNL     1      11.202   6.412   7.290  0.00  0.00    +0.004 A 
ATOM     30  C   UNL     1      10.182   5.491   7.524  0.00  0.00    -0.050 A 
ATOM     31  C   UNL     1       9.666   5.285   8.908  0.00  0.00    +0.044 C 
ENDBRANCH  22  24
ENDBRANCH  13   9
BRANCH  12   2
ATOM      2  O   UNL     1      12.961   2.576   1.746  0.00  0.00    -0.387 OA
ATOM     34  H   UNL     1      13.680   1.943   1.912  0.00  0.00    +0.210 HD
ENDBRANCH  12   2
BRANCH  14   3
ATOM      3  O   UNL     1      14.650   4.767  -0.648  0.00  0.00    -0.389 OA
ATOM     35  H   UNL     1      15.452   4.424  -1.078  0.00  0.00    +0.210 HD
ENDBRANCH  14   3
TORSDOF 10
ENDMDL
MODEL 6
REMARK VINA RESULT:      -5.8     25.602     29.168
REMARK  Name = 11881998
REMARK  12 active torsions:
REMARK  status: ('A' for Active; 'I' for Inactive)
REMARK    1  A    between atoms: S_1  and  C_21
REMARK    2  A    between atoms: S_1  and  C_25
REMARK    3  A    between atoms: O_2  and  C_12
REMARK    4  A    between atoms: O_3  and  C_14
REMARK    5  A    between atoms: N_9  and  C_13
REMARK    6  A    between atoms: N_10  and  C_19
REMARK    7  A    between atoms: C_16  and  C_18
REMARK    8  A    between atoms: C_19  and  C_20
REMARK    9  A    between atoms: C_19  and  C_23
REMARK   10  A    between atoms: C_20  and  C_21
REMARK   11  A    between atoms: C_22  and  C_24
REMARK   12  A    between atoms: C_30  and  C_31
REMARK                            x       y       z     vdW  Elec       q    Type
REMARK                         _______ _______ _______ _____ _____    ______ ____
ROOT
ATOM     12  C   UNL     1      -3.921 -11.316  17.020  0.00  0.00    +0.167 C 
ATOM     13  C   UNL     1      -5.141 -11.710  16.165  0.00  0.00    +0.128 C 
ATOM     14  C   UNL     1      -4.135 -11.665  18.499  0.00  0.00    +0.149 C 
ATOM     15  C   UNL     1      -5.412 -11.022  19.066  0.00  0.00    +0.074 C 
ATOM     16  C   UNL     1      -6.561 -11.023  18.097  0.00  0.00    +0.015 C 
ATOM     17  C   UNL     1      -6.455 -11.338  16.797  0.00  0.00    +0.006 C 
ENDROOT
BRANCH  16  18
ATOM      4  O   UNL     1      -8.235 -10.990  19.745  0.00  0.00    -0.271 OA
ATOM     10  N   UNL     1      -8.664 -10.001  17.677  0.00  0.00    -0.300 N 
ATOM     18  C   UNL     1      -7.892 -10.680  18.604  0.00  0.00    +0.241 C 
ATOM     33  H   UNL     1      -8.276  -9.800  16.759  0.00  0.00    +0.150 HD
BRANCH  10  19
ATOM     19  C   UNL     1     -10.014  -9.559  17.946  0.00  0.00    +0.160 C 
BRANCH  19  23
ATOM      8  O   UNL     1     -10.572 -11.261  16.305  0.00  0.00    -0.274 OA
ATOM     11  N   UNL     1     -12.279 -10.260  17.471  0.00  0.00    -0.328 N 
ATOM     23  C   UNL     1     -10.954 -10.441  17.136  0.00  0.00    +0.231 C 
ATOM     36  H   UNL     1     -13.008 -10.796  17.011  0.00  0.00    +0.145 HD
ATOM     37  H   UNL     1     -12.580  -9.611  18.190  0.00  0.00    +0.145 HD
ENDBRANCH  19  23
BRANCH  19  20
ATOM     20  C   UNL     1     -10.218  -8.086  17.587  0.00  0.00    +0.054 C 
BRANCH  20  21
ATOM     21  C   UNL     1     -10.014  -7.818  16.101  0.00  0.00    +0.168 C 
BRANCH  21   1
ATOM      1  S   UNL     1     -11.477  -7.166  15.361  0.00  0.00    -0.034 S 
ATOM      6  O   UNL     1     -12.598  -7.456  16.239  0.00  0.00    -0.175 OA
ATOM      7  O   UNL     1     -11.204  -5.804  14.934  0.00  0.00    -0.175 OA
ATOM     25  C   UNL     1     -11.673  -8.157  13.897  0.00  0.00    +0.194 C 
ENDBRANCH  21   1
ENDBRANCH  20  21
ENDBRANCH  19  20
ENDBRANCH  10  19
ENDBRANCH  16  18
BRANCH  13   9
ATOM      5  O   UNL     1      -3.507 -12.599  13.979  0.00  0.00    -0.270 OA
ATOM      9  N   UNL     1      -5.076 -11.129  14.847  0.00  0.00    -0.302 N 
ATOM     22  C   UNL     1      -4.252 -11.631  13.850  0.00  0.00    +0.245 C 
ATOM     32  H   UNL     1      -5.590 -10.266  14.697  0.00  0.00    +0.150 HD
BRANCH  22  24
ATOM     24  C   UNL     1      -4.281 -10.904  12.555  0.00  0.00    +0.037 A 
ATOM     26  C   UNL     1      -3.337 -11.194  11.571  0.00  0.00    +0.013 A 
ATOM     27  C   UNL     1      -5.253  -9.929  12.324  0.00  0.00    +0.013 A 
ATOM     28  C   UNL     1      -3.364 -10.512  10.355  0.00  0.00    +0.004 A 
ATOM     29  C   UNL     1      -5.279  -9.246  11.108  0.00  0.00    +0.004 A 
ATOM     30  C   UNL     1      -4.335  -9.538  10.123  0.00  0.00    -0.050 A 
ATOM     31  C   UNL     1      -4.364  -8.809   8.823  0.00  0.00    +0.044 C 
ENDBRANCH  22  24
ENDBRANCH  13   9
BRANCH  12   2
ATOM      2  O   UNL     1      -3.690  -9.910  16.908  0.00  0.00    -0.387 OA
ATOM     34  H   UNL     1      -3.926  -9.647  16.002  0.00  0.00    +0.210 HD
ENDBRANCH  12   2
BRANCH  14   3
ATOM      3  O   UNL     1      -4.182 -13.080  18.668  0.00  0.00    -0.389 OA
ATOM     35  H   UNL     1      -4.148 -13.263  19.623  0.00  0.00    +0.210 HD
ENDBRANCH  14   3
TORSDOF 10
ENDMDL
MODEL 7
REMARK VINA RESULT:      -5.7      6.466     10.025
REMARK  Name = 11881998
REMARK  12 active torsions:
REMARK  status: ('A' for Active; 'I' for Inactive)
REMARK    1  A    between atoms: S_1  and  C_21
REMARK    2  A    between atoms: S_1  and  C_25
REMARK    3  A    between atoms: O_2  and  C_12
REMARK    4  A    between atoms: O_3  and  C_14
REMARK    5  A    between atoms: N_9  and  C_13
REMARK    6  A    between atoms: N_10  and  C_19
REMARK    7  A    between atoms: C_16  and  C_18
REMARK    8  A    between atoms: C_19  and  C_20
REMARK    9  A    between atoms: C_19  and  C_23
REMARK   10  A    between atoms: C_20  and  C_21
REMARK   11  A    between atoms: C_22  and  C_24
REMARK   12  A    between atoms: C_30  and  C_31
REMARK                            x       y       z     vdW  Elec       q    Type
REMARK                         _______ _______ _______ _____ _____    ______ ____
ROOT
ATOM     12  C   UNL     1      14.458   7.351   2.881  0.00  0.00    +0.167 C 
ATOM     13  C   UNL     1      15.021   8.080   4.117  0.00  0.00    +0.128 C 
ATOM     14  C   UNL     1      12.925   7.304   2.906  0.00  0.00    +0.149 C 
ATOM     15  C   UNL     1      12.387   6.659   4.195  0.00  0.00    +0.074 C 
ATOM     16  C   UNL     1      13.169   7.036   5.422  0.00  0.00    +0.015 C 
ATOM     17  C   UNL     1      14.346   7.680   5.402  0.00  0.00    +0.006 C 
ENDROOT
BRANCH  16  18
ATOM      4  O   UNL     1      13.333   6.485   7.699  0.00  0.00    -0.271 OA
ATOM     10  N   UNL     1      11.220   6.653   6.727  0.00  0.00    -0.300 N 
ATOM     18  C   UNL     1      12.604   6.699   6.731  0.00  0.00    +0.241 C 
ATOM     33  H   UNL     1      10.720   6.845   5.863  0.00  0.00    +0.150 HD
BRANCH  10  19
ATOM     19  C   UNL     1      10.437   6.339   7.901  0.00  0.00    +0.160 C 
BRANCH  19  23
ATOM      8  O   UNL     1       9.940   4.161   8.856  0.00  0.00    -0.274 OA
ATOM     11  N   UNL     1      10.013   4.366   6.570  0.00  0.00    -0.328 N 
ATOM     23  C   UNL     1      10.123   4.850   7.855  0.00  0.00    +0.231 C 
ATOM     36  H   UNL     1       9.796   3.389   6.399  0.00  0.00    +0.145 HD
ATOM     37  H   UNL     1      10.124   4.954   5.750  0.00  0.00    +0.145 HD
ENDBRANCH  19  23
BRANCH  19  20
ATOM     20  C   UNL     1       9.147   7.159   7.966  0.00  0.00    +0.054 C 
BRANCH  20  21
ATOM     21  C   UNL     1       8.758   7.737   6.611  0.00  0.00    +0.168 C 
BRANCH  21   1
ATOM      1  S   UNL     1       9.283   9.416   6.457  0.00  0.00    -0.034 S 
ATOM      6  O   UNL     1      10.611   9.424   5.868  0.00  0.00    -0.175 OA
ATOM      7  O   UNL     1       8.201  10.177   5.856  0.00  0.00    -0.175 OA
ATOM     25  C   UNL     1       9.443   9.952   8.146  0.00  0.00    +0.194 C 
ENDBRANCH  21   1
ENDBRANCH  20  21
ENDBRANCH  19  20
ENDBRANCH  10  19
ENDBRANCH  16  18
BRANCH  13   9
ATOM      5  O   UNL     1      16.839   9.666   5.672  0.00  0.00    -0.270 OA
ATOM      9  N   UNL     1      16.441   7.875   4.254  0.00  0.00    -0.302 N 
ATOM     22  C   UNL     1      17.242   8.699   5.033  0.00  0.00    +0.245 C 
ATOM     32  H   UNL     1      16.863   7.154   3.675  0.00  0.00    +0.150 HD
BRANCH  22  24
ATOM     24  C   UNL     1      18.691   8.371   5.049  0.00  0.00    +0.037 A 
ATOM     26  C   UNL     1      19.420   8.490   6.232  0.00  0.00    +0.013 A 
ATOM     27  C   UNL     1      19.322   7.943   3.880  0.00  0.00    +0.013 A 
ATOM     28  C   UNL     1      20.779   8.181   6.247  0.00  0.00    +0.004 A 
ATOM     29  C   UNL     1      20.683   7.635   3.896  0.00  0.00    +0.004 A 
ATOM     30  C   UNL     1      21.412   7.754   5.079  0.00  0.00    -0.050 A 
ATOM     31  C   UNL     1      22.865   7.423   5.097  0.00  0.00    +0.044 C 
ENDBRANCH  22  24
ENDBRANCH  13   9
BRANCH  12   2
ATOM      2  O   UNL     1      14.959   6.013   2.844  0.00  0.00    -0.387 OA
ATOM     34  H   UNL     1      14.862   5.690   1.932  0.00  0.00    +0.210 HD
ENDBRANCH  12   2
BRANCH  14   3
ATOM      3  O   UNL     1      12.391   8.617   2.755  0.00  0.00    -0.389 OA
ATOM     35  H   UNL     1      12.888   9.057   2.045  0.00  0.00    +0.210 HD
ENDBRANCH  14   3
TORSDOF 10
ENDMDL
MODEL 8
REMARK VINA RESULT:      -5.6     24.737     28.111
REMARK  Name = 11881998
REMARK  12 active torsions:
REMARK  status: ('A' for Active; 'I' for Inactive)
REMARK    1  A    between atoms: S_1  and  C_21
REMARK    2  A    between atoms: S_1  and  C_25
REMARK    3  A    between atoms: O_2  and  C_12
REMARK    4  A    between atoms: O_3  and  C_14
REMARK    5  A    between atoms: N_9  and  C_13
REMARK    6  A    between atoms: N_10  and  C_19
REMARK    7  A    between atoms: C_16  and  C_18
REMARK    8  A    between atoms: C_19  and  C_20
REMARK    9  A    between atoms: C_19  and  C_23
REMARK   10  A    between atoms: C_20  and  C_21
REMARK   11  A    between atoms: C_22  and  C_24
REMARK   12  A    between atoms: C_30  and  C_31
REMARK                            x       y       z     vdW  Elec       q    Type
REMARK                         _______ _______ _______ _____ _____    ______ ____
ROOT
ATOM     12  C   UNL     1      -3.242 -12.346  11.804  0.00  0.00    +0.167 C 
ATOM     13  C   UNL     1      -4.552 -11.906  12.486  0.00  0.00    +0.128 C 
ATOM     14  C   UNL     1      -2.370 -13.181  12.751  0.00  0.00    +0.149 C 
ATOM     15  C   UNL     1      -2.063 -12.437  14.062  0.00  0.00    +0.074 C 
ATOM     16  C   UNL     1      -3.227 -11.643  14.583  0.00  0.00    +0.015 C 
ATOM     17  C   UNL     1      -4.352 -11.404  13.891  0.00  0.00    +0.006 C 
ENDROOT
BRANCH  16  18
ATOM      4  O   UNL     1      -2.231 -10.350  16.273  0.00  0.00    -0.271 OA
ATOM     10  N   UNL     1      -4.169 -11.550  16.762  0.00  0.00    -0.300 N 
ATOM     18  C   UNL     1      -3.143 -11.108  15.944  0.00  0.00    +0.241 C 
ATOM     33  H   UNL     1      -4.870 -12.181  16.383  0.00  0.00    +0.150 HD
BRANCH  10  19
ATOM     19  C   UNL     1      -4.298 -11.160  18.148  0.00  0.00    +0.160 C 
BRANCH  19  23
ATOM      8  O   UNL     1      -3.274 -12.257  20.059  0.00  0.00    -0.274 OA
ATOM     11  N   UNL     1      -4.322 -13.555  18.480  0.00  0.00    -0.328 N 
ATOM     23  C   UNL     1      -3.887 -12.354  18.999  0.00  0.00    +0.231 C 
ATOM     36  H   UNL     1      -4.123 -14.429  18.957  0.00  0.00    +0.145 HD
ATOM     37  H   UNL     1      -4.866 -13.619  17.626  0.00  0.00    +0.145 HD
ENDBRANCH  19  23
BRANCH  19  20
ATOM     20  C   UNL     1      -5.722 -10.720  18.491  0.00  0.00    +0.054 C 
BRANCH  20  21
ATOM     21  C   UNL     1      -6.685 -10.913  17.326  0.00  0.00    +0.168 C 
BRANCH  21   1
ATOM      1  S   UNL     1      -7.397 -12.528  17.344  0.00  0.00    -0.034 S 
ATOM      6  O   UNL     1      -6.707 -13.339  16.355  0.00  0.00    -0.175 OA
ATOM      7  O   UNL     1      -7.494 -12.968  18.725  0.00  0.00    -0.175 OA
ATOM     25  C   UNL     1      -9.052 -12.254  16.751  0.00  0.00    +0.194 C 
ENDBRANCH  21   1
ENDBRANCH  20  21
ENDBRANCH  19  20
ENDBRANCH  10  19
ENDBRANCH  16  18
BRANCH  13   9
ATOM      5  O   UNL     1      -7.142 -12.128  11.268  0.00  0.00    -0.270 OA
ATOM      9  N   UNL     1      -5.234 -10.891  11.722  0.00  0.00    -0.302 N 
ATOM     22  C   UNL     1      -6.491 -11.091  11.169  0.00  0.00    +0.245 C 
ATOM     32  H   UNL     1      -4.715 -10.042  11.515  0.00  0.00    +0.150 HD
BRANCH  22  24
ATOM     24  C   UNL     1      -7.046  -9.956  10.388  0.00  0.00    +0.037 A 
ATOM     26  C   UNL     1      -6.193  -9.129   9.657  0.00  0.00    +0.013 A 
ATOM     27  C   UNL     1      -8.421  -9.718  10.384  0.00  0.00    +0.013 A 
ATOM     28  C   UNL     1      -6.714  -8.065   8.922  0.00  0.00    +0.004 A 
ATOM     29  C   UNL     1      -8.942  -8.652   9.650  0.00  0.00    +0.004 A 
ATOM     30  C   UNL     1      -8.089  -7.826   8.919  0.00  0.00    -0.050 A 
ATOM     31  C   UNL     1      -8.645  -6.688   8.133  0.00  0.00    +0.044 C 
ENDBRANCH  22  24
ENDBRANCH  13   9
BRANCH  12   2
ATOM      2  O   UNL     1      -2.504 -11.194  11.394  0.00  0.00    -0.387 OA
ATOM     34  H   UNL     1      -2.108 -11.394  10.528  0.00  0.00    +0.210 HD
ENDBRANCH  12   2
BRANCH  14   3
ATOM      3  O   UNL     1      -3.003 -14.428  13.031  0.00  0.00    -0.389 OA
ATOM     35  H   UNL     1      -3.854 -14.438  12.561  0.00  0.00    +0.210 HD
ENDBRANCH  14   3
TORSDOF 10
ENDMDL
MODEL 9
REMARK VINA RESULT:      -5.5     26.956     29.104
REMARK  Name = 11881998
REMARK  12 active torsions:
REMARK  status: ('A' for Active; 'I' for Inactive)
REMARK    1  A    between atoms: S_1  and  C_21
REMARK    2  A    between atoms: S_1  and  C_25
REMARK    3  A    between atoms: O_2  and  C_12
REMARK    4  A    between atoms: O_3  and  C_14
REMARK    5  A    between atoms: N_9  and  C_13
REMARK    6  A    between atoms: N_10  and  C_19
REMARK    7  A    between atoms: C_16  and  C_18
REMARK    8  A    between atoms: C_19  and  C_20
REMARK    9  A    between atoms: C_19  and  C_23
REMARK   10  A    between atoms: C_20  and  C_21
REMARK   11  A    between atoms: C_22  and  C_24
REMARK   12  A    between atoms: C_30  and  C_31
REMARK                            x       y       z     vdW  Elec       q    Type
REMARK                         _______ _______ _______ _____ _____    ______ ____
ROOT
ATOM     12  C   UNL     1     -10.847  -6.601  16.082  0.00  0.00    +0.167 C 
ATOM     13  C   UNL     1     -10.749  -8.032  15.519  0.00  0.00    +0.128 C 
ATOM     14  C   UNL     1     -12.174  -5.934  15.696  0.00  0.00    +0.149 C 
ATOM     15  C   UNL     1     -12.396  -5.923  14.174  0.00  0.00    +0.074 C 
ATOM     16  C   UNL     1     -11.938  -7.184  13.496  0.00  0.00    +0.015 C 
ATOM     17  C   UNL     1     -11.207  -8.141  14.089  0.00  0.00    +0.006 C 
ENDROOT
BRANCH  16  18
ATOM      4  O   UNL     1     -12.406  -8.534  11.632  0.00  0.00    -0.271 OA
ATOM     10  N   UNL     1     -12.583  -6.218  11.423  0.00  0.00    -0.300 N 
ATOM     18  C   UNL     1     -12.329  -7.399  12.101  0.00  0.00    +0.241 C 
ATOM     33  H   UNL     1     -12.484  -5.333  11.913  0.00  0.00    +0.150 HD
BRANCH  10  19
ATOM     19  C   UNL     1     -12.982  -6.175  10.034  0.00  0.00    +0.160 C 
BRANCH  19  23
ATOM      8  O   UNL     1     -10.916  -5.331   9.075  0.00  0.00    -0.274 OA
ATOM     11  N   UNL     1     -11.536  -7.494   8.614  0.00  0.00    -0.328 N 
ATOM     23  C   UNL     1     -11.717  -6.255   9.192  0.00  0.00    +0.231 C 
ATOM     36  H   UNL     1     -10.725  -7.683   8.034  0.00  0.00    +0.145 HD
ATOM     37  H   UNL     1     -12.182  -8.264   8.753  0.00  0.00    +0.145 HD
ENDBRANCH  19  23
BRANCH  19  20
ATOM     20  C   UNL     1     -13.769  -4.906   9.703  0.00  0.00    +0.054 C 
BRANCH  20  21
ATOM     21  C   UNL     1     -13.566  -3.810  10.741  0.00  0.00    +0.168 C 
BRANCH  21   1
ATOM      1  S   UNL     1     -15.054  -3.491  11.635  0.00  0.00    -0.034 S 
ATOM      6  O   UNL     1     -15.909  -4.660  11.525  0.00  0.00    -0.175 OA
ATOM      7  O   UNL     1     -14.697  -2.954  12.937  0.00  0.00    -0.175 OA
ATOM     25  C   UNL     1     -15.818  -2.180  10.706  0.00  0.00    +0.194 C 
ENDBRANCH  21   1
ENDBRANCH  20  21
ENDBRANCH  19  20
ENDBRANCH  10  19
ENDBRANCH  16  18
BRANCH  13   9
ATOM      5  O   UNL     1      -9.574  -9.308  17.806  0.00  0.00    -0.270 OA
ATOM      9  N   UNL     1      -9.409  -8.553  15.620  0.00  0.00    -0.302 N 
ATOM     22  C   UNL     1      -8.928  -9.157  16.773  0.00  0.00    +0.245 C 
ATOM     32  H   UNL     1      -8.784  -8.375  14.839  0.00  0.00    +0.150 HD
BRANCH  22  24
ATOM     24  C   UNL     1      -7.516  -9.617  16.726  0.00  0.00    +0.037 A 
ATOM     26  C   UNL     1      -6.833  -9.649  15.511  0.00  0.00    +0.013 A 
ATOM     27  C   UNL     1      -6.874 -10.018  17.898  0.00  0.00    +0.013 A 
ATOM     28  C   UNL     1      -5.508 -10.080  15.466  0.00  0.00    +0.004 A 
ATOM     29  C   UNL     1      -5.548 -10.451  17.853  0.00  0.00    +0.004 A 
ATOM     30  C   UNL     1      -4.865 -10.482  16.638  0.00  0.00    -0.050 A 
ATOM     31  C   UNL     1      -3.448 -10.942  16.590  0.00  0.00    +0.044 C 
ENDBRANCH  22  24
ENDBRANCH  13   9
BRANCH  12   2
ATOM      2  O   UNL     1      -9.770  -5.810  15.573  0.00  0.00    -0.387 OA
ATOM     34  H   UNL     1      -9.080  -6.421  15.263  0.00  0.00    +0.210 HD
ENDBRANCH  12   2
BRANCH  14   3
ATOM      3  O   UNL     1     -13.261  -6.592  16.345  0.00  0.00    -0.389 OA
ATOM     35  H   UNL     1     -13.021  -6.702  17.281  0.00  0.00    +0.210 HD
ENDBRANCH  14   3
TORSDOF 10
ENDMDL
MODEL 10
REMARK VINA RESULT:      -5.4     23.941     26.454
REMARK  Name = 11881998
REMARK  12 active torsions:
REMARK  status: ('A' for Active; 'I' for Inactive)
REMARK    1  A    between atoms: S_1  and  C_21
REMARK    2  A    between atoms: S_1  and  C_25
REMARK    3  A    between atoms: O_2  and  C_12
REMARK    4  A    between atoms: O_3  and  C_14
REMARK    5  A    between atoms: N_9  and  C_13
REMARK    6  A    between atoms: N_10  and  C_19
REMARK    7  A    between atoms: C_16  and  C_18
REMARK    8  A    between atoms: C_19  and  C_20
REMARK    9  A    between atoms: C_19  and  C_23
REMARK   10  A    between atoms: C_20  and  C_21
REMARK   11  A    between atoms: C_22  and  C_24
REMARK   12  A    between atoms: C_30  and  C_31
REMARK                            x       y       z     vdW  Elec       q    Type
REMARK                         _______ _______ _______ _____ _____    ______ ____
ROOT
ATOM     12  C   UNL     1      -5.269  -9.226   8.971  0.00  0.00    +0.167 C 
ATOM     13  C   UNL     1      -6.658  -9.635   9.499  0.00  0.00    +0.128 C 
ATOM     14  C   UNL     1      -4.235 -10.338   9.188  0.00  0.00    +0.149 C 
ATOM     15  C   UNL     1      -4.140 -10.759  10.665  0.00  0.00    +0.074 C 
ATOM     16  C   UNL     1      -5.470 -10.793  11.362  0.00  0.00    +0.015 C 
ATOM     17  C   UNL     1      -6.608 -10.301  10.848  0.00  0.00    +0.006 C 
ENDROOT
BRANCH  16  18
ATOM      4  O   UNL     1      -5.527 -12.648  12.802  0.00  0.00    -0.271 OA
ATOM     10  N   UNL     1      -5.627 -10.505  13.715  0.00  0.00    -0.300 N 
ATOM     18  C   UNL     1      -5.542 -11.423  12.683  0.00  0.00    +0.241 C 
ATOM     33  H   UNL     1      -5.635  -9.512  13.498  0.00  0.00    +0.150 HD
BRANCH  10  19
ATOM     19  C   UNL     1      -5.711 -10.887  15.107  0.00  0.00    +0.160 C 
BRANCH  19  23
ATOM      8  O   UNL     1      -7.827  -9.699  14.986  0.00  0.00    -0.274 OA
ATOM     11  N   UNL     1      -7.140 -10.514  17.021  0.00  0.00    -0.328 N 
ATOM     23  C   UNL     1      -6.991 -10.286  15.670  0.00  0.00    +0.231 C 
ATOM     36  H   UNL     1      -7.957 -10.173  17.519  0.00  0.00    +0.145 HD
ATOM     37  H   UNL     1      -6.464 -11.038  17.568  0.00  0.00    +0.145 HD
ENDBRANCH  19  23
BRANCH  19  20
ATOM     20  C   UNL     1      -4.497 -10.411  15.907  0.00  0.00    +0.054 C 
BRANCH  20  21
ATOM     21  C   UNL     1      -3.426 -11.487  16.032  0.00  0.00    +0.168 C 
BRANCH  21   1
ATOM      1  S   UNL     1      -2.097 -11.202  14.907  0.00  0.00    -0.034 S 
ATOM      6  O   UNL     1      -2.548 -10.253  13.902  0.00  0.00    -0.175 OA
ATOM      7  O   UNL     1      -0.893 -10.945  15.679  0.00  0.00    -0.175 OA
ATOM     25  C   UNL     1      -1.893 -12.776  14.104  0.00  0.00    +0.194 C 
ENDBRANCH  21   1
ENDBRANCH  20  21
ENDBRANCH  19  20
ENDBRANCH  10  19
ENDBRANCH  16  18
BRANCH  13   9
ATOM      5  O   UNL     1      -8.683  -8.933   7.590  0.00  0.00    -0.270 OA
ATOM      9  N   UNL     1      -7.553  -8.506   9.569  0.00  0.00    -0.302 N 
ATOM     22  C   UNL     1      -8.505  -8.248   8.593  0.00  0.00    +0.245 C 
ATOM     32  H   UNL     1      -7.398  -7.840  10.320  0.00  0.00    +0.150 HD
BRANCH  22  24
ATOM     24  C   UNL     1      -9.332  -7.031   8.798  0.00  0.00    +0.037 A 
ATOM     26  C   UNL     1      -8.833  -5.780   8.440  0.00  0.00    +0.013 A 
ATOM     27  C   UNL     1     -10.610  -7.141   9.350  0.00  0.00    +0.013 A 
ATOM     28  C   UNL     1      -9.610  -4.637   8.631  0.00  0.00    +0.004 A 
ATOM     29  C   UNL     1     -11.386  -5.998   9.542  0.00  0.00    +0.004 A 
ATOM     30  C   UNL     1     -10.887  -4.747   9.183  0.00  0.00    -0.050 A 
ATOM     31  C   UNL     1     -11.717  -3.525   9.387  0.00  0.00    +0.044 C 
ENDBRANCH  22  24
ENDBRANCH  13   9
BRANCH  12   2
ATOM      2  O   UNL     1      -4.826  -8.047   9.647  0.00  0.00    -0.387 OA
ATOM     34  H   UNL     1      -5.392  -7.929  10.428  0.00  0.00    +0.210 HD
ENDBRANCH  12   2
BRANCH  14   3
ATOM      3  O   UNL     1      -4.550 -11.468   8.376  0.00  0.00    -0.389 OA
ATOM     35  H   UNL     1      -3.811 -11.601   7.759  0.00  0.00    +0.210 HD
ENDBRANCH  14   3
TORSDOF 10
ENDMDL
