MODEL 1
REMARK VINA RESULT:      -7.1      0.000      0.000
REMARK  Name = 38028009
REMARK  11 active torsions:
REMARK  status: ('A' for Active; 'I' for Inactive)
REMARK    1  A    between atoms: N_4  and  C_15
REMARK    2  A    between atoms: N_5  and  C_25
REMARK    3  A    between atoms: C_7  and  C_11
REMARK    4  A    between atoms: C_8  and  C_15
REMARK    5  A    between atoms: C_10  and  C_14
REMARK    6  A    between atoms: C_11  and  C_16
REMARK    7  A    between atoms: C_11  and  C_17
REMARK    8  A    between atoms: C_12  and  C_18
REMARK    9  A    between atoms: C_14  and  C_19
REMARK   10  A    between atoms: C_24  and  C_26
REMARK   11  A    between atoms: C_31  and  C_32
REMARK                            x       y       z     vdW  Elec       q    Type
REMARK                         _______ _______ _______ _____ _____    ______ ____
ROOT
ATOM      7  C   UNL     1     -12.984   8.087  20.547  0.00  0.00    +0.000 C 
ATOM      8  C   UNL     1     -12.313   9.247  21.325  0.00  0.00    +0.032 C 
ATOM      9  C   UNL     1     -12.021   7.525  19.490  0.00  0.00    +0.012 C 
ATOM     10  C   UNL     1     -11.576   8.597  18.479  0.00  0.00    +0.023 C 
ATOM     12  C   UNL     1     -11.150   9.878  19.166  0.00  0.00    -0.073 C 
ATOM     13  C   UNL     1     -11.478  10.145  20.443  0.00  0.00    -0.022 C 
ATOM     18  C   UNL     1     -10.300  10.826  18.368  0.00  0.00    +0.039 C 
ENDROOT
BRANCH   7  11
ATOM     11  C   UNL     1     -13.439   6.964  21.484  0.00  0.00    -0.013 C 
ATOM     16  C   UNL     1     -14.803   6.432  21.053  0.00  0.00    +0.007 C 
ATOM     17  C   UNL     1     -12.407   5.842  21.511  0.00  0.00    +0.007 C 
ENDBRANCH   7  11
BRANCH  10  14
ATOM     14  C   UNL     1     -12.673   8.870  17.443  0.00  0.00    +0.103 C 
BRANCH  14  19
ATOM      1  O   UNL     1     -10.941   8.555  15.855  0.00  0.00    -0.276 OA
ATOM      3  N   UNL     1     -13.117   8.301  15.080  0.00  0.00    -0.299 N 
ATOM      5  N   UNL     1     -14.919   7.017  13.260  0.00  0.00    -0.302 NA
ATOM     19  C   UNL     1     -12.157   8.564  16.058  0.00  0.00    +0.216 C 
ATOM     20  C   UNL     1     -12.697   7.991  13.715  0.00  0.00    +0.123 C 
ATOM     21  C   UNL     1     -14.565   8.434  15.257  0.00  0.00    +0.123 C 
ATOM     22  C   UNL     1     -13.469   6.797  13.154  0.00  0.00    +0.103 C 
ATOM     23  C   UNL     1     -15.305   7.233  14.663  0.00  0.00    +0.103 C 
ATOM     25  C   UNL     1     -15.652   5.887  12.694  0.00  0.00    +0.105 C 
ENDBRANCH  14  19
ENDBRANCH  10  14
BRANCH   8  15
ATOM     15  C   UNL     1     -13.355  10.088  22.071  0.00  0.00    +0.112 C 
BRANCH  15   4
ATOM      2  O   UNL     1     -11.684  11.827  23.629  0.00  0.00    -0.270 OA
ATOM      4  N   UNL     1     -13.141  10.027  23.483  0.00  0.00    -0.311 N 
ATOM     24  C   UNL     1     -12.309  10.915  24.163  0.00  0.00    +0.244 C 
ATOM     33  H   UNL     1     -13.695   9.357  24.006  0.00  0.00    +0.149 HD
BRANCH  24  26
ATOM     26  C   UNL     1     -12.171  10.701  25.627  0.00  0.00    +0.037 A 
ATOM     27  C   UNL     1     -13.302  10.707  26.443  0.00  0.00    +0.014 A 
ATOM     28  C   UNL     1     -10.909  10.491  26.185  0.00  0.00    +0.014 A 
ATOM     29  C   UNL     1     -13.172  10.504  27.817  0.00  0.00    +0.019 A 
ATOM     30  C   UNL     1     -10.780  10.288  27.559  0.00  0.00    +0.019 A 
ATOM     31  C   UNL     1     -11.911  10.294  28.375  0.00  0.00    +0.052 A 
BRANCH  31  32
ATOM      6  N   UNL     1     -11.671   9.918  30.925  0.00  0.00    -0.191 NA
ATOM     32  C   UNL     1     -11.778  10.087  29.782  0.00  0.00    +0.099 C 
ENDBRANCH  31  32
ENDBRANCH  24  26
ENDBRANCH  15   4
ENDBRANCH   8  15
TORSDOF 7
ENDMDL
MODEL 2
REMARK VINA RESULT:      -7.0     20.579     22.719
REMARK  Name = 38028009
REMARK  11 active torsions:
REMARK  status: ('A' for Active; 'I' for Inactive)
REMARK    1  A    between atoms: N_4  and  C_15
REMARK    2  A    between atoms: N_5  and  C_25
REMARK    3  A    between atoms: C_7  and  C_11
REMARK    4  A    between atoms: C_8  and  C_15
REMARK    5  A    between atoms: C_10  and  C_14
REMARK    6  A    between atoms: C_11  and  C_16
REMARK    7  A    between atoms: C_11  and  C_17
REMARK    8  A    between atoms: C_12  and  C_18
REMARK    9  A    between atoms: C_14  and  C_19
REMARK   10  A    between atoms: C_24  and  C_26
REMARK   11  A    between atoms: C_31  and  C_32
REMARK                            x       y       z     vdW  Elec       q    Type
REMARK                         _______ _______ _______ _____ _____    ______ ____
ROOT
ATOM      7  C   UNL     1      -3.317 -11.975  12.476  0.00  0.00    +0.000 C 
ATOM      8  C   UNL     1      -2.162 -10.962  12.284  0.00  0.00    +0.032 C 
ATOM      9  C   UNL     1      -3.939 -12.343  11.120  0.00  0.00    +0.012 C 
ATOM     10  C   UNL     1      -4.490 -11.111  10.379  0.00  0.00    +0.023 C 
ATOM     12  C   UNL     1      -3.499  -9.964  10.379  0.00  0.00    -0.073 C 
ATOM     13  C   UNL     1      -2.458  -9.921  11.229  0.00  0.00    -0.022 C 
ATOM     18  C   UNL     1      -3.707  -8.889   9.350  0.00  0.00    +0.039 C 
ENDROOT
BRANCH   7  11
ATOM     11  C   UNL     1      -2.846 -13.245  13.192  0.00  0.00    -0.013 C 
ATOM     16  C   UNL     1      -3.877 -13.687  14.227  0.00  0.00    +0.007 C 
ATOM     17  C   UNL     1      -2.582 -14.359  12.184  0.00  0.00    +0.007 C 
ENDBRANCH   7  11
BRANCH  10  14
ATOM     14  C   UNL     1      -5.838 -10.672  10.961  0.00  0.00    +0.103 C 
BRANCH  14  19
ATOM      1  O   UNL     1      -7.245 -12.396  10.144  0.00  0.00    -0.276 OA
ATOM      3  N   UNL     1      -7.624 -10.263   9.304  0.00  0.00    -0.299 N 
ATOM      5  N   UNL     1      -9.488  -8.351   8.268  0.00  0.00    -0.302 NA
ATOM     19  C   UNL     1      -6.962 -11.196  10.102  0.00  0.00    +0.216 C 
ATOM     20  C   UNL     1      -8.728 -10.691   8.448  0.00  0.00    +0.123 C 
ATOM     21  C   UNL     1      -7.229  -8.862   9.133  0.00  0.00    +0.123 C 
ATOM     22  C   UNL     1      -9.912  -9.730   8.546  0.00  0.00    +0.103 C 
ATOM     23  C   UNL     1      -8.443  -7.933   9.213  0.00  0.00    +0.103 C 
ATOM     25  C   UNL     1     -10.630  -7.440   8.331  0.00  0.00    +0.105 C 
ENDBRANCH  14  19
ENDBRANCH  10  14
BRANCH   8  15
ATOM     15  C   UNL     1      -1.810 -10.266  13.603  0.00  0.00    +0.112 C 
BRANCH  15   4
ATOM      2  O   UNL     1      -1.616 -10.789  16.420  0.00  0.00    -0.270 OA
ATOM      4  N   UNL     1      -2.894 -10.360  14.531  0.00  0.00    -0.311 N 
ATOM     24  C   UNL     1      -2.710 -10.619  15.889  0.00  0.00    +0.244 C 
ATOM     33  H   UNL     1      -3.821 -10.139  14.183  0.00  0.00    +0.149 HD
BRANCH  24  26
ATOM     26  C   UNL     1      -3.941 -10.712  16.716  0.00  0.00    +0.037 A 
ATOM     27  C   UNL     1      -3.921 -11.421  17.917  0.00  0.00    +0.014 A 
ATOM     28  C   UNL     1      -5.115 -10.089  16.293  0.00  0.00    +0.014 A 
ATOM     29  C   UNL     1      -5.076 -11.508  18.694  0.00  0.00    +0.019 A 
ATOM     30  C   UNL     1      -6.270 -10.176  17.070  0.00  0.00    +0.019 A 
ATOM     31  C   UNL     1      -6.251 -10.885  18.271  0.00  0.00    +0.052 A 
BRANCH  31  32
ATOM      6  N   UNL     1      -8.395 -11.047  19.714  0.00  0.00    -0.191 NA
ATOM     32  C   UNL     1      -7.434 -10.974  19.067  0.00  0.00    +0.099 C 
ENDBRANCH  31  32
ENDBRANCH  24  26
ENDBRANCH  15   4
ENDBRANCH   8  15
TORSDOF 7
ENDMDL
MODEL 3
REMARK VINA RESULT:      -7.0     18.483     21.553
REMARK  Name = 38028009
REMARK  11 active torsions:
REMARK  status: ('A' for Active; 'I' for Inactive)
REMARK    1  A    between atoms: N_4  and  C_15
REMARK    2  A    between atoms: N_5  and  C_25
REMARK    3  A    between atoms: C_7  and  C_11
REMARK    4  A    between atoms: C_8  and  C_15
REMARK    5  A    between atoms: C_10  and  C_14
REMARK    6  A    between atoms: C_11  and  C_16
REMARK    7  A    between atoms: C_11  and  C_17
REMARK    8  A    between atoms: C_12  and  C_18
REMARK    9  A    between atoms: C_14  and  C_19
REMARK   10  A    between atoms: C_24  and  C_26
REMARK   11  A    between atoms: C_31  and  C_32
REMARK                            x       y       z     vdW  Elec       q    Type
REMARK                         _______ _______ _______ _____ _____    ______ ____
ROOT
ATOM      7  C   UNL     1      -7.334 -11.621  17.136  0.00  0.00    +0.000 C 
ATOM      8  C   UNL     1      -7.415 -11.991  18.638  0.00  0.00    +0.032 C 
ATOM      9  C   UNL     1      -6.132 -12.316  16.477  0.00  0.00    +0.012 C 
ATOM     10  C   UNL     1      -4.799 -11.934  17.147  0.00  0.00    +0.023 C 
ATOM     12  C   UNL     1      -4.883 -12.017  18.657  0.00  0.00    -0.073 C 
ATOM     13  C   UNL     1      -6.061 -12.056  19.305  0.00  0.00    -0.022 C 
ATOM     18  C   UNL     1      -3.582 -12.102  19.405  0.00  0.00    +0.039 C 
ENDROOT
BRANCH   7  11
ATOM     11  C   UNL     1      -8.619 -11.989  16.389  0.00  0.00    -0.013 C 
ATOM     16  C   UNL     1      -8.705 -11.228  15.069  0.00  0.00    +0.007 C 
ATOM     17  C   UNL     1      -8.684 -13.494  16.150  0.00  0.00    +0.007 C 
ENDBRANCH   7  11
BRANCH  10  14
ATOM     14  C   UNL     1      -4.334 -10.543  16.700  0.00  0.00    +0.103 C 
BRANCH  14  19
ATOM      1  O   UNL     1      -1.982 -10.745  16.476  0.00  0.00    -0.276 OA
ATOM      3  N   UNL     1      -3.210 -10.675  14.504  0.00  0.00    -0.299 N 
ATOM      5  N   UNL     1      -3.467 -11.478  11.766  0.00  0.00    -0.302 NA
ATOM     19  C   UNL     1      -3.066 -10.662  15.892  0.00  0.00    +0.216 C 
ATOM     20  C   UNL     1      -2.029 -10.792  13.651  0.00  0.00    +0.123 C 
ATOM     21  C   UNL     1      -4.464 -10.446  13.780  0.00  0.00    +0.123 C 
ATOM     22  C   UNL     1      -2.253 -11.806  12.529  0.00  0.00    +0.103 C 
ATOM     23  C   UNL     1      -4.641 -11.463  12.651  0.00  0.00    +0.103 C 
ATOM     25  C   UNL     1      -3.659 -12.431  10.674  0.00  0.00    +0.105 C 
ENDBRANCH  14  19
ENDBRANCH  10  14
BRANCH   8  15
ATOM     15  C   UNL     1      -8.315 -11.014  19.401  0.00  0.00    +0.112 C 
BRANCH  15   4
ATOM      2  O   UNL     1     -11.085 -10.283  19.194  0.00  0.00    -0.270 OA
ATOM      4  N   UNL     1      -8.879 -10.045  18.514  0.00  0.00    -0.311 N 
ATOM     24  C   UNL     1     -10.241  -9.750  18.479  0.00  0.00    +0.244 C 
ATOM     33  H   UNL     1      -8.232  -9.496  17.956  0.00  0.00    +0.149 HD
BRANCH  24  26
ATOM     26  C   UNL     1     -10.673  -8.738  17.480  0.00  0.00    +0.037 A 
ATOM     27  C   UNL     1     -12.026  -8.590  17.177  0.00  0.00    +0.014 A 
ATOM     28  C   UNL     1      -9.724  -7.933  16.849  0.00  0.00    +0.014 A 
ATOM     29  C   UNL     1     -12.431  -7.638  16.241  0.00  0.00    +0.019 A 
ATOM     30  C   UNL     1     -10.129  -6.981  15.913  0.00  0.00    +0.019 A 
ATOM     31  C   UNL     1     -11.483  -6.833  15.609  0.00  0.00    +0.052 A 
BRANCH  31  32
ATOM      6  N   UNL     1     -12.233  -5.067  13.870  0.00  0.00    -0.191 NA
ATOM     32  C   UNL     1     -11.897  -5.858  14.650  0.00  0.00    +0.099 C 
ENDBRANCH  31  32
ENDBRANCH  24  26
ENDBRANCH  15   4
ENDBRANCH   8  15
TORSDOF 7
ENDMDL
MODEL 4
REMARK VINA RESULT:      -6.7     21.275     23.332
REMARK  Name = 38028009
REMARK  11 active torsions:
REMARK  status: ('A' for Active; 'I' for Inactive)
REMARK    1  A    between atoms: N_4  and  C_15
REMARK    2  A    between atoms: N_5  and  C_25
REMARK    3  A    between atoms: C_7  and  C_11
REMARK    4  A    between atoms: C_8  and  C_15
REMARK    5  A    between atoms: C_10  and  C_14
REMARK    6  A    between atoms: C_11  and  C_16
REMARK    7  A    between atoms: C_11  and  C_17
REMARK    8  A    between atoms: C_12  and  C_18
REMARK    9  A    between atoms: C_14  and  C_19
REMARK   10  A    between atoms: C_24  and  C_26
REMARK   11  A    between atoms: C_31  and  C_32
REMARK                            x       y       z     vdW  Elec       q    Type
REMARK                         _______ _______ _______ _____ _____    ______ ____
ROOT
ATOM      7  C   UNL     1      -3.220 -12.090  12.432  0.00  0.00    +0.000 C 
ATOM      8  C   UNL     1      -2.135 -11.010  12.199  0.00  0.00    +0.032 C 
ATOM      9  C   UNL     1      -3.893 -12.470  11.104  0.00  0.00    +0.012 C 
ATOM     10  C   UNL     1      -4.551 -11.260  10.418  0.00  0.00    +0.023 C 
ATOM     12  C   UNL     1      -3.628 -10.058  10.388  0.00  0.00    -0.073 C 
ATOM     13  C   UNL     1      -2.546  -9.970  11.182  0.00  0.00    -0.022 C 
ATOM     18  C   UNL     1      -3.952  -8.979   9.393  0.00  0.00    +0.039 C 
ENDROOT
BRANCH   7  11
ATOM     11  C   UNL     1      -2.640 -13.343  13.097  0.00  0.00    -0.013 C 
ATOM     16  C   UNL     1      -3.517 -13.780  14.266  0.00  0.00    +0.007 C 
ATOM     17  C   UNL     1      -2.498 -14.469  12.078  0.00  0.00    +0.007 C 
ENDBRANCH   7  11
BRANCH  10  14
ATOM     14  C   UNL     1      -5.888 -10.908  11.080  0.00  0.00    +0.103 C 
BRANCH  14  19
ATOM      1  O   UNL     1      -6.916 -10.972   8.944  0.00  0.00    -0.276 OA
ATOM      3  N   UNL     1      -8.148 -11.834  10.715  0.00  0.00    -0.299 N 
ATOM      5  N   UNL     1     -10.103 -13.719  11.631  0.00  0.00    -0.302 NA
ATOM     19  C   UNL     1      -7.025 -11.236  10.144  0.00  0.00    +0.216 C 
ATOM     20  C   UNL     1      -9.291 -12.188   9.874  0.00  0.00    +0.123 C 
ATOM     21  C   UNL     1      -8.363 -12.039  12.150  0.00  0.00    +0.123 C 
ATOM     22  C   UNL     1      -9.805 -13.591  10.197  0.00  0.00    +0.103 C 
ATOM     23  C   UNL     1      -8.900 -13.444  12.432  0.00  0.00    +0.103 C 
ATOM     25  C   UNL     1     -10.625 -15.051  11.929  0.00  0.00    +0.105 C 
ENDBRANCH  14  19
ENDBRANCH  10  14
BRANCH   8  15
ATOM     15  C   UNL     1      -1.752 -10.317  13.511  0.00  0.00    +0.112 C 
BRANCH  15   4
ATOM      2  O   UNL     1      -1.533 -10.839  16.326  0.00  0.00    -0.270 OA
ATOM      4  N   UNL     1      -2.825 -10.385  14.452  0.00  0.00    -0.311 N 
ATOM     24  C   UNL     1      -2.629 -10.645  15.809  0.00  0.00    +0.244 C 
ATOM     33  H   UNL     1      -3.752 -10.143  14.117  0.00  0.00    +0.149 HD
BRANCH  24  26
ATOM     26  C   UNL     1      -3.851 -10.709  16.652  0.00  0.00    +0.037 A 
ATOM     27  C   UNL     1      -3.820 -11.379  17.875  0.00  0.00    +0.014 A 
ATOM     28  C   UNL     1      -5.029 -10.098  16.221  0.00  0.00    +0.014 A 
ATOM     29  C   UNL     1      -4.967 -11.438  18.667  0.00  0.00    +0.019 A 
ATOM     30  C   UNL     1      -6.176 -10.157  17.014  0.00  0.00    +0.019 A 
ATOM     31  C   UNL     1      -6.144 -10.827  18.237  0.00  0.00    +0.052 A 
BRANCH  31  32
ATOM      6  N   UNL     1      -8.273 -10.937  19.707  0.00  0.00    -0.191 NA
ATOM     32  C   UNL     1      -7.319 -10.887  19.048  0.00  0.00    +0.099 C 
ENDBRANCH  31  32
ENDBRANCH  24  26
ENDBRANCH  15   4
ENDBRANCH   8  15
TORSDOF 7
ENDMDL
MODEL 5
REMARK VINA RESULT:      -6.6     18.644     21.549
REMARK  Name = 38028009
REMARK  11 active torsions:
REMARK  status: ('A' for Active; 'I' for Inactive)
REMARK    1  A    between atoms: N_4  and  C_15
REMARK    2  A    between atoms: N_5  and  C_25
REMARK    3  A    between atoms: C_7  and  C_11
REMARK    4  A    between atoms: C_8  and  C_15
REMARK    5  A    between atoms: C_10  and  C_14
REMARK    6  A    between atoms: C_11  and  C_16
REMARK    7  A    between atoms: C_11  and  C_17
REMARK    8  A    between atoms: C_12  and  C_18
REMARK    9  A    between atoms: C_14  and  C_19
REMARK   10  A    between atoms: C_24  and  C_26
REMARK   11  A    between atoms: C_31  and  C_32
REMARK                            x       y       z     vdW  Elec       q    Type
REMARK                         _______ _______ _______ _____ _____    ______ ____
ROOT
ATOM      7  C   UNL     1      -5.455 -12.298  16.470  0.00  0.00    +0.000 C 
ATOM      8  C   UNL     1      -4.466 -11.944  17.609  0.00  0.00    +0.032 C 
ATOM      9  C   UNL     1      -4.688 -12.690  15.197  0.00  0.00    +0.012 C 
ATOM     10  C   UNL     1      -3.761 -11.563  14.706  0.00  0.00    +0.023 C 
ATOM     12  C   UNL     1      -2.940 -10.976  15.835  0.00  0.00    -0.073 C 
ATOM     13  C   UNL     1      -3.263 -11.168  17.127  0.00  0.00    -0.022 C 
ATOM     18  C   UNL     1      -1.712 -10.200  15.449  0.00  0.00    +0.039 C 
ENDROOT
BRANCH   7  11
ATOM     11  C   UNL     1      -6.404 -13.431  16.873  0.00  0.00    -0.013 C 
ATOM     16  C   UNL     1      -7.760 -13.256  16.194  0.00  0.00    +0.007 C 
ATOM     17  C   UNL     1      -5.796 -14.786  16.522  0.00  0.00    +0.007 C 
ENDBRANCH   7  11
BRANCH  10  14
ATOM     14  C   UNL     1      -4.554 -10.471  13.980  0.00  0.00    +0.103 C 
BRANCH  14  19
ATOM      1  O   UNL     1      -2.998 -10.865  12.235  0.00  0.00    -0.276 OA
ATOM      3  N   UNL     1      -4.888  -9.634  11.680  0.00  0.00    -0.299 N 
ATOM      5  N   UNL     1      -6.817  -8.897   9.693  0.00  0.00    -0.302 NA
ATOM     19  C   UNL     1      -4.069 -10.345  12.557  0.00  0.00    +0.216 C 
ATOM     20  C   UNL     1      -4.491  -9.472  10.283  0.00  0.00    +0.123 C 
ATOM     21  C   UNL     1      -6.095  -8.894  12.059  0.00  0.00    +0.123 C 
ATOM     22  C   UNL     1      -5.663  -9.735   9.338  0.00  0.00    +0.103 C 
ATOM     23  C   UNL     1      -7.238  -9.163  11.077  0.00  0.00    +0.103 C 
ATOM     25  C   UNL     1      -7.924  -9.129   8.767  0.00  0.00    +0.105 C 
ENDBRANCH  14  19
ENDBRANCH  10  14
BRANCH   8  15
ATOM     15  C   UNL     1      -5.166 -11.162  18.725  0.00  0.00    +0.112 C 
BRANCH  15   4
ATOM      2  O   UNL     1      -7.815 -11.228  19.830  0.00  0.00    -0.270 OA
ATOM      4  N   UNL     1      -6.318 -10.481  18.222  0.00  0.00    -0.311 N 
ATOM     24  C   UNL     1      -7.573 -10.568  18.824  0.00  0.00    +0.244 C 
ATOM     33  H   UNL     1      -6.177  -9.843  17.446  0.00  0.00    +0.149 HD
BRANCH  24  26
ATOM     26  C   UNL     1      -8.675  -9.823  18.162  0.00  0.00    +0.037 A 
ATOM     27  C   UNL     1      -8.387  -8.895  17.162  0.00  0.00    +0.014 A 
ATOM     28  C   UNL     1      -9.998 -10.052  18.541  0.00  0.00    +0.014 A 
ATOM     29  C   UNL     1      -9.422  -8.196  16.540  0.00  0.00    +0.019 A 
ATOM     30  C   UNL     1     -11.033  -9.353  17.919  0.00  0.00    +0.019 A 
ATOM     31  C   UNL     1     -10.745  -8.425  16.918  0.00  0.00    +0.052 A 
BRANCH  31  32
ATOM      6  N   UNL     1     -12.667  -7.129  15.766  0.00  0.00    -0.191 NA
ATOM     32  C   UNL     1     -11.805  -7.709  16.282  0.00  0.00    +0.099 C 
ENDBRANCH  31  32
ENDBRANCH  24  26
ENDBRANCH  15   4
ENDBRANCH   8  15
TORSDOF 7
ENDMDL
MODEL 6
REMARK VINA RESULT:      -6.5     26.107     29.167
REMARK  Name = 38028009
REMARK  11 active torsions:
REMARK  status: ('A' for Active; 'I' for Inactive)
REMARK    1  A    between atoms: N_4  and  C_15
REMARK    2  A    between atoms: N_5  and  C_25
REMARK    3  A    between atoms: C_7  and  C_11
REMARK    4  A    between atoms: C_8  and  C_15
REMARK    5  A    between atoms: C_10  and  C_14
REMARK    6  A    between atoms: C_11  and  C_16
REMARK    7  A    between atoms: C_11  and  C_17
REMARK    8  A    between atoms: C_12  and  C_18
REMARK    9  A    between atoms: C_14  and  C_19
REMARK   10  A    between atoms: C_24  and  C_26
REMARK   11  A    between atoms: C_31  and  C_32
REMARK                            x       y       z     vdW  Elec       q    Type
REMARK                         _______ _______ _______ _____ _____    ______ ____
ROOT
ATOM      7  C   UNL     1       8.943   8.533   4.897  0.00  0.00    +0.000 C 
ATOM      8  C   UNL     1       8.633   9.217   6.252  0.00  0.00    +0.032 C 
ATOM      9  C   UNL     1       8.432   7.084   4.899  0.00  0.00    +0.012 C 
ATOM     10  C   UNL     1       9.065   6.245   6.023  0.00  0.00    +0.023 C 
ATOM     12  C   UNL     1       9.037   6.972   7.353  0.00  0.00    -0.073 C 
ATOM     13  C   UNL     1       8.830   8.298   7.436  0.00  0.00    -0.022 C 
ATOM     18  C   UNL     1       9.209   6.133   8.588  0.00  0.00    +0.039 C 
ENDROOT
BRANCH   7  11
ATOM     11  C   UNL     1       8.328   9.298   3.721  0.00  0.00    -0.013 C 
ATOM     16  C   UNL     1       8.445   8.483   2.436  0.00  0.00    +0.007 C 
ATOM     17  C   UNL     1       6.871   9.641   4.012  0.00  0.00    +0.007 C 
ENDBRANCH   7  11
BRANCH  10  14
ATOM     14  C   UNL     1      10.492   5.819   5.661  0.00  0.00    +0.103 C 
BRANCH  14  19
ATOM      1  O   UNL     1       9.899   3.601   5.068  0.00  0.00    -0.276 OA
ATOM      3  N   UNL     1      11.054   4.829   3.469  0.00  0.00    -0.299 N 
ATOM      5  N   UNL     1      11.551   5.359   0.698  0.00  0.00    -0.302 NA
ATOM     19  C   UNL     1      10.452   4.646   4.714  0.00  0.00    +0.216 C 
ATOM     20  C   UNL     1      11.053   3.741   2.493  0.00  0.00    +0.123 C 
ATOM     21  C   UNL     1      11.831   6.005   3.069  0.00  0.00    +0.123 C 
ATOM     22  C   UNL     1      10.680   4.245   1.100  0.00  0.00    +0.103 C 
ATOM     23  C   UNL     1      11.448   6.465   1.661  0.00  0.00    +0.103 C 
ATOM     25  C   UNL     1      11.211   5.817  -0.648  0.00  0.00    +0.105 C 
ENDBRANCH  14  19
ENDBRANCH  10  14
BRANCH   8  15
ATOM     15  C   UNL     1       9.478  10.481   6.440  0.00  0.00    +0.112 C 
BRANCH  15   4
ATOM      2  O   UNL     1      11.523  10.425   8.455  0.00  0.00    -0.270 OA
ATOM      4  N   UNL     1      10.865  10.198   6.240  0.00  0.00    -0.311 N 
ATOM     24  C   UNL     1      11.795  10.192   7.280  0.00  0.00    +0.244 C 
ATOM     33  H   UNL     1      11.150   9.905   5.312  0.00  0.00    +0.149 HD
BRANCH  24  26
ATOM     26  C   UNL     1      13.204   9.906   6.905  0.00  0.00    +0.037 A 
ATOM     27  C   UNL     1      14.132  10.945   6.836  0.00  0.00    +0.014 A 
ATOM     28  C   UNL     1      13.599   8.598   6.624  0.00  0.00    +0.014 A 
ATOM     29  C   UNL     1      15.455  10.677   6.485  0.00  0.00    +0.019 A 
ATOM     30  C   UNL     1      14.922   8.330   6.273  0.00  0.00    +0.019 A 
ATOM     31  C   UNL     1      15.850   9.369   6.204  0.00  0.00    +0.052 A 
BRANCH  31  32
ATOM      6  N   UNL     1      18.305   8.869   5.550  0.00  0.00    -0.191 NA
ATOM     32  C   UNL     1      17.205   9.093   5.843  0.00  0.00    +0.099 C 
ENDBRANCH  31  32
ENDBRANCH  24  26
ENDBRANCH  15   4
ENDBRANCH   8  15
TORSDOF 7
ENDMDL
MODEL 7
REMARK VINA RESULT:      -6.5     21.750     26.746
REMARK  Name = 38028009
REMARK  11 active torsions:
REMARK  status: ('A' for Active; 'I' for Inactive)
REMARK    1  A    between atoms: N_4  and  C_15
REMARK    2  A    between atoms: N_5  and  C_25
REMARK    3  A    between atoms: C_7  and  C_11
REMARK    4  A    between atoms: C_8  and  C_15
REMARK    5  A    between atoms: C_10  and  C_14
REMARK    6  A    between atoms: C_11  and  C_16
REMARK    7  A    between atoms: C_11  and  C_17
REMARK    8  A    between atoms: C_12  and  C_18
REMARK    9  A    between atoms: C_14  and  C_19
REMARK   10  A    between atoms: C_24  and  C_26
REMARK   11  A    between atoms: C_31  and  C_32
REMARK                            x       y       z     vdW  Elec       q    Type
REMARK                         _______ _______ _______ _____ _____    ______ ____
ROOT
ATOM      7  C   UNL     1      -4.446 -10.855  11.328  0.00  0.00    +0.000 C 
ATOM      8  C   UNL     1      -3.702 -11.987  10.577  0.00  0.00    +0.032 C 
ATOM      9  C   UNL     1      -3.556 -10.272  12.437  0.00  0.00    +0.012 C 
ATOM     10  C   UNL     1      -3.129 -11.338  13.462  0.00  0.00    +0.023 C 
ATOM     12  C   UNL     1      -2.630 -12.600  12.788  0.00  0.00    -0.073 C 
ATOM     13  C   UNL     1      -2.884 -12.867  11.495  0.00  0.00    -0.022 C 
ATOM     18  C   UNL     1      -1.792 -13.528  13.622  0.00  0.00    +0.039 C 
ENDROOT
BRANCH   7  11
ATOM     11  C   UNL     1      -4.889  -9.738  10.378  0.00  0.00    -0.013 C 
ATOM     16  C   UNL     1      -5.572  -8.617  11.156  0.00  0.00    +0.007 C 
ATOM     17  C   UNL     1      -3.696  -9.202   9.593  0.00  0.00    +0.007 C 
ENDBRANCH   7  11
BRANCH  10  14
ATOM     14  C   UNL     1      -4.267 -11.653  14.440  0.00  0.00    +0.103 C 
BRANCH  14  19
ATOM      1  O   UNL     1      -2.894 -10.553  16.029  0.00  0.00    -0.276 OA
ATOM      3  N   UNL     1      -4.558 -11.935  16.876  0.00  0.00    -0.299 N 
ATOM      5  N   UNL     1      -6.419 -12.496  18.981  0.00  0.00    -0.302 NA
ATOM     19  C   UNL     1      -3.838 -11.327  15.848  0.00  0.00    +0.216 C 
ATOM     20  C   UNL     1      -4.207 -11.666  18.269  0.00  0.00    +0.123 C 
ATOM     21  C   UNL     1      -5.593 -12.957  16.696  0.00  0.00    +0.123 C 
ATOM     22  C   UNL     1      -5.452 -11.397  19.114  0.00  0.00    +0.103 C 
ATOM     23  C   UNL     1      -6.812 -12.668  17.575  0.00  0.00    +0.103 C 
ATOM     25  C   UNL     1      -7.594 -12.249  19.816  0.00  0.00    +0.105 C 
ENDBRANCH  14  19
ENDBRANCH  10  14
BRANCH   8  15
ATOM     15  C   UNL     1      -4.679 -12.854   9.775  0.00  0.00    +0.112 C 
BRANCH  15   4
ATOM      2  O   UNL     1      -5.942 -11.479   7.593  0.00  0.00    -0.270 OA
ATOM      4  N   UNL     1      -4.297 -12.906   8.398  0.00  0.00    -0.311 N 
ATOM     24  C   UNL     1      -4.970 -12.203   7.398  0.00  0.00    +0.244 C 
ATOM     33  H   UNL     1      -3.446 -13.409   8.172  0.00  0.00    +0.149 HD
BRANCH  24  26
ATOM     26  C   UNL     1      -4.466 -12.384   6.012  0.00  0.00    +0.037 A 
ATOM     27  C   UNL     1      -5.289 -12.083   4.927  0.00  0.00    +0.014 A 
ATOM     28  C   UNL     1      -3.170 -12.851   5.796  0.00  0.00    +0.014 A 
ATOM     29  C   UNL     1      -4.816 -12.252   3.625  0.00  0.00    +0.019 A 
ATOM     30  C   UNL     1      -2.697 -13.019   4.494  0.00  0.00    +0.019 A 
ATOM     31  C   UNL     1      -3.519 -12.719   3.409  0.00  0.00    +0.052 A 
BRANCH  31  32
ATOM      6  N   UNL     1      -2.640 -13.031   0.994  0.00  0.00    -0.191 NA
ATOM     32  C   UNL     1      -3.034 -12.892   2.076  0.00  0.00    +0.099 C 
ENDBRANCH  31  32
ENDBRANCH  24  26
ENDBRANCH  15   4
ENDBRANCH   8  15
TORSDOF 7
ENDMDL
MODEL 8
REMARK VINA RESULT:      -6.4     27.678     31.234
REMARK  Name = 38028009
REMARK  11 active torsions:
REMARK  status: ('A' for Active; 'I' for Inactive)
REMARK    1  A    between atoms: N_4  and  C_15
REMARK    2  A    between atoms: N_5  and  C_25
REMARK    3  A    between atoms: C_7  and  C_11
REMARK    4  A    between atoms: C_8  and  C_15
REMARK    5  A    between atoms: C_10  and  C_14
REMARK    6  A    between atoms: C_11  and  C_16
REMARK    7  A    between atoms: C_11  and  C_17
REMARK    8  A    between atoms: C_12  and  C_18
REMARK    9  A    between atoms: C_14  and  C_19
REMARK   10  A    between atoms: C_24  and  C_26
REMARK   11  A    between atoms: C_31  and  C_32
REMARK                            x       y       z     vdW  Elec       q    Type
REMARK                         _______ _______ _______ _____ _____    ______ ____
ROOT
ATOM      7  C   UNL     1      11.075   7.043   0.269  0.00  0.00    +0.000 C 
ATOM      8  C   UNL     1       9.909   6.479   1.118  0.00  0.00    +0.032 C 
ATOM      9  C   UNL     1      11.817   5.903  -0.446  0.00  0.00    +0.012 C 
ATOM     10  C   UNL     1      12.389   4.870   0.541  0.00  0.00    +0.023 C 
ATOM     12  C   UNL     1      11.367   4.462   1.584  0.00  0.00    -0.073 C 
ATOM     13  C   UNL     1      10.259   5.186   1.818  0.00  0.00    -0.022 C 
ATOM     18  C   UNL     1      11.627   3.177   2.320  0.00  0.00    +0.039 C 
ENDROOT
BRANCH   7  11
ATOM     11  C   UNL     1      10.585   8.068  -0.759  0.00  0.00    -0.013 C 
ATOM     16  C   UNL     1      11.726   8.479  -1.686  0.00  0.00    +0.007 C 
ATOM     17  C   UNL     1       9.416   7.504  -1.559  0.00  0.00    +0.007 C 
ENDBRANCH   7  11
BRANCH  10  14
ATOM     14  C   UNL     1      13.671   5.388   1.204  0.00  0.00    +0.103 C 
BRANCH  14  19
ATOM      1  O   UNL     1      15.148   3.538   1.077  0.00  0.00    -0.276 OA
ATOM      3  N   UNL     1      15.589   5.317  -0.351  0.00  0.00    -0.299 N 
ATOM      5  N   UNL     1      16.625   6.222  -2.864  0.00  0.00    -0.302 NA
ATOM     19  C   UNL     1      14.867   4.659   0.645  0.00  0.00    +0.216 C 
ATOM     20  C   UNL     1      16.759   4.674  -0.947  0.00  0.00    +0.123 C 
ATOM     21  C   UNL     1      15.362   6.696  -0.791  0.00  0.00    +0.123 C 
ATOM     22  C   UNL     1      16.753   4.812  -2.469  0.00  0.00    +0.103 C 
ATOM     23  C   UNL     1      15.387   6.798  -2.318  0.00  0.00    +0.103 C 
ATOM     25  C   UNL     1      16.652   6.351  -4.320  0.00  0.00    +0.105 C 
ENDBRANCH  14  19
ENDBRANCH  10  14
BRANCH   8  15
ATOM     15  C   UNL     1       9.429   7.505   2.150  0.00  0.00    +0.112 C 
BRANCH  15   4
ATOM      2  O   UNL     1       7.713   8.071   4.381  0.00  0.00    -0.270 OA
ATOM      4  N   UNL     1       9.555   6.988   3.477  0.00  0.00    -0.311 N 
ATOM     24  C   UNL     1       8.673   7.316   4.506  0.00  0.00    +0.244 C 
ATOM     33  H   UNL     1      10.270   6.285   3.634  0.00  0.00    +0.149 HD
BRANCH  24  26
ATOM     26  C   UNL     1       8.956   6.716   5.835  0.00  0.00    +0.037 A 
ATOM     27  C   UNL     1       8.616   7.406   6.999  0.00  0.00    +0.014 A 
ATOM     28  C   UNL     1       9.560   5.461   5.920  0.00  0.00    +0.014 A 
ATOM     29  C   UNL     1       8.881   6.842   8.247  0.00  0.00    +0.019 A 
ATOM     30  C   UNL     1       9.825   4.897   7.168  0.00  0.00    +0.019 A 
ATOM     31  C   UNL     1       9.485   5.587   8.331  0.00  0.00    +0.052 A 
BRANCH  31  32
ATOM      6  N   UNL     1       9.976   4.539  10.647  0.00  0.00    -0.191 NA
ATOM     32  C   UNL     1       9.757   5.009   9.609  0.00  0.00    +0.099 C 
ENDBRANCH  31  32
ENDBRANCH  24  26
ENDBRANCH  15   4
ENDBRANCH   8  15
TORSDOF 7
ENDMDL
MODEL 9
REMARK VINA RESULT:      -6.4     24.878     28.725
REMARK  Name = 38028009
REMARK  11 active torsions:
REMARK  status: ('A' for Active; 'I' for Inactive)
REMARK    1  A    between atoms: N_4  and  C_15
REMARK    2  A    between atoms: N_5  and  C_25
REMARK    3  A    between atoms: C_7  and  C_11
REMARK    4  A    between atoms: C_8  and  C_15
REMARK    5  A    between atoms: C_10  and  C_14
REMARK    6  A    between atoms: C_11  and  C_16
REMARK    7  A    between atoms: C_11  and  C_17
REMARK    8  A    between atoms: C_12  and  C_18
REMARK    9  A    between atoms: C_14  and  C_19
REMARK   10  A    between atoms: C_24  and  C_26
REMARK   11  A    between atoms: C_31  and  C_32
REMARK                            x       y       z     vdW  Elec       q    Type
REMARK                         _______ _______ _______ _____ _____    ______ ____
ROOT
ATOM      7  C   UNL     1       9.653   6.681   6.623  0.00  0.00    +0.000 C 
ATOM      8  C   UNL     1       9.133   5.976   5.345  0.00  0.00    +0.032 C 
ATOM      9  C   UNL     1       8.637   7.726   7.110  0.00  0.00    +0.012 C 
ATOM     10  C   UNL     1       8.349   8.799   6.045  0.00  0.00    +0.023 C 
ATOM     12  C   UNL     1       8.088   8.186   4.683  0.00  0.00    -0.073 C 
ATOM     13  C   UNL     1       8.433   6.919   4.393  0.00  0.00    -0.022 C 
ATOM     18  C   UNL     1       7.380   9.049   3.676  0.00  0.00    +0.039 C 
ENDROOT
BRANCH   7  11
ATOM     11  C   UNL     1       9.945   5.679   7.745  0.00  0.00    -0.013 C 
ATOM     16  C   UNL     1      11.356   5.886   8.288  0.00  0.00    +0.007 C 
ATOM     17  C   UNL     1       8.913   5.812   8.860  0.00  0.00    +0.007 C 
ENDBRANCH   7  11
BRANCH  10  14
ATOM     14  C   UNL     1       9.484   9.827   5.974  0.00  0.00    +0.103 C 
BRANCH  14  19
ATOM      1  O   UNL     1       8.322  11.811   5.393  0.00  0.00    -0.276 OA
ATOM      3  N   UNL     1       9.193  11.712   7.544  0.00  0.00    -0.299 N 
ATOM      5  N   UNL     1       8.976  12.479  10.296  0.00  0.00    -0.302 NA
ATOM     19  C   UNL     1       8.946  11.205   6.268  0.00  0.00    +0.216 C 
ATOM     20  C   UNL     1       8.700  13.039   7.909  0.00  0.00    +0.123 C 
ATOM     21  C   UNL     1      10.041  11.077   8.558  0.00  0.00    +0.123 C 
ATOM     22  C   UNL     1       8.053  13.030   9.293  0.00  0.00    +0.103 C 
ATOM     23  C   UNL     1       9.371  11.109   9.934  0.00  0.00    +0.103 C 
ATOM     25  C   UNL     1       8.365  12.502  11.624  0.00  0.00    +0.105 C 
ENDBRANCH  14  19
ENDBRANCH  10  14
BRANCH   8  15
ATOM     15  C   UNL     1      10.268   5.257   4.609  0.00  0.00    +0.112 C 
BRANCH  15   4
ATOM      2  O   UNL     1      11.707   7.173   3.027  0.00  0.00    -0.270 OA
ATOM      4  N   UNL     1      11.531   5.847   4.924  0.00  0.00    -0.311 N 
ATOM     24  C   UNL     1      12.163   6.774   4.095  0.00  0.00    +0.244 C 
ATOM     33  H   UNL     1      11.926   5.637   5.835  0.00  0.00    +0.149 HD
BRANCH  24  26
ATOM     26  C   UNL     1      13.486   7.274   4.552  0.00  0.00    +0.037 A 
ATOM     27  C   UNL     1      13.654   7.699   5.869  0.00  0.00    +0.014 A 
ATOM     28  C   UNL     1      14.560   7.315   3.663  0.00  0.00    +0.014 A 
ATOM     29  C   UNL     1      14.896   8.167   6.298  0.00  0.00    +0.019 A 
ATOM     30  C   UNL     1      15.802   7.783   4.092  0.00  0.00    +0.019 A 
ATOM     31  C   UNL     1      15.971   8.208   5.410  0.00  0.00    +0.052 A 
BRANCH  31  32
ATOM      6  N   UNL     1      18.276   9.078   6.205  0.00  0.00    -0.191 NA
ATOM     32  C   UNL     1      17.243   8.688   5.848  0.00  0.00    +0.099 C 
ENDBRANCH  31  32
ENDBRANCH  24  26
ENDBRANCH  15   4
ENDBRANCH   8  15
TORSDOF 7
ENDMDL
MODEL 10
REMARK VINA RESULT:      -6.3     32.415     34.685
REMARK  Name = 38028009
REMARK  11 active torsions:
REMARK  status: ('A' for Active; 'I' for Inactive)
REMARK    1  A    between atoms: N_4  and  C_15
REMARK    2  A    between atoms: N_5  and  C_25
REMARK    3  A    between atoms: C_7  and  C_11
REMARK    4  A    between atoms: C_8  and  C_15
REMARK    5  A    between atoms: C_10  and  C_14
REMARK    6  A    between atoms: C_11  and  C_16
REMARK    7  A    between atoms: C_11  and  C_17
REMARK    8  A    between atoms: C_12  and  C_18
REMARK    9  A    between atoms: C_14  and  C_19
REMARK   10  A    between atoms: C_24  and  C_26
REMARK   11  A    between atoms: C_31  and  C_32
REMARK                            x       y       z     vdW  Elec       q    Type
REMARK                         _______ _______ _______ _____ _____    ______ ____
ROOT
ATOM      7  C   UNL     1      17.913  -3.076  23.725  0.00  0.00    +0.000 C 
ATOM      8  C   UNL     1      18.727  -4.215  23.063  0.00  0.00    +0.032 C 
ATOM      9  C   UNL     1      18.856  -2.002  24.289  0.00  0.00    +0.012 C 
ATOM     10  C   UNL     1      19.831  -2.575  25.334  0.00  0.00    +0.023 C 
ATOM     12  C   UNL     1      20.479  -3.859  24.856  0.00  0.00    -0.073 C 
ATOM     13  C   UNL     1      19.978  -4.571  23.832  0.00  0.00    -0.022 C 
ATOM     18  C   UNL     1      21.741  -4.282  25.555  0.00  0.00    +0.039 C 
ENDROOT
BRANCH   7  11
ATOM     11  C   UNL     1      16.928  -2.435  22.741  0.00  0.00    -0.013 C 
ATOM     16  C   UNL     1      15.493  -2.797  23.114  0.00  0.00    +0.007 C 
ATOM     17  C   UNL     1      17.113  -0.922  22.711  0.00  0.00    +0.007 C 
ENDBRANCH   7  11
BRANCH  10  14
ATOM     14  C   UNL     1      19.137  -2.780  26.685  0.00  0.00    +0.103 C 
BRANCH  14  19
ATOM      1  O   UNL     1      20.911  -1.418  27.473  0.00  0.00    -0.276 OA
ATOM      3  N   UNL     1      19.315  -2.051  29.038  0.00  0.00    -0.299 N 
ATOM      5  N   UNL     1      17.868  -1.422  31.430  0.00  0.00    -0.302 NA
ATOM     19  C   UNL     1      19.874  -2.021  27.761  0.00  0.00    +0.216 C 
ATOM     20  C   UNL     1      19.966  -1.335  30.134  0.00  0.00    +0.123 C 
ATOM     21  C   UNL     1      18.163  -2.862  29.441  0.00  0.00    +0.123 C 
ATOM     22  C   UNL     1      18.952  -0.546  30.963  0.00  0.00    +0.103 C 
ATOM     23  C   UNL     1      17.183  -2.047  30.288  0.00  0.00    +0.103 C 
ATOM     25  C   UNL     1      16.918  -0.670  32.248  0.00  0.00    +0.105 C 
ENDBRANCH  14  19
ENDBRANCH  10  14
BRANCH   8  15
ATOM     15  C   UNL     1      17.868  -5.471  22.875  0.00  0.00    +0.112 C 
BRANCH  15   4
ATOM      2  O   UNL     1      18.519  -7.747  24.500  0.00  0.00    -0.270 OA
ATOM      4  N   UNL     1      17.244  -5.848  24.104  0.00  0.00    -0.311 N 
ATOM     24  C   UNL     1      17.624  -6.975  24.833  0.00  0.00    +0.244 C 
ATOM     33  H   UNL     1      16.559  -5.207  24.492  0.00  0.00    +0.149 HD
BRANCH  24  26
ATOM     26  C   UNL     1      16.859  -7.245  26.078  0.00  0.00    +0.037 A 
ATOM     27  C   UNL     1      16.550  -6.199  26.947  0.00  0.00    +0.014 A 
ATOM     28  C   UNL     1      16.447  -8.544  26.375  0.00  0.00    +0.014 A 
ATOM     29  C   UNL     1      15.830  -6.453  28.115  0.00  0.00    +0.019 A 
ATOM     30  C   UNL     1      15.726  -8.798  27.543  0.00  0.00    +0.019 A 
ATOM     31  C   UNL     1      15.418  -7.752  28.412  0.00  0.00    +0.052 A 
BRANCH  31  32
ATOM      6  N   UNL     1      14.083  -8.224  30.580  0.00  0.00    -0.191 NA
ATOM     32  C   UNL     1      14.681  -8.012  29.608  0.00  0.00    +0.099 C 
ENDBRANCH  31  32
ENDBRANCH  24  26
ENDBRANCH  15   4
ENDBRANCH   8  15
TORSDOF 7
ENDMDL
