MODEL 1
REMARK VINA RESULT:      -7.1      0.000      0.000
REMARK  Name = 7051432
REMARK  7 active torsions:
REMARK  status: ('A' for Active; 'I' for Inactive)
REMARK    1  A    between atoms: S_1  and  N_9
REMARK    2  A    between atoms: S_1  and  C_24
REMARK    3  A    between atoms: O_4  and  C_23
REMARK    4  A    between atoms: O_4  and  C_25
REMARK    5  A    between atoms: N_9  and  C_21
REMARK    6  A    between atoms: C_20  and  C_23
REMARK    7  A    between atoms: C_26  and  C_35
REMARK                            x       y       z     vdW  Elec       q    Type
REMARK                         _______ _______ _______ _____ _____    ______ ____
ROOT
ATOM      2  O   UNL     1      12.062   9.176  16.962  0.00  0.00    -0.266 OA
ATOM      3  O   UNL     1      10.485   9.234  22.083  0.00  0.00    -0.272 OA
ATOM      7  N   UNL     1      12.662   8.442  21.902  0.00  0.00    -0.298 N 
ATOM      8  N   UNL     1      13.413   8.646  18.802  0.00  0.00    -0.310 N 
ATOM     11  C   UNL     1      13.027   6.587  20.270  0.00  0.00    +0.027 C 
ATOM     12  C   UNL     1      14.868   8.131  20.794  0.00  0.00    +0.054 C 
ATOM     13  C   UNL     1      14.526   6.666  20.532  0.00  0.00    +0.018 C 
ATOM     14  C   UNL     1      12.239   7.104  21.487  0.00  0.00    +0.113 C 
ATOM     15  C   UNL     1      12.704   7.375  18.996  0.00  0.00    +0.130 C 
ATOM     16  C   UNL     1      14.115   8.622  22.046  0.00  0.00    +0.117 C 
ATOM     17  C   UNL     1      14.508   8.998  19.602  0.00  0.00    +0.027 A 
ATOM     18  C   UNL     1      15.217  10.110  19.336  0.00  0.00    +0.024 A 
ATOM     19  C   UNL     1      13.003   9.439  17.709  0.00  0.00    +0.274 A 
ATOM     20  C   UNL     1      11.700   9.405  22.211  0.00  0.00    +0.253 C 
ATOM     21  C   UNL     1      13.809  10.665  17.481  0.00  0.00    +0.112 A 
ATOM     22  C   UNL     1      14.859  10.973  18.243  0.00  0.00    +0.031 A 
ENDROOT
BRANCH  21   9
ATOM      9  N   UNL     1      13.488  11.537  16.426  0.00  0.00    -0.211 N 
ATOM     37  H   UNL     1      12.482  11.753  16.385  0.00  0.00    +0.174 HD
BRANCH   9   1
ATOM      1  S   UNL     1      14.213  11.231  14.927  0.00  0.00    +0.074 S 
ATOM      5  O   UNL     1      14.615   9.839  14.855  0.00  0.00    -0.150 OA
ATOM      6  O   UNL     1      13.413  11.817  13.869  0.00  0.00    -0.150 OA
BRANCH   1  24
ATOM     24  C   UNL     1      15.687  12.199  15.072  0.00  0.00    +0.126 A 
ATOM     26  C   UNL     1      15.642  13.522  15.484  0.00  0.00    +0.078 A 
ATOM     27  C   UNL     1      16.891  11.586  14.758  0.00  0.00    +0.030 A 
ATOM     30  C   UNL     1      16.828  14.251  15.583  0.00  0.00    +0.021 A 
ATOM     31  C   UNL     1      18.077  12.314  14.857  0.00  0.00    +0.002 A 
ATOM     32  C   UNL     1      18.046  13.646  15.270  0.00  0.00    +0.001 A 
BRANCH  26  35
ATOM     10  N   UNL     1      13.415  14.705  16.076  0.00  0.00    -0.191 NA
ATOM     35  C   UNL     1      14.411  14.175  15.811  0.00  0.00    +0.101 C 
ENDBRANCH  26  35
ENDBRANCH   1  24
ENDBRANCH   9   1
ENDBRANCH  21   9
BRANCH  20  23
ATOM     23  C   UNL     1      12.208  10.729  22.721  0.00  0.00    +0.324 C 
BRANCH  23   4
ATOM      4  O   UNL     1      11.179  11.664  22.511  0.00  0.00    -0.483 OA
BRANCH   4  25
ATOM     25  C   UNL     1      11.407  12.659  21.586  0.00  0.00    +0.121 A 
ATOM     28  C   UNL     1      10.607  13.792  21.593  0.00  0.00    +0.045 A 
ATOM     29  C   UNL     1      12.429  12.509  20.662  0.00  0.00    +0.045 A 
ATOM     33  C   UNL     1      10.836  14.799  20.655  0.00  0.00    +0.004 A 
ATOM     34  C   UNL     1      12.658  13.516  19.724  0.00  0.00    +0.004 A 
ATOM     36  C   UNL     1      11.862  14.661  19.721  0.00  0.00    +0.000 A 
ENDBRANCH   4  25
ENDBRANCH  23   4
ENDBRANCH  20  23
TORSDOF 7
ENDMDL
MODEL 2
REMARK VINA RESULT:      -7.1      2.772      3.558
REMARK  Name = 7051432
REMARK  7 active torsions:
REMARK  status: ('A' for Active; 'I' for Inactive)
REMARK    1  A    between atoms: S_1  and  N_9
REMARK    2  A    between atoms: S_1  and  C_24
REMARK    3  A    between atoms: O_4  and  C_23
REMARK    4  A    between atoms: O_4  and  C_25
REMARK    5  A    between atoms: N_9  and  C_21
REMARK    6  A    between atoms: C_20  and  C_23
REMARK    7  A    between atoms: C_26  and  C_35
REMARK                            x       y       z     vdW  Elec       q    Type
REMARK                         _______ _______ _______ _____ _____    ______ ____
ROOT
ATOM      2  O   UNL     1      13.197   8.836  15.569  0.00  0.00    -0.266 OA
ATOM      3  O   UNL     1      10.818   7.970  20.292  0.00  0.00    -0.272 OA
ATOM      7  N   UNL     1      13.099   8.316  20.571  0.00  0.00    -0.298 N 
ATOM      8  N   UNL     1      14.251   8.952  17.658  0.00  0.00    -0.310 N 
ATOM     11  C   UNL     1      14.607   6.911  19.159  0.00  0.00    +0.027 C 
ATOM     12  C   UNL     1      15.358   9.128  19.916  0.00  0.00    +0.054 C 
ATOM     13  C   UNL     1      15.807   7.685  19.691  0.00  0.00    +0.018 C 
ATOM     14  C   UNL     1      13.448   6.952  20.171  0.00  0.00    +0.113 C 
ATOM     15  C   UNL     1      14.205   7.491  17.799  0.00  0.00    +0.130 C 
ATOM     16  C   UNL     1      14.235   9.160  20.971  0.00  0.00    +0.117 C 
ATOM     17  C   UNL     1      14.871   9.757  18.625  0.00  0.00    +0.027 A 
ATOM     18  C   UNL     1      15.007  11.080  18.424  0.00  0.00    +0.024 A 
ATOM     19  C   UNL     1      13.737   9.490  16.460  0.00  0.00    +0.274 A 
ATOM     20  C   UNL     1      11.758   8.694  20.632  0.00  0.00    +0.253 C 
ATOM     21  C   UNL     1      13.895  10.958  16.307  0.00  0.00    +0.112 A 
ATOM     22  C   UNL     1      14.504  11.704  17.230  0.00  0.00    +0.031 A 
ENDROOT
BRANCH  21   9
ATOM      9  N   UNL     1      13.412  11.607  15.157  0.00  0.00    -0.211 N 
ATOM     37  H   UNL     1      12.555  11.172  14.789  0.00  0.00    +0.174 HD
BRANCH   9   1
ATOM      1  S   UNL     1      14.553  12.039  13.982  0.00  0.00    +0.074 S 
ATOM      5  O   UNL     1      15.161  13.308  14.336  0.00  0.00    -0.150 OA
ATOM      6  O   UNL     1      15.383  10.894  13.663  0.00  0.00    -0.150 OA
BRANCH   1  24
ATOM     24  C   UNL     1      13.497  12.330  12.592  0.00  0.00    +0.126 A 
ATOM     26  C   UNL     1      14.018  12.639  11.345  0.00  0.00    +0.078 A 
ATOM     27  C   UNL     1      12.128  12.240  12.796  0.00  0.00    +0.030 A 
ATOM     30  C   UNL     1      13.150  12.863  10.276  0.00  0.00    +0.021 A 
ATOM     31  C   UNL     1      11.260  12.464  11.727  0.00  0.00    +0.002 A 
ATOM     32  C   UNL     1      11.771  12.775  10.467  0.00  0.00    +0.001 A 
BRANCH  26  35
ATOM     10  N   UNL     1      16.568  12.821  10.925  0.00  0.00    -0.191 NA
ATOM     35  C   UNL     1      15.426  12.740  11.113  0.00  0.00    +0.101 C 
ENDBRANCH  26  35
ENDBRANCH   1  24
ENDBRANCH   9   1
ENDBRANCH  21   9
BRANCH  20  23
ATOM     23  C   UNL     1      11.470  10.084  21.142  0.00  0.00    +0.324 C 
BRANCH  23   4
ATOM      4  O   UNL     1      11.225   9.964  22.522  0.00  0.00    -0.483 OA
BRANCH   4  25
ATOM     25  C   UNL     1      11.058  11.128  23.239  0.00  0.00    +0.121 A 
ATOM     28  C   UNL     1      10.894  12.328  22.561  0.00  0.00    +0.045 A 
ATOM     29  C   UNL     1      11.059  11.082  24.624  0.00  0.00    +0.045 A 
ATOM     33  C   UNL     1      10.726  13.507  23.287  0.00  0.00    +0.004 A 
ATOM     34  C   UNL     1      10.891  12.262  25.349  0.00  0.00    +0.004 A 
ATOM     36  C   UNL     1      10.724  13.475  24.681  0.00  0.00    +0.000 A 
ENDBRANCH   4  25
ENDBRANCH  23   4
ENDBRANCH  20  23
TORSDOF 7
ENDMDL
MODEL 3
REMARK VINA RESULT:      -6.8     27.803     29.833
REMARK  Name = 7051432
REMARK  7 active torsions:
REMARK  status: ('A' for Active; 'I' for Inactive)
REMARK    1  A    between atoms: S_1  and  N_9
REMARK    2  A    between atoms: S_1  and  C_24
REMARK    3  A    between atoms: O_4  and  C_23
REMARK    4  A    between atoms: O_4  and  C_25
REMARK    5  A    between atoms: N_9  and  C_21
REMARK    6  A    between atoms: C_20  and  C_23
REMARK    7  A    between atoms: C_26  and  C_35
REMARK                            x       y       z     vdW  Elec       q    Type
REMARK                         _______ _______ _______ _____ _____    ______ ____
ROOT
ATOM      2  O   UNL     1      -5.917 -13.869  15.416  0.00  0.00    -0.266 OA
ATOM      3  O   UNL     1     -10.102 -10.819  16.793  0.00  0.00    -0.272 OA
ATOM      7  N   UNL     1      -8.345 -10.527  18.286  0.00  0.00    -0.298 N 
ATOM      8  N   UNL     1      -5.944 -12.318  17.172  0.00  0.00    -0.310 N 
ATOM     11  C   UNL     1      -7.379 -12.608  19.270  0.00  0.00    +0.027 C 
ATOM     12  C   UNL     1      -5.970 -10.607  19.023  0.00  0.00    +0.054 C 
ATOM     13  C   UNL     1      -6.303 -11.773  19.953  0.00  0.00    +0.018 C 
ATOM     14  C   UNL     1      -8.638 -11.761  19.014  0.00  0.00    +0.113 C 
ATOM     15  C   UNL     1      -6.805 -13.195  17.976  0.00  0.00    +0.130 C 
ATOM     16  C   UNL     1      -7.225  -9.736  18.818  0.00  0.00    +0.117 C 
ATOM     17  C   UNL     1      -5.463 -11.104  17.683  0.00  0.00    +0.027 A 
ATOM     18  C   UNL     1      -4.582 -10.371  16.979  0.00  0.00    +0.024 A 
ATOM     19  C   UNL     1      -5.543 -12.806  15.911  0.00  0.00    +0.274 A 
ATOM     20  C   UNL     1      -9.166 -10.141  17.225  0.00  0.00    +0.253 C 
ATOM     21  C   UNL     1      -4.590 -11.942  15.172  0.00  0.00    +0.112 A 
ATOM     22  C   UNL     1      -4.130 -10.798  15.683  0.00  0.00    +0.031 A 
ENDROOT
BRANCH  21   9
ATOM      9  N   UNL     1      -4.128 -12.321  13.900  0.00  0.00    -0.211 N 
ATOM     37  H   UNL     1      -3.108 -12.218  13.803  0.00  0.00    +0.174 HD
BRANCH   9   1
ATOM      1  S   UNL     1      -5.027 -11.793  12.566  0.00  0.00    +0.074 S 
ATOM      5  O   UNL     1      -5.270 -12.908  11.669  0.00  0.00    -0.150 OA
ATOM      6  O   UNL     1      -6.128 -10.964  13.016  0.00  0.00    -0.150 OA
BRANCH   1  24
ATOM     24  C   UNL     1      -3.852 -10.730  11.778  0.00  0.00    +0.126 A 
ATOM     26  C   UNL     1      -4.194  -9.982  10.662  0.00  0.00    +0.078 A 
ATOM     27  C   UNL     1      -2.576 -10.673  12.318  0.00  0.00    +0.030 A 
ATOM     30  C   UNL     1      -3.236  -9.158  10.070  0.00  0.00    +0.021 A 
ATOM     31  C   UNL     1      -1.619  -9.849  11.726  0.00  0.00    +0.002 A 
ATOM     32  C   UNL     1      -1.949  -9.091  10.603  0.00  0.00    +0.001 A 
BRANCH  26  35
ATOM     10  N   UNL     1      -6.565 -10.064   9.621  0.00  0.00    -0.191 NA
ATOM     35  C   UNL     1      -5.504 -10.028  10.087  0.00  0.00    +0.101 C 
ENDBRANCH  26  35
ENDBRANCH   1  24
ENDBRANCH   9   1
ENDBRANCH  21   9
BRANCH  20  23
ATOM     23  C   UNL     1      -8.861  -8.812  16.582  0.00  0.00    +0.324 C 
BRANCH  23   4
ATOM      4  O   UNL     1      -9.664  -7.856  17.231  0.00  0.00    -0.483 OA
BRANCH   4  25
ATOM     25  C   UNL     1     -10.734  -7.347  16.529  0.00  0.00    +0.121 A 
ATOM     28  C   UNL     1     -11.998  -7.883  16.731  0.00  0.00    +0.045 A 
ATOM     29  C   UNL     1     -10.529  -6.309  15.633  0.00  0.00    +0.045 A 
ATOM     33  C   UNL     1     -13.081  -7.369  16.019  0.00  0.00    +0.004 A 
ATOM     34  C   UNL     1     -11.614  -5.795  14.922  0.00  0.00    +0.004 A 
ATOM     36  C   UNL     1     -12.890  -6.324  15.115  0.00  0.00    +0.000 A 
ENDBRANCH   4  25
ENDBRANCH  23   4
ENDBRANCH  20  23
TORSDOF 7
ENDMDL
MODEL 4
REMARK VINA RESULT:      -6.7     27.859     29.948
REMARK  Name = 7051432
REMARK  7 active torsions:
REMARK  status: ('A' for Active; 'I' for Inactive)
REMARK    1  A    between atoms: S_1  and  N_9
REMARK    2  A    between atoms: S_1  and  C_24
REMARK    3  A    between atoms: O_4  and  C_23
REMARK    4  A    between atoms: O_4  and  C_25
REMARK    5  A    between atoms: N_9  and  C_21
REMARK    6  A    between atoms: C_20  and  C_23
REMARK    7  A    between atoms: C_26  and  C_35
REMARK                            x       y       z     vdW  Elec       q    Type
REMARK                         _______ _______ _______ _____ _____    ______ ____
ROOT
ATOM      2  O   UNL     1      -4.691 -14.152  16.308  0.00  0.00    -0.266 OA
ATOM      3  O   UNL     1      -9.609 -12.074  15.848  0.00  0.00    -0.272 OA
ATOM      7  N   UNL     1      -8.346 -10.867  17.381  0.00  0.00    -0.298 N 
ATOM      8  N   UNL     1      -5.440 -12.198  17.362  0.00  0.00    -0.310 N 
ATOM     11  C   UNL     1      -7.237 -12.195  19.182  0.00  0.00    +0.027 C 
ATOM     12  C   UNL     1      -6.243 -10.069  18.446  0.00  0.00    +0.054 C 
ATOM     13  C   UNL     1      -6.542 -10.930  19.672  0.00  0.00    +0.018 C 
ATOM     14  C   UNL     1      -8.546 -11.843  18.453  0.00  0.00    +0.113 C 
ATOM     15  C   UNL     1      -6.271 -12.979  18.288  0.00  0.00    +0.130 C 
ATOM     16  C   UNL     1      -7.564  -9.679  17.754  0.00  0.00    +0.117 C 
ATOM     17  C   UNL     1      -5.347 -10.803  17.467  0.00  0.00    +0.027 A 
ATOM     18  C   UNL     1      -4.492 -10.117  16.686  0.00  0.00    +0.024 A 
ATOM     19  C   UNL     1      -4.665 -12.929  16.436  0.00  0.00    +0.274 A 
ATOM     20  C   UNL     1      -8.956 -11.069  16.142  0.00  0.00    +0.253 C 
ATOM     21  C   UNL     1      -3.760 -12.114  15.588  0.00  0.00    +0.112 A 
ATOM     22  C   UNL     1      -3.673 -10.790  15.715  0.00  0.00    +0.031 A 
ENDROOT
BRANCH  21   9
ATOM      9  N   UNL     1      -2.946 -12.733  14.623  0.00  0.00    -0.211 N 
ATOM     37  H   UNL     1      -2.007 -12.315  14.571  0.00  0.00    +0.174 HD
BRANCH   9   1
ATOM      1  S   UNL     1      -3.656 -13.076  13.124  0.00  0.00    +0.074 S 
ATOM      5  O   UNL     1      -3.034 -14.253  12.548  0.00  0.00    -0.150 OA
ATOM      6  O   UNL     1      -5.099 -12.992  13.237  0.00  0.00    -0.150 OA
BRANCH   1  24
ATOM     24  C   UNL     1      -3.118 -11.680  12.179  0.00  0.00    +0.126 A 
ATOM     26  C   UNL     1      -3.764 -11.311  11.009  0.00  0.00    +0.078 A 
ATOM     27  C   UNL     1      -2.025 -10.969  12.651  0.00  0.00    +0.030 A 
ATOM     30  C   UNL     1      -3.306 -10.204  10.293  0.00  0.00    +0.021 A 
ATOM     31  C   UNL     1      -1.567  -9.863  11.935  0.00  0.00    +0.002 A 
ATOM     32  C   UNL     1      -2.207  -9.480  10.757  0.00  0.00    +0.001 A 
BRANCH  26  35
ATOM     10  N   UNL     1      -5.806 -12.614  10.093  0.00  0.00    -0.191 NA
ATOM     35  C   UNL     1      -4.892 -12.032  10.503  0.00  0.00    +0.101 C 
ENDBRANCH  26  35
ENDBRANCH   1  24
ENDBRANCH   9   1
ENDBRANCH  21   9
BRANCH  20  23
ATOM     23  C   UNL     1      -8.783  -9.977  15.117  0.00  0.00    +0.324 C 
BRANCH  23   4
ATOM      4  O   UNL     1      -7.603 -10.270  14.411  0.00  0.00    -0.483 OA
BRANCH   4  25
ATOM     25  C   UNL     1      -7.545  -9.889  13.089  0.00  0.00    +0.121 A 
ATOM     28  C   UNL     1      -8.590 -10.221  12.238  0.00  0.00    +0.045 A 
ATOM     29  C   UNL     1      -6.444  -9.182  12.631  0.00  0.00    +0.045 A 
ATOM     33  C   UNL     1      -8.530  -9.837  10.898  0.00  0.00    +0.004 A 
ATOM     34  C   UNL     1      -6.385  -8.799  11.291  0.00  0.00    +0.004 A 
ATOM     36  C   UNL     1      -7.429  -9.125  10.425  0.00  0.00    +0.000 A 
ENDBRANCH   4  25
ENDBRANCH  23   4
ENDBRANCH  20  23
TORSDOF 7
ENDMDL
MODEL 5
REMARK VINA RESULT:      -6.7     13.265     16.226
REMARK  Name = 7051432
REMARK  7 active torsions:
REMARK  status: ('A' for Active; 'I' for Inactive)
REMARK    1  A    between atoms: S_1  and  N_9
REMARK    2  A    between atoms: S_1  and  C_24
REMARK    3  A    between atoms: O_4  and  C_23
REMARK    4  A    between atoms: O_4  and  C_25
REMARK    5  A    between atoms: N_9  and  C_21
REMARK    6  A    between atoms: C_20  and  C_23
REMARK    7  A    between atoms: C_26  and  C_35
REMARK                            x       y       z     vdW  Elec       q    Type
REMARK                         _______ _______ _______ _____ _____    ______ ____
ROOT
ATOM      2  O   UNL     1       8.773   7.983   2.872  0.00  0.00    -0.266 OA
ATOM      3  O   UNL     1      12.211   9.668   6.621  0.00  0.00    -0.272 OA
ATOM      7  N   UNL     1      11.156   7.709   7.293  0.00  0.00    -0.298 N 
ATOM      8  N   UNL     1       9.290   6.837   4.848  0.00  0.00    -0.310 N 
ATOM     11  C   UNL     1       8.662   7.704   7.172  0.00  0.00    +0.027 C 
ATOM     12  C   UNL     1       9.898   5.590   6.953  0.00  0.00    +0.054 C 
ATOM     13  C   UNL     1       8.656   6.233   7.567  0.00  0.00    +0.018 C 
ATOM     14  C   UNL     1       9.931   8.399   7.697  0.00  0.00    +0.113 C 
ATOM     15  C   UNL     1       8.535   7.810   5.648  0.00  0.00    +0.130 C 
ATOM     16  C   UNL     1      11.163   6.257   7.527  0.00  0.00    +0.117 C 
ATOM     17  C   UNL     1       9.889   5.716   5.441  0.00  0.00    +0.027 A 
ATOM     18  C   UNL     1      10.476   4.775   4.680  0.00  0.00    +0.024 A 
ATOM     19  C   UNL     1       9.293   7.031   3.451  0.00  0.00    +0.274 A 
ATOM     20  C   UNL     1      12.237   8.449   6.811  0.00  0.00    +0.253 C 
ATOM     21  C   UNL     1       9.977   5.972   2.668  0.00  0.00    +0.112 A 
ATOM     22  C   UNL     1      10.525   4.904   3.249  0.00  0.00    +0.031 A 
ENDROOT
BRANCH  21   9
ATOM      9  N   UNL     1      10.051   6.064   1.267  0.00  0.00    -0.211 N 
ATOM     37  H   UNL     1       9.795   5.183   0.800  0.00  0.00    +0.174 HD
BRANCH   9   1
ATOM      1  S   UNL     1      11.406   6.846   0.618  0.00  0.00    +0.074 S 
ATOM      5  O   UNL     1      11.212   7.058  -0.804  0.00  0.00    -0.150 OA
ATOM      6  O   UNL     1      11.790   7.950   1.475  0.00  0.00    -0.150 OA
BRANCH   1  24
ATOM     24  C   UNL     1      12.632   5.583   0.800  0.00  0.00    +0.126 A 
ATOM     26  C   UNL     1      12.482   4.342   0.201  0.00  0.00    +0.078 A 
ATOM     27  C   UNL     1      13.749   5.880   1.567  0.00  0.00    +0.030 A 
ATOM     30  C   UNL     1      13.472   3.374   0.371  0.00  0.00    +0.021 A 
ATOM     31  C   UNL     1      14.739   4.912   1.738  0.00  0.00    +0.002 A 
ATOM     32  C   UNL     1      14.601   3.660   1.140  0.00  0.00    +0.001 A 
BRANCH  26  35
ATOM     10  N   UNL     1      10.410   3.749  -1.236  0.00  0.00    -0.191 NA
ATOM     35  C   UNL     1      11.337   4.014  -0.593  0.00  0.00    +0.101 C 
ENDBRANCH  26  35
ENDBRANCH   1  24
ENDBRANCH   9   1
ENDBRANCH  21   9
BRANCH  20  23
ATOM     23  C   UNL     1      13.498   7.682   6.503  0.00  0.00    +0.324 C 
BRANCH  23   4
ATOM      4  O   UNL     1      14.559   8.601   6.584  0.00  0.00    -0.483 OA
BRANCH   4  25
ATOM     25  C   UNL     1      15.581   8.471   5.670  0.00  0.00    +0.121 A 
ATOM     28  C   UNL     1      15.297   8.009   4.393  0.00  0.00    +0.045 A 
ATOM     29  C   UNL     1      16.874   8.803   6.042  0.00  0.00    +0.045 A 
ATOM     33  C   UNL     1      16.332   7.875   3.467  0.00  0.00    +0.004 A 
ATOM     34  C   UNL     1      17.909   8.669   5.116  0.00  0.00    +0.004 A 
ATOM     36  C   UNL     1      17.638   8.206   3.828  0.00  0.00    +0.000 A 
ENDBRANCH   4  25
ENDBRANCH  23   4
ENDBRANCH  20  23
TORSDOF 7
ENDMDL
MODEL 6
REMARK VINA RESULT:      -6.6     27.906     29.700
REMARK  Name = 7051432
REMARK  7 active torsions:
REMARK  status: ('A' for Active; 'I' for Inactive)
REMARK    1  A    between atoms: S_1  and  N_9
REMARK    2  A    between atoms: S_1  and  C_24
REMARK    3  A    between atoms: O_4  and  C_23
REMARK    4  A    between atoms: O_4  and  C_25
REMARK    5  A    between atoms: N_9  and  C_21
REMARK    6  A    between atoms: C_20  and  C_23
REMARK    7  A    between atoms: C_26  and  C_35
REMARK                            x       y       z     vdW  Elec       q    Type
REMARK                         _______ _______ _______ _____ _____    ______ ____
ROOT
ATOM      2  O   UNL     1      -4.540 -12.824   9.899  0.00  0.00    -0.266 OA
ATOM      3  O   UNL     1      -5.898 -12.612  15.078  0.00  0.00    -0.272 OA
ATOM      7  N   UNL     1      -3.595 -12.429  14.823  0.00  0.00    -0.298 N 
ATOM      8  N   UNL     1      -3.060 -12.431  11.672  0.00  0.00    -0.310 N 
ATOM     11  C   UNL     1      -2.497 -14.194  13.438  0.00  0.00    +0.027 C 
ATOM     12  C   UNL     1      -1.490 -11.955  13.585  0.00  0.00    +0.054 C 
ATOM     13  C   UNL     1      -1.173 -13.450  13.559  0.00  0.00    +0.018 C 
ATOM     14  C   UNL     1      -3.410 -13.869  14.634  0.00  0.00    +0.113 C 
ATOM     15  C   UNL     1      -3.150 -13.833  12.100  0.00  0.00    +0.130 C 
ATOM     16  C   UNL     1      -2.359 -11.633  14.816  0.00  0.00    +0.117 C 
ATOM     17  C   UNL     1      -2.208 -11.526  12.320  0.00  0.00    +0.027 A 
ATOM     18  C   UNL     1      -2.051 -10.278  11.843  0.00  0.00    +0.024 A 
ATOM     19  C   UNL     1      -3.790 -12.072  10.519  0.00  0.00    +0.274 A 
ATOM     20  C   UNL     1      -4.872 -11.926  15.077  0.00  0.00    +0.253 C 
ATOM     21  C   UNL     1      -3.594 -10.676  10.056  0.00  0.00    +0.112 A 
ATOM     22  C   UNL     1      -2.765  -9.835  10.676  0.00  0.00    +0.031 A 
ENDROOT
BRANCH  21   9
ATOM      9  N   UNL     1      -4.277 -10.202   8.922  0.00  0.00    -0.211 N 
ATOM     37  H   UNL     1      -3.648  -9.759   8.239  0.00  0.00    +0.174 HD
BRANCH   9   1
ATOM      1  S   UNL     1      -5.732  -9.378   9.190  0.00  0.00    +0.074 S 
ATOM      5  O   UNL     1      -6.571 -10.149  10.088  0.00  0.00    -0.150 OA
ATOM      6  O   UNL     1      -5.458  -7.981   9.464  0.00  0.00    -0.150 OA
BRANCH   1  24
ATOM     24  C   UNL     1      -6.461  -9.468   7.580  0.00  0.00    +0.126 A 
ATOM     26  C   UNL     1      -7.660  -8.833   7.296  0.00  0.00    +0.078 A 
ATOM     27  C   UNL     1      -5.789 -10.200   6.612  0.00  0.00    +0.030 A 
ATOM     30  C   UNL     1      -8.201  -8.931   6.014  0.00  0.00    +0.021 A 
ATOM     31  C   UNL     1      -6.330 -10.298   5.330  0.00  0.00    +0.002 A 
ATOM     32  C   UNL     1      -7.535  -9.663   5.030  0.00  0.00    +0.001 A 
BRANCH  26  35
ATOM     10  N   UNL     1      -8.947  -7.461   9.077  0.00  0.00    -0.191 NA
ATOM     35  C   UNL     1      -8.371  -8.075   8.281  0.00  0.00    +0.101 C 
ENDBRANCH  26  35
ENDBRANCH   1  24
ENDBRANCH   9   1
ENDBRANCH  21   9
BRANCH  20  23
ATOM     23  C   UNL     1      -4.973 -10.448  15.354  0.00  0.00    +0.324 C 
BRANCH  23   4
ATOM      4  O   UNL     1      -4.611 -10.265  16.701  0.00  0.00    -0.483 OA
BRANCH   4  25
ATOM     25  C   UNL     1      -5.568 -10.528  17.655  0.00  0.00    +0.121 A 
ATOM     28  C   UNL     1      -6.866 -10.077  17.462  0.00  0.00    +0.045 A 
ATOM     29  C   UNL     1      -5.218 -11.238  18.794  0.00  0.00    +0.045 A 
ATOM     33  C   UNL     1      -7.835 -10.343  18.429  0.00  0.00    +0.004 A 
ATOM     34  C   UNL     1      -6.188 -11.504  19.761  0.00  0.00    +0.004 A 
ATOM     36  C   UNL     1      -7.497 -11.057  19.578  0.00  0.00    +0.000 A 
ENDBRANCH   4  25
ENDBRANCH  23   4
ENDBRANCH  20  23
TORSDOF 7
ENDMDL
MODEL 7
REMARK VINA RESULT:      -6.6     13.866     16.839
REMARK  Name = 7051432
REMARK  7 active torsions:
REMARK  status: ('A' for Active; 'I' for Inactive)
REMARK    1  A    between atoms: S_1  and  N_9
REMARK    2  A    between atoms: S_1  and  C_24
REMARK    3  A    between atoms: O_4  and  C_23
REMARK    4  A    between atoms: O_4  and  C_25
REMARK    5  A    between atoms: N_9  and  C_21
REMARK    6  A    between atoms: C_20  and  C_23
REMARK    7  A    between atoms: C_26  and  C_35
REMARK                            x       y       z     vdW  Elec       q    Type
REMARK                         _______ _______ _______ _____ _____    ______ ____
ROOT
ATOM      2  O   UNL     1       9.657   7.120   2.055  0.00  0.00    -0.266 OA
ATOM      3  O   UNL     1      12.526   9.762   5.729  0.00  0.00    -0.272 OA
ATOM      7  N   UNL     1      10.909   8.438   6.745  0.00  0.00    -0.298 N 
ATOM      8  N   UNL     1       9.449   6.867   4.374  0.00  0.00    -0.310 N 
ATOM     11  C   UNL     1       8.572   8.718   5.908  0.00  0.00    +0.027 C 
ATOM     12  C   UNL     1       9.274   6.566   6.871  0.00  0.00    +0.054 C 
ATOM     13  C   UNL     1       8.125   7.571   6.805  0.00  0.00    +0.018 C 
ATOM     14  C   UNL     1       9.831   9.392   6.482  0.00  0.00    +0.113 C 
ATOM     15  C   UNL     1       8.801   8.180   4.491  0.00  0.00    +0.130 C 
ATOM     16  C   UNL     1      10.512   7.238   7.497  0.00  0.00    +0.117 C 
ATOM     17  C   UNL     1       9.617   6.037   5.491  0.00  0.00    +0.027 A 
ATOM     18  C   UNL     1      10.105   4.791   5.347  0.00  0.00    +0.024 A 
ATOM     19  C   UNL     1       9.795   6.445   3.074  0.00  0.00    +0.274 A 
ATOM     20  C   UNL     1      12.214   8.748   6.361  0.00  0.00    +0.253 C 
ATOM     21  C   UNL     1      10.351   5.072   2.982  0.00  0.00    +0.112 A 
ATOM     22  C   UNL     1      10.486   4.290   4.054  0.00  0.00    +0.031 A 
ENDROOT
BRANCH  21   9
ATOM      9  N   UNL     1      10.740   4.546   1.737  0.00  0.00    -0.211 N 
ATOM     37  H   UNL     1      10.161   3.746   1.448  0.00  0.00    +0.174 HD
BRANCH   9   1
ATOM      1  S   UNL     1      12.402   4.358   1.468  0.00  0.00    +0.074 S 
ATOM      5  O   UNL     1      13.094   5.586   1.809  0.00  0.00    -0.150 OA
ATOM      6  O   UNL     1      12.845   3.092   2.019  0.00  0.00    -0.150 OA
BRANCH   1  24
ATOM     24  C   UNL     1      12.433   4.207  -0.295  0.00  0.00    +0.126 A 
ATOM     26  C   UNL     1      13.627   4.055  -0.983  0.00  0.00    +0.078 A 
ATOM     27  C   UNL     1      11.219   4.248  -0.964  0.00  0.00    +0.030 A 
ATOM     30  C   UNL     1      13.608   3.942  -2.373  0.00  0.00    +0.021 A 
ATOM     31  C   UNL     1      11.200   4.135  -2.354  0.00  0.00    +0.002 A 
ATOM     32  C   UNL     1      12.393   3.981  -3.059  0.00  0.00    +0.001 A 
BRANCH  26  35
ATOM     10  N   UNL     1      15.915   3.977   0.231  0.00  0.00    -0.191 NA
ATOM     35  C   UNL     1      14.891   4.013  -0.313  0.00  0.00    +0.101 C 
ENDBRANCH  26  35
ENDBRANCH   1  24
ENDBRANCH   9   1
ENDBRANCH  21   9
BRANCH  20  23
ATOM     23  C   UNL     1      13.286   7.761   6.748  0.00  0.00    +0.324 C 
BRANCH  23   4
ATOM      4  O   UNL     1      13.835   7.272   5.549  0.00  0.00    -0.483 OA
BRANCH   4  25
ATOM     25  C   UNL     1      15.098   7.704   5.208  0.00  0.00    +0.121 A 
ATOM     28  C   UNL     1      15.539   7.555   3.901  0.00  0.00    +0.045 A 
ATOM     29  C   UNL     1      15.906   8.278   6.177  0.00  0.00    +0.045 A 
ATOM     33  C   UNL     1      16.818   7.991   3.557  0.00  0.00    +0.004 A 
ATOM     34  C   UNL     1      17.186   8.713   5.832  0.00  0.00    +0.004 A 
ATOM     36  C   UNL     1      17.642   8.571   4.521  0.00  0.00    +0.000 A 
ENDBRANCH   4  25
ENDBRANCH  23   4
ENDBRANCH  20  23
TORSDOF 7
ENDMDL
MODEL 8
REMARK VINA RESULT:      -6.5     12.679     15.798
REMARK  Name = 7051432
REMARK  7 active torsions:
REMARK  status: ('A' for Active; 'I' for Inactive)
REMARK    1  A    between atoms: S_1  and  N_9
REMARK    2  A    between atoms: S_1  and  C_24
REMARK    3  A    between atoms: O_4  and  C_23
REMARK    4  A    between atoms: O_4  and  C_25
REMARK    5  A    between atoms: N_9  and  C_21
REMARK    6  A    between atoms: C_20  and  C_23
REMARK    7  A    between atoms: C_26  and  C_35
REMARK                            x       y       z     vdW  Elec       q    Type
REMARK                         _______ _______ _______ _____ _____    ______ ____
ROOT
ATOM      2  O   UNL     1      14.055   6.596   7.342  0.00  0.00    -0.266 OA
ATOM      3  O   UNL     1      10.682   4.033   4.059  0.00  0.00    -0.272 OA
ATOM      7  N   UNL     1       9.622   5.825   5.092  0.00  0.00    -0.298 N 
ATOM      8  N   UNL     1      11.861   7.265   6.862  0.00  0.00    -0.310 N 
ATOM     11  C   UNL     1       9.803   5.926   7.581  0.00  0.00    +0.027 C 
ATOM     12  C   UNL     1       9.519   8.002   6.293  0.00  0.00    +0.054 C 
ATOM     13  C   UNL     1       9.094   7.274   7.567  0.00  0.00    +0.018 C 
ATOM     14  C   UNL     1       9.412   5.098   6.344  0.00  0.00    +0.113 C 
ATOM     15  C   UNL     1      11.316   6.161   7.662  0.00  0.00    +0.130 C 
ATOM     16  C   UNL     1       9.074   7.189   5.061  0.00  0.00    +0.117 C 
ATOM     17  C   UNL     1      11.021   8.211   6.258  0.00  0.00    +0.027 A 
ATOM     18  C   UNL     1      11.541   9.279   5.627  0.00  0.00    +0.024 A 
ATOM     19  C   UNL     1      13.267   7.383   6.820  0.00  0.00    +0.274 A 
ATOM     20  C   UNL     1      10.228   5.180   4.013  0.00  0.00    +0.253 C 
ATOM     21  C   UNL     1      13.780   8.568   6.089  0.00  0.00    +0.112 A 
ATOM     22  C   UNL     1      12.963   9.466   5.536  0.00  0.00    +0.031 A 
ENDROOT
BRANCH  21   9
ATOM      9  N   UNL     1      15.164   8.785   5.973  0.00  0.00    -0.211 N 
ATOM     37  H   UNL     1      15.466   9.660   6.423  0.00  0.00    +0.174 HD
BRANCH   9   1
ATOM      1  S   UNL     1      15.866   8.482   4.462  0.00  0.00    +0.074 S 
ATOM      5  O   UNL     1      15.516   7.145   4.021  0.00  0.00    -0.150 OA
ATOM      6  O   UNL     1      15.655   9.619   3.589  0.00  0.00    -0.150 OA
BRANCH   1  24
ATOM     24  C   UNL     1      17.582   8.460   4.896  0.00  0.00    +0.126 A 
ATOM     26  C   UNL     1      18.565   8.289   3.934  0.00  0.00    +0.078 A 
ATOM     27  C   UNL     1      17.906   8.619   6.235  0.00  0.00    +0.030 A 
ATOM     30  C   UNL     1      19.906   8.276   4.320  0.00  0.00    +0.021 A 
ATOM     31  C   UNL     1      19.247   8.606   6.620  0.00  0.00    +0.002 A 
ATOM     32  C   UNL     1      20.247   8.435   5.663  0.00  0.00    +0.001 A 
BRANCH  26  35
ATOM     10  N   UNL     1      17.998   7.985   1.425  0.00  0.00    -0.191 NA
ATOM     35  C   UNL     1      18.252   8.122   2.548  0.00  0.00    +0.101 C 
ENDBRANCH  26  35
ENDBRANCH   1  24
ENDBRANCH   9   1
ENDBRANCH  21   9
BRANCH  20  23
ATOM     23  C   UNL     1      10.327   5.960   2.727  0.00  0.00    +0.324 C 
BRANCH  23   4
ATOM      4  O   UNL     1      11.686   5.970   2.364  0.00  0.00    -0.483 OA
BRANCH   4  25
ATOM     25  C   UNL     1      12.092   5.068   1.406  0.00  0.00    +0.121 A 
ATOM     28  C   UNL     1      11.261   4.798   0.328  0.00  0.00    +0.045 A 
ATOM     29  C   UNL     1      13.322   4.442   1.537  0.00  0.00    +0.045 A 
ATOM     33  C   UNL     1      11.672   3.883  -0.641  0.00  0.00    +0.004 A 
ATOM     34  C   UNL     1      13.732   3.527   0.567  0.00  0.00    +0.004 A 
ATOM     36  C   UNL     1      12.907   3.248  -0.522  0.00  0.00    +0.000 A 
ENDBRANCH   4  25
ENDBRANCH  23   4
ENDBRANCH  20  23
TORSDOF 7
ENDMDL
MODEL 9
REMARK VINA RESULT:      -6.5      1.542      2.087
REMARK  Name = 7051432
REMARK  7 active torsions:
REMARK  status: ('A' for Active; 'I' for Inactive)
REMARK    1  A    between atoms: S_1  and  N_9
REMARK    2  A    between atoms: S_1  and  C_24
REMARK    3  A    between atoms: O_4  and  C_23
REMARK    4  A    between atoms: O_4  and  C_25
REMARK    5  A    between atoms: N_9  and  C_21
REMARK    6  A    between atoms: C_20  and  C_23
REMARK    7  A    between atoms: C_26  and  C_35
REMARK                            x       y       z     vdW  Elec       q    Type
REMARK                         _______ _______ _______ _____ _____    ______ ____
ROOT
ATOM      2  O   UNL     1      12.187   9.391  16.938  0.00  0.00    -0.266 OA
ATOM      3  O   UNL     1      10.519   9.110  22.022  0.00  0.00    -0.272 OA
ATOM      7  N   UNL     1      12.717   8.378  21.836  0.00  0.00    -0.298 N 
ATOM      8  N   UNL     1      13.517   8.782  18.768  0.00  0.00    -0.310 N 
ATOM     11  C   UNL     1      13.153   6.632  20.105  0.00  0.00    +0.027 C 
ATOM     12  C   UNL     1      14.949   8.182  20.754  0.00  0.00    +0.054 C 
ATOM     13  C   UNL     1      14.644   6.727  20.400  0.00  0.00    +0.018 C 
ATOM     14  C   UNL     1      12.331   7.059  21.335  0.00  0.00    +0.113 C 
ATOM     15  C   UNL     1      12.834   7.486  18.874  0.00  0.00    +0.130 C 
ATOM     16  C   UNL     1      14.162   8.581  22.018  0.00  0.00    +0.117 C 
ATOM     17  C   UNL     1      14.590   9.110  19.609  0.00  0.00    +0.027 A 
ATOM     18  C   UNL     1      15.278  10.250  19.422  0.00  0.00    +0.024 A 
ATOM     19  C   UNL     1      13.109   9.630  17.717  0.00  0.00    +0.274 A 
ATOM     20  C   UNL     1      11.728   9.300  22.183  0.00  0.00    +0.253 C 
ATOM     21  C   UNL     1      13.890  10.883  17.576  0.00  0.00    +0.112 A 
ATOM     22  C   UNL     1      14.920  11.169  18.375  0.00  0.00    +0.031 A 
ENDROOT
BRANCH  21   9
ATOM      9  N   UNL     1      13.569  11.810  16.569  0.00  0.00    -0.211 N 
ATOM     37  H   UNL     1      12.555  11.876  16.403  0.00  0.00    +0.174 HD
BRANCH   9   1
ATOM      1  S   UNL     1      14.520  11.785  15.169  0.00  0.00    +0.074 S 
ATOM      5  O   UNL     1      15.832  12.333  15.461  0.00  0.00    -0.150 OA
ATOM      6  O   UNL     1      14.394  10.497  14.515  0.00  0.00    -0.150 OA
BRANCH   1  24
ATOM     24  C   UNL     1      13.666  12.970  14.171  0.00  0.00    +0.126 A 
ATOM     26  C   UNL     1      13.371  14.237  14.651  0.00  0.00    +0.078 A 
ATOM     27  C   UNL     1      13.299  12.585  12.890  0.00  0.00    +0.030 A 
ATOM     30  C   UNL     1      12.694  15.141  13.831  0.00  0.00    +0.021 A 
ATOM     31  C   UNL     1      12.622  13.488  12.071  0.00  0.00    +0.002 A 
ATOM     32  C   UNL     1      12.319  14.766  12.541  0.00  0.00    +0.001 A 
BRANCH  26  35
ATOM     10  N   UNL     1      14.036  14.993  17.038  0.00  0.00    -0.191 NA
ATOM     35  C   UNL     1      13.738  14.655  15.970  0.00  0.00    +0.101 C 
ENDBRANCH  26  35
ENDBRANCH   1  24
ENDBRANCH   9   1
ENDBRANCH  21   9
BRANCH  20  23
ATOM     23  C   UNL     1      12.197  10.602  22.780  0.00  0.00    +0.324 C 
BRANCH  23   4
ATOM      4  O   UNL     1      12.704  11.373  21.719  0.00  0.00    -0.483 OA
BRANCH   4  25
ATOM     25  C   UNL     1      12.015  12.516  21.380  0.00  0.00    +0.121 A 
ATOM     28  C   UNL     1      10.916  12.898  22.135  0.00  0.00    +0.045 A 
ATOM     29  C   UNL     1      12.431  13.264  20.289  0.00  0.00    +0.045 A 
ATOM     33  C   UNL     1      10.217  14.055  21.791  0.00  0.00    +0.004 A 
ATOM     34  C   UNL     1      11.731  14.421  19.946  0.00  0.00    +0.004 A 
ATOM     36  C   UNL     1      10.624  14.817  20.697  0.00  0.00    +0.000 A 
ENDBRANCH   4  25
ENDBRANCH  23   4
ENDBRANCH  20  23
TORSDOF 7
ENDMDL
MODEL 10
REMARK VINA RESULT:      -6.4     28.347     30.375
REMARK  Name = 7051432
REMARK  7 active torsions:
REMARK  status: ('A' for Active; 'I' for Inactive)
REMARK    1  A    between atoms: S_1  and  N_9
REMARK    2  A    between atoms: S_1  and  C_24
REMARK    3  A    between atoms: O_4  and  C_23
REMARK    4  A    between atoms: O_4  and  C_25
REMARK    5  A    between atoms: N_9  and  C_21
REMARK    6  A    between atoms: C_20  and  C_23
REMARK    7  A    between atoms: C_26  and  C_35
REMARK                            x       y       z     vdW  Elec       q    Type
REMARK                         _______ _______ _______ _____ _____    ______ ____
ROOT
ATOM      2  O   UNL     1      -5.525 -13.768  15.608  0.00  0.00    -0.266 OA
ATOM      3  O   UNL     1      -9.947 -10.745  15.741  0.00  0.00    -0.272 OA
ATOM      7  N   UNL     1      -9.118 -11.084  17.886  0.00  0.00    -0.298 N 
ATOM      8  N   UNL     1      -6.426 -12.769  17.526  0.00  0.00    -0.310 N 
ATOM     11  C   UNL     1      -8.676 -13.455  18.533  0.00  0.00    +0.027 C 
ATOM     12  C   UNL     1      -7.376 -11.644  19.572  0.00  0.00    +0.054 C 
ATOM     13  C   UNL     1      -8.077 -12.973  19.848  0.00  0.00    +0.018 C 
ATOM     14  C   UNL     1      -9.686 -12.428  17.992  0.00  0.00    +0.113 C 
ATOM     15  C   UNL     1      -7.540 -13.726  17.539  0.00  0.00    +0.130 C 
ATOM     16  C   UNL     1      -8.407 -10.609  19.082  0.00  0.00    +0.117 C 
ATOM     17  C   UNL     1      -6.279 -11.809  18.536  0.00  0.00    +0.027 A 
ATOM     18  C   UNL     1      -5.191 -11.018  18.572  0.00  0.00    +0.024 A 
ATOM     19  C   UNL     1      -5.461 -12.935  16.510  0.00  0.00    +0.274 A 
ATOM     20  C   UNL     1      -9.348 -10.327  16.736  0.00  0.00    +0.253 C 
ATOM     21  C   UNL     1      -4.296 -12.018  16.590  0.00  0.00    +0.112 A 
ATOM     22  C   UNL     1      -4.166 -11.123  17.569  0.00  0.00    +0.031 A 
ENDROOT
BRANCH  21   9
ATOM      9  N   UNL     1      -3.275 -12.085  15.625  0.00  0.00    -0.211 N 
ATOM     37  H   UNL     1      -2.337 -12.124  16.046  0.00  0.00    +0.174 HD
BRANCH   9   1
ATOM      1  S   UNL     1      -3.413 -11.056  14.288  0.00  0.00    +0.074 S 
ATOM      5  O   UNL     1      -4.716 -10.416  14.296  0.00  0.00    -0.150 OA
ATOM      6  O   UNL     1      -2.209 -10.259  14.158  0.00  0.00    -0.150 OA
BRANCH   1  24
ATOM     24  C   UNL     1      -3.413 -12.233  12.967  0.00  0.00    +0.126 A 
ATOM     26  C   UNL     1      -3.696 -11.853  11.664  0.00  0.00    +0.078 A 
ATOM     27  C   UNL     1      -3.122 -13.551  13.283  0.00  0.00    +0.030 A 
ATOM     30  C   UNL     1      -3.687 -12.813  10.652  0.00  0.00    +0.021 A 
ATOM     31  C   UNL     1      -3.113 -14.512  12.271  0.00  0.00    +0.002 A 
ATOM     32  C   UNL     1      -3.395 -14.143  10.956  0.00  0.00    +0.001 A 
BRANCH  26  35
ATOM     10  N   UNL     1      -4.248  -9.401  11.033  0.00  0.00    -0.191 NA
ATOM     35  C   UNL     1      -4.001 -10.498  11.316  0.00  0.00    +0.101 C 
ENDBRANCH  26  35
ENDBRANCH   1  24
ENDBRANCH   9   1
ENDBRANCH  21   9
BRANCH  20  23
ATOM     23  C   UNL     1      -8.812  -8.918  16.735  0.00  0.00    +0.324 C 
BRANCH  23   4
ATOM      4  O   UNL     1      -9.753  -8.129  17.421  0.00  0.00    -0.483 OA
BRANCH   4  25
ATOM     25  C   UNL     1     -10.754  -7.547  16.676  0.00  0.00    +0.121 A 
ATOM     28  C   UNL     1     -12.050  -8.032  16.780  0.00  0.00    +0.045 A 
ATOM     29  C   UNL     1     -10.450  -6.488  15.834  0.00  0.00    +0.045 A 
ATOM     33  C   UNL     1     -13.064  -7.443  16.024  0.00  0.00    +0.004 A 
ATOM     34  C   UNL     1     -11.465  -5.900  15.078  0.00  0.00    +0.004 A 
ATOM     36  C   UNL     1     -12.772  -6.378  15.174  0.00  0.00    +0.000 A 
ENDBRANCH   4  25
ENDBRANCH  23   4
ENDBRANCH  20  23
TORSDOF 7
ENDMDL
