MODEL 1
REMARK VINA RESULT:      -7.8      0.000      0.000
REMARK  Name = 28991371
REMARK  7 active torsions:
REMARK  status: ('A' for Active; 'I' for Inactive)
REMARK    1  A    between atoms: O_3  and  C_20
REMARK    2  A    between atoms: O_3  and  C_32
REMARK    3  A    between atoms: N_7  and  C_11
REMARK    4  A    between atoms: N_7  and  C_21
REMARK    5  A    between atoms: C_9  and  C_17
REMARK    6  A    between atoms: C_13  and  C_20
REMARK    7  A    between atoms: C_21  and  C_29
REMARK                            x       y       z     vdW  Elec       q    Type
REMARK                         _______ _______ _______ _____ _____    ______ ____
ROOT
ATOM      5  N   UNL     1      13.668   9.962  20.449  0.00  0.00    -0.274 NA
ATOM      6  N   UNL     1      11.300  12.722  21.388  0.00  0.00    -0.356 N 
ATOM      8  C   UNL     1      12.595  10.937  20.086  0.00  0.00    +0.106 C 
ATOM      9  C   UNL     1      14.199   9.252  19.258  0.00  0.00    +0.090 C 
ATOM     10  C   UNL     1      13.118  11.971  19.075  0.00  0.00    +0.044 C 
ATOM     11  C   UNL     1      13.628  11.274  17.814  0.00  0.00    +0.058 C 
ATOM     12  C   UNL     1      14.702  10.254  18.191  0.00  0.00    +0.042 C 
ATOM     13  C   UNL     1      13.288   9.077  21.585  0.00  0.00    +0.172 C 
ATOM     14  C   UNL     1      12.071  11.594  21.328  0.00  0.00    +0.038 A 
ATOM     15  C   UNL     1      12.998   9.871  22.884  0.00  0.00    +0.068 C 
ATOM     16  C   UNL     1      12.228  11.115  22.609  0.00  0.00    -0.016 A 
ATOM     18  C   UNL     1      11.558  12.004  23.492  0.00  0.00    +0.003 A 
ATOM     19  C   UNL     1      10.985  13.004  22.699  0.00  0.00    +0.047 A 
ATOM     24  C   UNL     1      11.374  12.058  24.888  0.00  0.00    +0.010 A 
ATOM     25  C   UNL     1      10.239  14.058  23.239  0.00  0.00    +0.026 A 
ATOM     26  C   UNL     1      10.632  13.108  25.441  0.00  0.00    +0.001 A 
ATOM     30  C   UNL     1      10.073  14.092  24.626  0.00  0.00    +0.002 A 
ATOM     36  H   UNL     1      11.005  13.274  20.594  0.00  0.00    +0.166 HD
ENDROOT
BRANCH   9  17
ATOM      2  F   UNL     1      18.441   5.689  20.394  0.00  0.00    -0.205 F 
ATOM     17  C   UNL     1      15.344   8.290  19.564  0.00  0.00    -0.030 A 
ATOM     22  C   UNL     1      16.384   8.690  20.403  0.00  0.00    +0.008 A 
ATOM     23  C   UNL     1      15.350   7.011  19.006  0.00  0.00    +0.008 A 
ATOM     27  C   UNL     1      17.431   7.811  20.684  0.00  0.00    +0.038 A 
ATOM     28  C   UNL     1      16.397   6.134  19.286  0.00  0.00    +0.038 A 
ATOM     31  C   UNL     1      17.437   6.533  20.125  0.00  0.00    +0.123 A 
ENDBRANCH   9  17
BRANCH  13  20
ATOM      4  O   UNL     1      11.057   8.648  20.776  0.00  0.00    -0.249 OA
ATOM     20  C   UNL     1      12.116   8.215  21.210  0.00  0.00    +0.325 C 
BRANCH  20   3
ATOM      3  O   UNL     1      12.426   6.905  21.427  0.00  0.00    -0.467 OA
ATOM     32  C   UNL     1      11.310   6.014  21.503  0.00  0.00    +0.280 C 
ENDBRANCH  20   3
ENDBRANCH  13  20
BRANCH  11   7
ATOM      7  N   UNL     1      14.153  12.261  16.872  0.00  0.00    -0.309 NA
ATOM     37  H   UNL     1      13.545  13.080  16.868  0.00  0.00    +0.123 HD
BRANCH   7  21
ATOM     21  C   UNL     1      14.203  11.713  15.526  0.00  0.00    +0.123 C 
BRANCH  21  29
ATOM      1  S   UNL     1      15.622  12.065  13.160  0.00  0.00    -0.100 S 
ATOM     29  C   UNL     1      15.533  11.967  14.867  0.00  0.00    +0.004 A 
ATOM     33  C   UNL     1      16.765  12.142  15.459  0.00  0.00    +0.012 A 
ATOM     34  C   UNL     1      17.794  12.359  14.499  0.00  0.00    +0.008 A 
ATOM     35  C   UNL     1      17.310  12.342  13.209  0.00  0.00    +0.045 A 
ENDBRANCH  21  29
ENDBRANCH   7  21
ENDBRANCH  11   7
TORSDOF 6
ENDMDL
MODEL 2
REMARK VINA RESULT:      -7.7      3.579      7.377
REMARK  Name = 28991371
REMARK  7 active torsions:
REMARK  status: ('A' for Active; 'I' for Inactive)
REMARK    1  A    between atoms: O_3  and  C_20
REMARK    2  A    between atoms: O_3  and  C_32
REMARK    3  A    between atoms: N_7  and  C_11
REMARK    4  A    between atoms: N_7  and  C_21
REMARK    5  A    between atoms: C_9  and  C_17
REMARK    6  A    between atoms: C_13  and  C_20
REMARK    7  A    between atoms: C_21  and  C_29
REMARK                            x       y       z     vdW  Elec       q    Type
REMARK                         _______ _______ _______ _____ _____    ______ ____
ROOT
ATOM      5  N   UNL     1      14.751   9.013  19.856  0.00  0.00    -0.274 NA
ATOM      6  N   UNL     1      17.852   8.813  21.966  0.00  0.00    -0.356 N 
ATOM      8  C   UNL     1      15.515   9.380  21.088  0.00  0.00    +0.106 C 
ATOM      9  C   UNL     1      13.470   9.758  19.755  0.00  0.00    +0.090 C 
ATOM     10  C   UNL     1      15.806  10.889  21.118  0.00  0.00    +0.044 C 
ATOM     11  C   UNL     1      14.503  11.686  21.064  0.00  0.00    +0.058 C 
ATOM     12  C   UNL     1      13.709  11.286  19.820  0.00  0.00    +0.042 C 
ATOM     13  C   UNL     1      14.633   7.541  19.664  0.00  0.00    +0.172 C 
ATOM     14  C   UNL     1      16.775   8.571  21.158  0.00  0.00    +0.038 A 
ATOM     15  C   UNL     1      16.012   6.850  19.513  0.00  0.00    +0.068 C 
ATOM     16  C   UNL     1      17.014   7.406  20.463  0.00  0.00    -0.016 A 
ATOM     18  C   UNL     1      18.303   6.936  20.833  0.00  0.00    +0.003 A 
ATOM     19  C   UNL     1      18.807   7.837  21.776  0.00  0.00    +0.047 A 
ATOM     24  C   UNL     1      19.093   5.828  20.464  0.00  0.00    +0.010 A 
ATOM     25  C   UNL     1      20.067   7.683  22.366  0.00  0.00    +0.026 A 
ATOM     26  C   UNL     1      20.355   5.665  21.045  0.00  0.00    +0.001 A 
ATOM     30  C   UNL     1      20.833   6.580  21.983  0.00  0.00    +0.002 A 
ATOM     36  H   UNL     1      17.943   9.589  22.606  0.00  0.00    +0.166 HD
ENDROOT
BRANCH   9  17
ATOM      2  F   UNL     1      10.543   8.686  15.035  0.00  0.00    -0.205 F 
ATOM     17  C   UNL     1      12.680   9.468  18.480  0.00  0.00    -0.030 A 
ATOM     22  C   UNL     1      11.443   8.828  18.558  0.00  0.00    +0.008 A 
ATOM     23  C   UNL     1      13.195   9.844  17.239  0.00  0.00    +0.008 A 
ATOM     27  C   UNL     1      10.721   8.564  17.394  0.00  0.00    +0.038 A 
ATOM     28  C   UNL     1      12.473   9.578  16.076  0.00  0.00    +0.038 A 
ATOM     31  C   UNL     1      11.236   8.939  16.153  0.00  0.00    +0.123 A 
ENDBRANCH   9  17
BRANCH  13  20
ATOM      4  O   UNL     1      14.187   6.953  21.960  0.00  0.00    -0.249 OA
ATOM     20  C   UNL     1      13.845   6.926  20.785  0.00  0.00    +0.325 C 
BRANCH  20   3
ATOM      3  O   UNL     1      12.715   6.349  20.285  0.00  0.00    -0.467 OA
ATOM     32  C   UNL     1      11.636   6.204  21.213  0.00  0.00    +0.280 C 
ENDBRANCH  20   3
ENDBRANCH  13  20
BRANCH  11   7
ATOM      7  N   UNL     1      14.791  13.119  21.059  0.00  0.00    -0.309 NA
ATOM     37  H   UNL     1      15.797  13.261  20.965  0.00  0.00    +0.123 HD
BRANCH   7  21
ATOM     21  C   UNL     1      14.350  13.737  22.299  0.00  0.00    +0.123 C 
BRANCH  21  29
ATOM      1  S   UNL     1      12.251  12.933  23.936  0.00  0.00    -0.100 S 
ATOM     29  C   UNL     1      12.861  13.613  22.489  0.00  0.00    +0.004 A 
ATOM     33  C   UNL     1      11.853  13.983  21.627  0.00  0.00    +0.012 A 
ATOM     34  C   UNL     1      10.563  13.705  22.162  0.00  0.00    +0.008 A 
ATOM     35  C   UNL     1      10.633  13.132  23.413  0.00  0.00    +0.045 A 
ENDBRANCH  21  29
ENDBRANCH   7  21
ENDBRANCH  11   7
TORSDOF 6
ENDMDL
MODEL 3
REMARK VINA RESULT:      -7.7     13.165     16.621
REMARK  Name = 28991371
REMARK  7 active torsions:
REMARK  status: ('A' for Active; 'I' for Inactive)
REMARK    1  A    between atoms: O_3  and  C_20
REMARK    2  A    between atoms: O_3  and  C_32
REMARK    3  A    between atoms: N_7  and  C_11
REMARK    4  A    between atoms: N_7  and  C_21
REMARK    5  A    between atoms: C_9  and  C_17
REMARK    6  A    between atoms: C_13  and  C_20
REMARK    7  A    between atoms: C_21  and  C_29
REMARK                            x       y       z     vdW  Elec       q    Type
REMARK                         _______ _______ _______ _____ _____    ______ ____
ROOT
ATOM      5  N   UNL     1      11.885   6.696   5.710  0.00  0.00    -0.274 NA
ATOM      6  N   UNL     1      14.638   7.706   3.363  0.00  0.00    -0.356 N 
ATOM      8  C   UNL     1      12.349   7.139   4.359  0.00  0.00    +0.106 C 
ATOM      9  C   UNL     1      10.444   6.339   5.713  0.00  0.00    +0.090 C 
ATOM     10  C   UNL     1      12.100   6.042   3.312  0.00  0.00    +0.044 C 
ATOM     11  C   UNL     1      10.614   5.685   3.254  0.00  0.00    +0.058 C 
ATOM     12  C   UNL     1      10.135   5.263   4.643  0.00  0.00    +0.042 C 
ATOM     13  C   UNL     1      12.300   7.623   6.799  0.00  0.00    +0.172 C 
ATOM     14  C   UNL     1      13.797   7.523   4.425  0.00  0.00    +0.038 A 
ATOM     15  C   UNL     1      13.841   7.750   6.915  0.00  0.00    +0.068 C 
ATOM     16  C   UNL     1      14.490   7.823   5.577  0.00  0.00    -0.016 A 
ATOM     18  C   UNL     1      15.817   8.169   5.208  0.00  0.00    +0.003 A 
ATOM     19  C   UNL     1      15.884   8.086   3.813  0.00  0.00    +0.047 A 
ATOM     24  C   UNL     1      16.973   8.550   5.920  0.00  0.00    +0.010 A 
ATOM     25  C   UNL     1      17.054   8.365   3.097  0.00  0.00    +0.026 A 
ATOM     26  C   UNL     1      18.149   8.829   5.216  0.00  0.00    +0.001 A 
ATOM     30  C   UNL     1      18.187   8.738   3.825  0.00  0.00    +0.002 A 
ATOM     36  H   UNL     1      14.392   7.581   2.391  0.00  0.00    +0.166 HD
ENDROOT
BRANCH   9  17
ATOM      2  F   UNL     1       8.552   4.405  10.679  0.00  0.00    -0.205 F 
ATOM     17  C   UNL     1       9.933   5.817   7.054  0.00  0.00    -0.030 A 
ATOM     22  C   UNL     1       9.267   6.675   7.928  0.00  0.00    +0.008 A 
ATOM     23  C   UNL     1      10.133   4.481   7.404  0.00  0.00    +0.008 A 
ATOM     27  C   UNL     1       8.800   6.199   9.153  0.00  0.00    +0.038 A 
ATOM     28  C   UNL     1       9.667   4.005   8.629  0.00  0.00    +0.038 A 
ATOM     31  C   UNL     1       9.001   4.863   9.503  0.00  0.00    +0.123 A 
ENDBRANCH   9  17
BRANCH  13  20
ATOM      4  O   UNL     1      10.880   9.241   5.712  0.00  0.00    -0.249 OA
ATOM     20  C   UNL     1      11.663   8.971   6.613  0.00  0.00    +0.325 C 
BRANCH  20   3
ATOM      3  O   UNL     1      12.093   9.817   7.592  0.00  0.00    -0.467 OA
ATOM     32  C   UNL     1      11.063  10.407   8.390  0.00  0.00    +0.280 C 
ENDBRANCH  20   3
ENDBRANCH  13  20
BRANCH  11   7
ATOM      7  N   UNL     1      10.391   4.619   2.280  0.00  0.00    -0.309 NA
ATOM     37  H   UNL     1       9.477   4.196   2.446  0.00  0.00    +0.123 HD
BRANCH   7  21
ATOM     21  C   UNL     1      11.408   3.587   2.404  0.00  0.00    +0.123 C 
BRANCH  21  29
ATOM      1  S   UNL     1      11.877   3.989  -0.308  0.00  0.00    -0.100 S 
ATOM     29  C   UNL     1      12.412   3.652   1.283  0.00  0.00    +0.004 A 
ATOM     33  C   UNL     1      13.776   3.469   1.342  0.00  0.00    +0.012 A 
ATOM     34  C   UNL     1      14.390   3.609   0.064  0.00  0.00    +0.008 A 
ATOM     35  C   UNL     1      13.472   3.893  -0.923  0.00  0.00    +0.045 A 
ENDBRANCH  21  29
ENDBRANCH   7  21
ENDBRANCH  11   7
TORSDOF 6
ENDMDL
MODEL 4
REMARK VINA RESULT:      -7.0     29.042     32.581
REMARK  Name = 28991371
REMARK  7 active torsions:
REMARK  status: ('A' for Active; 'I' for Inactive)
REMARK    1  A    between atoms: O_3  and  C_20
REMARK    2  A    between atoms: O_3  and  C_32
REMARK    3  A    between atoms: N_7  and  C_11
REMARK    4  A    between atoms: N_7  and  C_21
REMARK    5  A    between atoms: C_9  and  C_17
REMARK    6  A    between atoms: C_13  and  C_20
REMARK    7  A    between atoms: C_21  and  C_29
REMARK                            x       y       z     vdW  Elec       q    Type
REMARK                         _______ _______ _______ _____ _____    ______ ____
ROOT
ATOM      5  N   UNL     1      -9.864  -9.664  17.415  0.00  0.00    -0.274 NA
ATOM      6  N   UNL     1      -7.304 -11.750  19.204  0.00  0.00    -0.356 N 
ATOM      8  C   UNL     1      -9.506 -10.837  18.270  0.00  0.00    +0.106 C 
ATOM      9  C   UNL     1     -11.334  -9.490  17.298  0.00  0.00    +0.090 C 
ATOM     10  C   UNL     1     -10.109 -10.690  19.676  0.00  0.00    +0.044 C 
ATOM     11  C   UNL     1     -11.630 -10.557  19.594  0.00  0.00    +0.058 C 
ATOM     12  C   UNL     1     -11.993  -9.377  18.694  0.00  0.00    +0.042 C 
ATOM     13  C   UNL     1      -9.128  -9.644  16.120  0.00  0.00    +0.172 C 
ATOM     14  C   UNL     1      -8.015 -10.987  18.320  0.00  0.00    +0.038 A 
ATOM     15  C   UNL     1      -7.593  -9.559  16.311  0.00  0.00    +0.068 C 
ATOM     16  C   UNL     1      -7.128 -10.429  17.427  0.00  0.00    -0.016 A 
ATOM     18  C   UNL     1      -5.819 -10.837  17.801  0.00  0.00    +0.003 A 
ATOM     19  C   UNL     1      -5.958 -11.665  18.919  0.00  0.00    +0.047 A 
ATOM     24  C   UNL     1      -4.526 -10.590  17.297  0.00  0.00    +0.010 A 
ATOM     25  C   UNL     1      -4.863 -12.256  19.560  0.00  0.00    +0.026 A 
ATOM     26  C   UNL     1      -3.423 -11.174  17.930  0.00  0.00    +0.001 A 
ATOM     30  C   UNL     1      -3.591 -11.995  19.044  0.00  0.00    +0.002 A 
ATOM     36  H   UNL     1      -7.699 -12.296  19.958  0.00  0.00    +0.166 HD
ENDROOT
BRANCH   9  17
ATOM      2  F   UNL     1     -12.890  -4.955  14.298  0.00  0.00    -0.205 F 
ATOM     17  C   UNL     1     -11.754  -8.266  16.488  0.00  0.00    -0.030 A 
ATOM     22  C   UNL     1     -11.087  -7.053  16.662  0.00  0.00    +0.008 A 
ATOM     23  C   UNL     1     -12.805  -8.360  15.575  0.00  0.00    +0.008 A 
ATOM     27  C   UNL     1     -11.471  -5.934  15.921  0.00  0.00    +0.038 A 
ATOM     28  C   UNL     1     -13.189  -7.241  14.836  0.00  0.00    +0.038 A 
ATOM     31  C   UNL     1     -12.522  -6.029  15.008  0.00  0.00    +0.123 A 
ENDBRANCH   9  17
BRANCH  13  20
ATOM      4  O   UNL     1      -9.050 -11.962  15.458  0.00  0.00    -0.249 OA
ATOM     20  C   UNL     1      -9.501 -10.837  15.286  0.00  0.00    +0.325 C 
BRANCH  20   3
ATOM      3  O   UNL     1     -10.400 -10.462  14.332  0.00  0.00    -0.467 OA
ATOM     32  C   UNL     1      -9.931  -9.493  13.390  0.00  0.00    +0.280 C 
ENDBRANCH  20   3
ENDBRANCH  13  20
BRANCH  11   7
ATOM      7  N   UNL     1     -12.192 -10.384  20.933  0.00  0.00    -0.309 NA
ATOM     37  H   UNL     1     -11.489 -10.636  21.628  0.00  0.00    +0.123 HD
BRANCH   7  21
ATOM     21  C   UNL     1     -13.354 -11.239  21.118  0.00  0.00    +0.123 C 
BRANCH  21  29
ATOM      1  S   UNL     1     -15.950 -11.118  22.107  0.00  0.00    -0.100 S 
ATOM     29  C   UNL     1     -14.620 -10.438  21.272  0.00  0.00    +0.004 A 
ATOM     33  C   UNL     1     -14.891  -9.166  20.817  0.00  0.00    +0.012 A 
ATOM     34  C   UNL     1     -16.208  -8.745  21.159  0.00  0.00    +0.008 A 
ATOM     35  C   UNL     1     -16.894  -9.711  21.862  0.00  0.00    +0.045 A 
ENDBRANCH  21  29
ENDBRANCH   7  21
ENDBRANCH  11   7
TORSDOF 6
ENDMDL
MODEL 5
REMARK VINA RESULT:      -7.0     14.660     18.699
REMARK  Name = 28991371
REMARK  7 active torsions:
REMARK  status: ('A' for Active; 'I' for Inactive)
REMARK    1  A    between atoms: O_3  and  C_20
REMARK    2  A    between atoms: O_3  and  C_32
REMARK    3  A    between atoms: N_7  and  C_11
REMARK    4  A    between atoms: N_7  and  C_21
REMARK    5  A    between atoms: C_9  and  C_17
REMARK    6  A    between atoms: C_13  and  C_20
REMARK    7  A    between atoms: C_21  and  C_29
REMARK                            x       y       z     vdW  Elec       q    Type
REMARK                         _______ _______ _______ _____ _____    ______ ____
ROOT
ATOM      5  N   UNL     1       9.683   6.553   4.337  0.00  0.00    -0.274 NA
ATOM      6  N   UNL     1       9.691   7.023   0.610  0.00  0.00    -0.356 N 
ATOM      8  C   UNL     1       9.594   7.438   3.135  0.00  0.00    +0.106 C 
ATOM      9  C   UNL     1       9.396   7.291   5.592  0.00  0.00    +0.090 C 
ATOM     10  C   UNL     1       8.201   8.081   3.035  0.00  0.00    +0.044 C 
ATOM     11  C   UNL     1       7.894   8.890   4.294  0.00  0.00    +0.058 C 
ATOM     12  C   UNL     1       8.017   7.991   5.524  0.00  0.00    +0.042 C 
ATOM     13  C   UNL     1      10.927   5.735   4.363  0.00  0.00    +0.172 C 
ATOM     14  C   UNL     1       9.930   6.651   1.904  0.00  0.00    +0.038 A 
ATOM     15  C   UNL     1      11.039   4.784   3.145  0.00  0.00    +0.068 C 
ATOM     16  C   UNL     1      10.604   5.450   1.886  0.00  0.00    -0.016 A 
ATOM     18  C   UNL     1      10.751   5.054   0.529  0.00  0.00    +0.003 A 
ATOM     19  C   UNL     1      10.169   6.059  -0.251  0.00  0.00    +0.047 A 
ATOM     24  C   UNL     1      11.327   3.942  -0.118  0.00  0.00    +0.010 A 
ATOM     25  C   UNL     1      10.133   6.002  -1.649  0.00  0.00    +0.026 A 
ATOM     26  C   UNL     1      11.297   3.873  -1.516  0.00  0.00    +0.001 A 
ATOM     30  C   UNL     1      10.708   4.889  -2.268  0.00  0.00    +0.002 A 
ATOM     36  H   UNL     1       9.230   7.875   0.320  0.00  0.00    +0.166 HD
ENDROOT
BRANCH   9  17
ATOM      2  F   UNL     1       9.447   4.059  10.234  0.00  0.00    -0.205 F 
ATOM     17  C   UNL     1       9.410   6.419   6.846  0.00  0.00    -0.030 A 
ATOM     22  C   UNL     1       9.724   5.063   6.747  0.00  0.00    +0.008 A 
ATOM     23  C   UNL     1       9.109   6.977   8.088  0.00  0.00    +0.008 A 
ATOM     27  C   UNL     1       9.737   4.266   7.892  0.00  0.00    +0.038 A 
ATOM     28  C   UNL     1       9.121   6.179   9.232  0.00  0.00    +0.038 A 
ATOM     31  C   UNL     1       9.435   4.825   9.134  0.00  0.00    +0.123 A 
ENDBRANCH   9  17
BRANCH  13  20
ATOM      4  O   UNL     1      12.692   7.137   3.506  0.00  0.00    -0.249 OA
ATOM     20  C   UNL     1      12.136   6.621   4.466  0.00  0.00    +0.325 C 
BRANCH  20   3
ATOM      3  O   UNL     1      12.497   6.749   5.775  0.00  0.00    -0.467 OA
ATOM     32  C   UNL     1      13.077   8.007   6.132  0.00  0.00    +0.280 C 
ENDBRANCH  20   3
ENDBRANCH  13  20
BRANCH  11   7
ATOM      7  N   UNL     1       6.555   9.470   4.205  0.00  0.00    -0.309 NA
ATOM     37  H   UNL     1       5.891   8.745   3.933  0.00  0.00    +0.123 HD
BRANCH   7  21
ATOM     21  C   UNL     1       6.518  10.530   3.209  0.00  0.00    +0.123 C 
BRANCH  21  29
ATOM      1  S   UNL     1       3.908  11.137   2.465  0.00  0.00    -0.100 S 
ATOM     29  C   UNL     1       5.399  10.331   2.221  0.00  0.00    +0.004 A 
ATOM     33  C   UNL     1       5.386   9.555   1.083  0.00  0.00    +0.012 A 
ATOM     34  C   UNL     1       4.137   9.623   0.403  0.00  0.00    +0.008 A 
ATOM     35  C   UNL     1       3.241  10.449   1.047  0.00  0.00    +0.045 A 
ENDBRANCH  21  29
ENDBRANCH   7  21
ENDBRANCH  11   7
TORSDOF 6
ENDMDL
MODEL 6
REMARK VINA RESULT:      -7.0     29.048     32.713
REMARK  Name = 28991371
REMARK  7 active torsions:
REMARK  status: ('A' for Active; 'I' for Inactive)
REMARK    1  A    between atoms: O_3  and  C_20
REMARK    2  A    between atoms: O_3  and  C_32
REMARK    3  A    between atoms: N_7  and  C_11
REMARK    4  A    between atoms: N_7  and  C_21
REMARK    5  A    between atoms: C_9  and  C_17
REMARK    6  A    between atoms: C_13  and  C_20
REMARK    7  A    between atoms: C_21  and  C_29
REMARK                            x       y       z     vdW  Elec       q    Type
REMARK                         _______ _______ _______ _____ _____    ______ ____
ROOT
ATOM      5  N   UNL     1     -10.000  -9.696  17.497  0.00  0.00    -0.274 NA
ATOM      6  N   UNL     1      -7.392 -11.757  19.245  0.00  0.00    -0.356 N 
ATOM      8  C   UNL     1      -9.617 -10.865  18.346  0.00  0.00    +0.106 C 
ATOM      9  C   UNL     1     -11.473  -9.535  17.405  0.00  0.00    +0.090 C 
ATOM     10  C   UNL     1     -10.198 -10.723  19.762  0.00  0.00    +0.044 C 
ATOM     11  C   UNL     1     -11.721 -10.604  19.705  0.00  0.00    +0.058 C 
ATOM     12  C   UNL     1     -12.110  -9.427  18.811  0.00  0.00    +0.042 C 
ATOM     13  C   UNL     1      -9.285  -9.669  16.191  0.00  0.00    +0.172 C 
ATOM     14  C   UNL     1      -8.124 -11.001  18.372  0.00  0.00    +0.038 A 
ATOM     15  C   UNL     1      -7.748  -9.570  16.357  0.00  0.00    +0.068 C 
ATOM     16  C   UNL     1      -7.257 -10.435  17.465  0.00  0.00    -0.016 A 
ATOM     18  C   UNL     1      -5.938 -10.831  17.817  0.00  0.00    +0.003 A 
ATOM     19  C   UNL     1      -6.051 -11.660  18.938  0.00  0.00    +0.047 A 
ATOM     24  C   UNL     1      -4.656 -10.572  17.292  0.00  0.00    +0.010 A 
ATOM     25  C   UNL     1      -4.940 -12.240  19.561  0.00  0.00    +0.026 A 
ATOM     26  C   UNL     1      -3.537 -11.146  17.907  0.00  0.00    +0.001 A 
ATOM     30  C   UNL     1      -3.680 -11.967  19.024  0.00  0.00    +0.002 A 
ATOM     36  H   UNL     1      -7.768 -12.306  20.006  0.00  0.00    +0.166 HD
ENDROOT
BRANCH   9  17
ATOM      2  F   UNL     1     -13.120  -5.017  14.428  0.00  0.00    -0.205 F 
ATOM     17  C   UNL     1     -11.918  -8.315  16.601  0.00  0.00    -0.030 A 
ATOM     22  C   UNL     1     -11.194  -7.126  16.683  0.00  0.00    +0.008 A 
ATOM     23  C   UNL     1     -13.047  -8.391  15.786  0.00  0.00    +0.008 A 
ATOM     27  C   UNL     1     -11.600  -6.011  15.949  0.00  0.00    +0.038 A 
ATOM     28  C   UNL     1     -13.454  -7.276  15.053  0.00  0.00    +0.038 A 
ATOM     31  C   UNL     1     -12.730  -6.087  15.134  0.00  0.00    +0.123 A 
ENDBRANCH   9  17
BRANCH  13  20
ATOM      4  O   UNL     1      -9.192 -11.985  15.524  0.00  0.00    -0.249 OA
ATOM     20  C   UNL     1      -9.660 -10.866  15.363  0.00  0.00    +0.325 C 
BRANCH  20   3
ATOM      3  O   UNL     1     -10.585 -10.502  14.429  0.00  0.00    -0.467 OA
ATOM     32  C   UNL     1     -10.175  -9.469  13.528  0.00  0.00    +0.280 C 
ENDBRANCH  20   3
ENDBRANCH  13  20
BRANCH  11   7
ATOM      7  N   UNL     1     -12.262 -10.436  21.053  0.00  0.00    -0.309 NA
ATOM     37  H   UNL     1     -11.558 -10.715  21.736  0.00  0.00    +0.123 HD
BRANCH   7  21
ATOM     21  C   UNL     1     -13.443 -11.264  21.241  0.00  0.00    +0.123 C 
BRANCH  21  29
ATOM      1  S   UNL     1     -12.152 -13.618  21.965  0.00  0.00    -0.100 S 
ATOM     29  C   UNL     1     -13.224 -12.323  22.289  0.00  0.00    +0.004 A 
ATOM     33  C   UNL     1     -13.787 -12.419  23.542  0.00  0.00    +0.012 A 
ATOM     34  C   UNL     1     -13.331 -13.570  24.247  0.00  0.00    +0.008 A 
ATOM     35  C   UNL     1     -12.438 -14.311  23.504  0.00  0.00    +0.045 A 
ENDBRANCH  21  29
ENDBRANCH   7  21
ENDBRANCH  11   7
TORSDOF 6
ENDMDL
MODEL 7
REMARK VINA RESULT:      -6.9     15.530     19.633
REMARK  Name = 28991371
REMARK  7 active torsions:
REMARK  status: ('A' for Active; 'I' for Inactive)
REMARK    1  A    between atoms: O_3  and  C_20
REMARK    2  A    between atoms: O_3  and  C_32
REMARK    3  A    between atoms: N_7  and  C_11
REMARK    4  A    between atoms: N_7  and  C_21
REMARK    5  A    between atoms: C_9  and  C_17
REMARK    6  A    between atoms: C_13  and  C_20
REMARK    7  A    between atoms: C_21  and  C_29
REMARK                            x       y       z     vdW  Elec       q    Type
REMARK                         _______ _______ _______ _____ _____    ______ ____
ROOT
ATOM      5  N   UNL     1      17.004  -7.166  25.877  0.00  0.00    -0.274 NA
ATOM      6  N   UNL     1      17.761  -3.501  26.200  0.00  0.00    -0.356 N 
ATOM      8  C   UNL     1      17.623  -6.023  26.617  0.00  0.00    +0.106 C 
ATOM      9  C   UNL     1      17.073  -8.431  26.651  0.00  0.00    +0.090 C 
ATOM     10  C   UNL     1      16.936  -5.820  27.977  0.00  0.00    +0.044 C 
ATOM     11  C   UNL     1      17.032  -7.092  28.820  0.00  0.00    +0.058 C 
ATOM     12  C   UNL     1      16.427  -8.264  28.048  0.00  0.00    +0.042 C 
ATOM     13  C   UNL     1      17.478  -7.269  24.469  0.00  0.00    +0.172 C 
ATOM     14  C   UNL     1      17.560  -4.784  25.775  0.00  0.00    +0.038 A 
ATOM     15  C   UNL     1      17.138  -6.007  23.635  0.00  0.00    +0.068 C 
ATOM     16  C   UNL     1      17.359  -4.757  24.412  0.00  0.00    -0.016 A 
ATOM     18  C   UNL     1      17.402  -3.400  23.993  0.00  0.00    +0.003 A 
ATOM     19  C   UNL     1      17.655  -2.633  25.135  0.00  0.00    +0.047 A 
ATOM     24  C   UNL     1      17.257  -2.744  22.754  0.00  0.00    +0.010 A 
ATOM     25  C   UNL     1      17.767  -1.238  25.096  0.00  0.00    +0.026 A 
ATOM     26  C   UNL     1      17.365  -1.350  22.702  0.00  0.00    +0.001 A 
ATOM     30  C   UNL     1      17.617  -0.610  23.857  0.00  0.00    +0.002 A 
ATOM     36  H   UNL     1      17.955  -3.222  27.152  0.00  0.00    +0.166 HD
ENDROOT
BRANCH   9  17
ATOM      2  F   UNL     1      14.566 -12.824  24.120  0.00  0.00    -0.205 F 
ATOM     17  C   UNL     1      16.396  -9.617  25.968  0.00  0.00    -0.030 A 
ATOM     22  C   UNL     1      15.058  -9.530  25.585  0.00  0.00    +0.008 A 
ATOM     23  C   UNL     1      17.116 -10.787  25.726  0.00  0.00    +0.008 A 
ATOM     27  C   UNL     1      14.439 -10.613  24.961  0.00  0.00    +0.038 A 
ATOM     28  C   UNL     1      16.497 -11.870  25.103  0.00  0.00    +0.038 A 
ATOM     31  C   UNL     1      15.159 -11.784  24.720  0.00  0.00    +0.123 A 
ENDBRANCH   9  17
BRANCH  13  20
ATOM      4  O   UNL     1      19.548  -8.194  25.288  0.00  0.00    -0.249 OA
ATOM     20  C   UNL     1      18.951  -7.558  24.430  0.00  0.00    +0.325 C 
BRANCH  20   3
ATOM      3  O   UNL     1      19.494  -7.007  23.307  0.00  0.00    -0.467 OA
ATOM     32  C   UNL     1      20.819  -7.444  22.987  0.00  0.00    +0.280 C 
ENDBRANCH  20   3
ENDBRANCH  13  20
BRANCH  11   7
ATOM      7  N   UNL     1      16.347  -6.900  30.097  0.00  0.00    -0.309 NA
ATOM     37  H   UNL     1      15.666  -7.649  30.230  0.00  0.00    +0.123 HD
BRANCH   7  21
ATOM     21  C   UNL     1      15.646  -5.627  30.120  0.00  0.00    +0.123 C 
BRANCH  21  29
ATOM      1  S   UNL     1      13.767  -4.841  32.015  0.00  0.00    -0.100 S 
ATOM     29  C   UNL     1      14.246  -5.767  30.656  0.00  0.00    +0.004 A 
ATOM     33  C   UNL     1      13.228  -6.575  30.198  0.00  0.00    +0.012 A 
ATOM     34  C   UNL     1      12.041  -6.431  30.971  0.00  0.00    +0.008 A 
ATOM     35  C   UNL     1      12.195  -5.519  31.992  0.00  0.00    +0.045 A 
ENDBRANCH  21  29
ENDBRANCH   7  21
ENDBRANCH  11   7
TORSDOF 6
ENDMDL
MODEL 8
REMARK VINA RESULT:      -6.8      7.699     11.705
REMARK  Name = 28991371
REMARK  7 active torsions:
REMARK  status: ('A' for Active; 'I' for Inactive)
REMARK    1  A    between atoms: O_3  and  C_20
REMARK    2  A    between atoms: O_3  and  C_32
REMARK    3  A    between atoms: N_7  and  C_11
REMARK    4  A    between atoms: N_7  and  C_21
REMARK    5  A    between atoms: C_9  and  C_17
REMARK    6  A    between atoms: C_13  and  C_20
REMARK    7  A    between atoms: C_21  and  C_29
REMARK                            x       y       z     vdW  Elec       q    Type
REMARK                         _______ _______ _______ _____ _____    ______ ____
ROOT
ATOM      5  N   UNL     1      21.562   5.286  22.699  0.00  0.00    -0.274 NA
ATOM      6  N   UNL     1      18.730   7.649  21.990  0.00  0.00    -0.356 N 
ATOM      8  C   UNL     1      20.936   6.639  22.808  0.00  0.00    +0.106 C 
ATOM      9  C   UNL     1      22.803   5.181  23.508  0.00  0.00    +0.090 C 
ATOM     10  C   UNL     1      20.611   6.971  24.274  0.00  0.00    +0.044 C 
ATOM     11  C   UNL     1      21.879   6.920  25.127  0.00  0.00    +0.058 C 
ATOM     12  C   UNL     1      22.535   5.546  24.988  0.00  0.00    +0.042 C 
ATOM     13  C   UNL     1      21.695   4.821  21.290  0.00  0.00    +0.172 C 
ATOM     14  C   UNL     1      19.713   6.699  21.943  0.00  0.00    +0.038 A 
ATOM     15  C   UNL     1      20.325   4.698  20.575  0.00  0.00    +0.068 C 
ATOM     16  C   UNL     1      19.426   5.836  20.909  0.00  0.00    -0.016 A 
ATOM     18  C   UNL     1      18.201   6.253  20.323  0.00  0.00    +0.003 A 
ATOM     19  C   UNL     1      17.785   7.392  21.020  0.00  0.00    +0.047 A 
ATOM     24  C   UNL     1      17.402   5.779  19.262  0.00  0.00    +0.010 A 
ATOM     25  C   UNL     1      16.606   8.078  20.708  0.00  0.00    +0.026 A 
ATOM     26  C   UNL     1      16.220   6.455  18.941  0.00  0.00    +0.001 A 
ATOM     30  C   UNL     1      15.830   7.588  19.655  0.00  0.00    +0.002 A 
ATOM     36  H   UNL     1      18.693   8.424  22.637  0.00  0.00    +0.166 HD
ENDROOT
BRANCH   9  17
ATOM      2  F   UNL     1      25.195   0.057  23.417  0.00  0.00    -0.205 F 
ATOM     17  C   UNL     1      23.449   3.798  23.483  0.00  0.00    -0.030 A 
ATOM     22  C   UNL     1      24.773   3.654  23.070  0.00  0.00    +0.008 A 
ATOM     23  C   UNL     1      22.714   2.678  23.874  0.00  0.00    +0.008 A 
ATOM     27  C   UNL     1      25.364   2.390  23.047  0.00  0.00    +0.038 A 
ATOM     28  C   UNL     1      23.305   1.414  23.850  0.00  0.00    +0.038 A 
ATOM     31  C   UNL     1      24.628   1.270  23.438  0.00  0.00    +0.123 A 
ENDBRANCH   9  17
BRANCH  13  20
ATOM      4  O   UNL     1      22.382   6.893  20.266  0.00  0.00    -0.249 OA
ATOM     20  C   UNL     1      22.622   5.721  20.525  0.00  0.00    +0.325 C 
BRANCH  20   3
ATOM      3  O   UNL     1      23.745   5.029  20.178  0.00  0.00    -0.467 OA
ATOM     32  C   UNL     1      24.961   5.783  20.192  0.00  0.00    +0.280 C 
ENDBRANCH  20   3
ENDBRANCH  13  20
BRANCH  11   7
ATOM      7  N   UNL     1      21.556   7.204  26.524  0.00  0.00    -0.309 NA
ATOM     37  H   UNL     1      22.382   7.041  27.101  0.00  0.00    +0.123 HD
BRANCH   7  21
ATOM     21  C   UNL     1      20.486   6.337  26.992  0.00  0.00    +0.123 C 
BRANCH  21  29
ATOM      1  S   UNL     1      19.880   6.238  29.704  0.00  0.00    -0.100 S 
ATOM     29  C   UNL     1      20.793   5.746  28.342  0.00  0.00    +0.004 A 
ATOM     33  C   UNL     1      21.754   4.815  28.673  0.00  0.00    +0.012 A 
ATOM     34  C   UNL     1      21.739   4.502  30.062  0.00  0.00    +0.008 A 
ATOM     35  C   UNL     1      20.769   5.205  30.741  0.00  0.00    +0.045 A 
ENDBRANCH  21  29
ENDBRANCH   7  21
ENDBRANCH  11   7
TORSDOF 6
ENDMDL
MODEL 9
REMARK VINA RESULT:      -6.6      7.218     11.086
REMARK  Name = 28991371
REMARK  7 active torsions:
REMARK  status: ('A' for Active; 'I' for Inactive)
REMARK    1  A    between atoms: O_3  and  C_20
REMARK    2  A    between atoms: O_3  and  C_32
REMARK    3  A    between atoms: N_7  and  C_11
REMARK    4  A    between atoms: N_7  and  C_21
REMARK    5  A    between atoms: C_9  and  C_17
REMARK    6  A    between atoms: C_13  and  C_20
REMARK    7  A    between atoms: C_21  and  C_29
REMARK                            x       y       z     vdW  Elec       q    Type
REMARK                         _______ _______ _______ _____ _____    ______ ____
ROOT
ATOM      5  N   UNL     1      21.557   5.269  22.716  0.00  0.00    -0.274 NA
ATOM      6  N   UNL     1      18.728   7.646  22.047  0.00  0.00    -0.356 N 
ATOM      8  C   UNL     1      20.932   6.621  22.848  0.00  0.00    +0.106 C 
ATOM      9  C   UNL     1      22.798   5.149  23.523  0.00  0.00    +0.090 C 
ATOM     10  C   UNL     1      20.609   6.929  24.319  0.00  0.00    +0.044 C 
ATOM     11  C   UNL     1      21.876   6.862  25.171  0.00  0.00    +0.058 C 
ATOM     12  C   UNL     1      22.530   5.490  25.009  0.00  0.00    +0.042 C 
ATOM     13  C   UNL     1      21.689   4.827  21.300  0.00  0.00    +0.172 C 
ATOM     14  C   UNL     1      19.709   6.696  21.985  0.00  0.00    +0.038 A 
ATOM     15  C   UNL     1      20.319   4.717  20.583  0.00  0.00    +0.068 C 
ATOM     16  C   UNL     1      19.421   5.851  20.937  0.00  0.00    -0.016 A 
ATOM     18  C   UNL     1      18.196   6.278  20.357  0.00  0.00    +0.003 A 
ATOM     19  C   UNL     1      17.782   7.406  21.073  0.00  0.00    +0.047 A 
ATOM     24  C   UNL     1      17.396   5.823  19.289  0.00  0.00    +0.010 A 
ATOM     25  C   UNL     1      16.603   8.099  20.773  0.00  0.00    +0.026 A 
ATOM     26  C   UNL     1      16.215   6.506  18.980  0.00  0.00    +0.001 A 
ATOM     30  C   UNL     1      15.826   7.627  19.712  0.00  0.00    +0.002 A 
ATOM     36  H   UNL     1      18.692   8.411  22.707  0.00  0.00    +0.166 HD
ENDROOT
BRANCH   9  17
ATOM      2  F   UNL     1      25.182   0.023  23.346  0.00  0.00    -0.205 F 
ATOM     17  C   UNL     1      23.442   3.765  23.475  0.00  0.00    -0.030 A 
ATOM     22  C   UNL     1      22.706   2.642  23.852  0.00  0.00    +0.008 A 
ATOM     23  C   UNL     1      24.765   3.625  23.055  0.00  0.00    +0.008 A 
ATOM     27  C   UNL     1      23.294   1.377  23.808  0.00  0.00    +0.038 A 
ATOM     28  C   UNL     1      25.352   2.361  23.013  0.00  0.00    +0.038 A 
ATOM     31  C   UNL     1      24.618   1.237  23.388  0.00  0.00    +0.123 A 
ENDBRANCH   9  17
BRANCH  13  20
ATOM      4  O   UNL     1      22.379   6.915  20.311  0.00  0.00    -0.249 OA
ATOM     20  C   UNL     1      22.617   5.738  20.549  0.00  0.00    +0.325 C 
BRANCH  20   3
ATOM      3  O   UNL     1      23.738   5.050  20.189  0.00  0.00    -0.467 OA
ATOM     32  C   UNL     1      24.953   5.806  20.199  0.00  0.00    +0.280 C 
ENDBRANCH  20   3
ENDBRANCH  13  20
BRANCH  11   7
ATOM      7  N   UNL     1      21.554   7.124  26.573  0.00  0.00    -0.309 NA
ATOM     37  H   UNL     1      21.742   6.286  27.124  0.00  0.00    +0.123 HD
BRANCH   7  21
ATOM     21  C   UNL     1      20.149   7.470  26.722  0.00  0.00    +0.123 C 
BRANCH  21  29
ATOM      1  S   UNL     1      20.300  10.246  26.628  0.00  0.00    -0.100 S 
ATOM     29  C   UNL     1      19.969   8.778  27.446  0.00  0.00    +0.004 A 
ATOM     33  C   UNL     1      19.555   8.992  28.742  0.00  0.00    +0.012 A 
ATOM     34  C   UNL     1      19.508  10.377  29.068  0.00  0.00    +0.008 A 
ATOM     35  C   UNL     1      19.889  11.171  28.008  0.00  0.00    +0.045 A 
ENDBRANCH  21  29
ENDBRANCH   7  21
ENDBRANCH  11   7
TORSDOF 6
ENDMDL
MODEL 10
REMARK VINA RESULT:      -6.5     13.301     17.239
REMARK  Name = 28991371
REMARK  7 active torsions:
REMARK  status: ('A' for Active; 'I' for Inactive)
REMARK    1  A    between atoms: O_3  and  C_20
REMARK    2  A    between atoms: O_3  and  C_32
REMARK    3  A    between atoms: N_7  and  C_11
REMARK    4  A    between atoms: N_7  and  C_21
REMARK    5  A    between atoms: C_9  and  C_17
REMARK    6  A    between atoms: C_13  and  C_20
REMARK    7  A    between atoms: C_21  and  C_29
REMARK                            x       y       z     vdW  Elec       q    Type
REMARK                         _______ _______ _______ _____ _____    ______ ____
ROOT
ATOM      5  N   UNL     1      20.524  -3.235  24.988  0.00  0.00    -0.274 NA
ATOM      6  N   UNL     1      24.128  -4.061  25.654  0.00  0.00    -0.356 N 
ATOM      8  C   UNL     1      21.772  -3.069  25.796  0.00  0.00    +0.106 C 
ATOM      9  C   UNL     1      19.462  -2.286  25.405  0.00  0.00    +0.090 C 
ATOM     10  C   UNL     1      22.306  -1.632  25.682  0.00  0.00    +0.044 C 
ATOM     11  C   UNL     1      21.251  -0.630  26.151  0.00  0.00    +0.058 C 
ATOM     12  C   UNL     1      19.967  -0.824  25.345  0.00  0.00    +0.042 C 
ATOM     13  C   UNL     1      20.087  -4.655  24.883  0.00  0.00    +0.172 C 
ATOM     14  C   UNL     1      22.793  -4.076  25.359  0.00  0.00    +0.038 A 
ATOM     15  C   UNL     1      21.145  -5.553  24.193  0.00  0.00    +0.068 C 
ATOM     16  C   UNL     1      22.525  -5.223  24.644  0.00  0.00    -0.016 A 
ATOM     18  C   UNL     1      23.751  -5.919  24.464  0.00  0.00    +0.003 A 
ATOM     19  C   UNL     1      24.741  -5.167  25.106  0.00  0.00    +0.047 A 
ATOM     24  C   UNL     1      24.120  -7.118  23.822  0.00  0.00    +0.010 A 
ATOM     25  C   UNL     1      26.084  -5.558  25.135  0.00  0.00    +0.026 A 
ATOM     26  C   UNL     1      25.461  -7.519  23.842  0.00  0.00    +0.001 A 
ATOM     30  C   UNL     1      26.427  -6.749  24.489  0.00  0.00    +0.002 A 
ATOM     36  H   UNL     1      24.602  -3.347  26.189  0.00  0.00    +0.166 HD
ENDROOT
BRANCH   9  17
ATOM      2  F   UNL     1      14.743  -2.595  22.303  0.00  0.00    -0.205 F 
ATOM     17  C   UNL     1      18.187  -2.369  24.568  0.00  0.00    -0.030 A 
ATOM     22  C   UNL     1      18.196  -1.937  23.242  0.00  0.00    +0.008 A 
ATOM     23  C   UNL     1      17.016  -2.878  25.129  0.00  0.00    +0.008 A 
ATOM     27  C   UNL     1      17.032  -2.013  22.476  0.00  0.00    +0.038 A 
ATOM     28  C   UNL     1      15.852  -2.952  24.364  0.00  0.00    +0.038 A 
ATOM     31  C   UNL     1      15.860  -2.521  23.038  0.00  0.00    +0.123 A 
ENDBRANCH   9  17
BRANCH  13  20
ATOM      4  O   UNL     1      19.491  -4.496  27.214  0.00  0.00    -0.249 OA
ATOM     20  C   UNL     1      19.725  -5.195  26.237  0.00  0.00    +0.325 C 
BRANCH  20   3
ATOM      3  O   UNL     1      19.701  -6.558  26.193  0.00  0.00    -0.467 OA
ATOM     32  C   UNL     1      18.400  -7.149  26.143  0.00  0.00    +0.280 C 
ENDBRANCH  20   3
ENDBRANCH  13  20
BRANCH  11   7
ATOM      7  N   UNL     1      21.756   0.734  26.008  0.00  0.00    -0.309 NA
ATOM     37  H   UNL     1      21.181   1.236  25.330  0.00  0.00    +0.123 HD
BRANCH   7  21
ATOM     21  C   UNL     1      23.131   0.728  25.534  0.00  0.00    +0.123 C 
BRANCH  21  29
ATOM      1  S   UNL     1      24.488   1.009  23.123  0.00  0.00    -0.100 S 
ATOM     29  C   UNL     1      23.282   1.485  24.241  0.00  0.00    +0.004 A 
ATOM     33  C   UNL     1      22.558   2.567  23.791  0.00  0.00    +0.012 A 
ATOM     34  C   UNL     1      22.999   3.010  22.511  0.00  0.00    +0.008 A 
ATOM     35  C   UNL     1      24.044   2.251  22.032  0.00  0.00    +0.045 A 
ENDBRANCH  21  29
ENDBRANCH   7  21
ENDBRANCH  11   7
TORSDOF 6
ENDMDL
