MODEL 1
REMARK VINA RESULT:      -5.9      0.000      0.000
REMARK  Name = 7127938
REMARK  12 active torsions:
REMARK  status: ('A' for Active; 'I' for Inactive)
REMARK    1  A    between atoms: S_1  and  C_20
REMARK    2  A    between atoms: S_1  and  C_26
REMARK    3  A    between atoms: O_7  and  C_34
REMARK    4  A    between atoms: O_7  and  C_35
REMARK    5  A    between atoms: N_9  and  C_13
REMARK    6  A    between atoms: N_10  and  C_19
REMARK    7  A    between atoms: N_11  and  C_25
REMARK    8  A    between atoms: C_14  and  C_17
REMARK    9  A    between atoms: C_18  and  C_20
REMARK   10  A    between atoms: C_19  and  C_22
REMARK   11  A    between atoms: C_19  and  C_23
REMARK   12  A    between atoms: C_22  and  C_24
REMARK                            x       y       z     vdW  Elec       q    Type
REMARK                         _______ _______ _______ _____ _____    ______ ____
ROOT
ATOM      4  O   UNL     1       9.283   6.357  -3.024  0.00  0.00    -0.275 OA
ATOM      8  N   UNL     1       9.377   7.509  -1.018  0.00  0.00    -0.287 N 
ATOM     13  C   UNL     1       9.790   8.414   1.139  0.00  0.00    +0.094 C 
ATOM     14  C   UNL     1      10.716   7.074  -0.645  0.00  0.00    +0.164 C 
ATOM     15  C   UNL     1      11.119   7.981   0.516  0.00  0.00    +0.055 C 
ATOM     16  C   UNL     1       8.839   8.468  -0.053  0.00  0.00    +0.131 C 
ATOM     18  C   UNL     1       8.801   7.170  -2.233  0.00  0.00    +0.226 C 
ENDROOT
BRANCH  13   9
ATOM      5  O   UNL     1      10.434   8.461   3.931  0.00  0.00    -0.253 OA
ATOM      9  N   UNL     1       9.338   7.484   2.143  0.00  0.00    -0.295 N 
ATOM     11  N   UNL     1       9.115   6.541   4.228  0.00  0.00    -0.269 N 
ATOM     21  C   UNL     1       9.701   7.576   3.493  0.00  0.00    +0.304 C 
ATOM     36  H   UNL     1       8.782   6.687   1.849  0.00  0.00    +0.151 HD
ATOM     38  H   UNL     1       8.531   5.888   3.711  0.00  0.00    +0.156 HD
BRANCH  11  25
ATOM     25  C   UNL     1       9.234   6.284   5.613  0.00  0.00    +0.035 A 
ATOM     28  C   UNL     1       9.823   5.100   6.055  0.00  0.00    +0.027 A 
ATOM     29  C   UNL     1       8.762   7.217   6.538  0.00  0.00    +0.027 A 
ATOM     32  C   UNL     1       9.941   4.848   7.423  0.00  0.00    +0.047 A 
ATOM     33  C   UNL     1       8.880   6.964   7.905  0.00  0.00    +0.047 A 
ATOM     34  C   UNL     1       9.469   5.780   8.347  0.00  0.00    +0.120 A 
BRANCH  34   7
ATOM      7  O   UNL     1       9.586   5.535   9.681  0.00  0.00    -0.495 OA
ATOM     35  C   UNL     1       8.955   4.357  10.183  0.00  0.00    +0.277 C 
ENDBRANCH  34   7
ENDBRANCH  11  25
ENDBRANCH  13   9
BRANCH  14  17
ATOM      3  O   UNL     1       9.588   5.075   0.013  0.00  0.00    -0.274 OA
ATOM     10  N   UNL     1      11.912   5.066  -0.126  0.00  0.00    -0.302 N 
ATOM     17  C   UNL     1      10.655   5.636  -0.225  0.00  0.00    +0.234 C 
ATOM     37  H   UNL     1      12.730   5.637  -0.318  0.00  0.00    +0.150 HD
BRANCH  10  19
ATOM     19  C   UNL     1      12.130   3.697   0.283  0.00  0.00    +0.163 C 
BRANCH  19  23
ATOM      6  O   UNL     1      14.033   3.152   1.693  0.00  0.00    -0.274 OA
ATOM     12  N   UNL     1      12.409   4.547   2.528  0.00  0.00    -0.328 N 
ATOM     23  C   UNL     1      12.961   3.738   1.557  0.00  0.00    +0.231 C 
ATOM     39  H   UNL     1      12.871   4.674   3.423  0.00  0.00    +0.145 HD
ATOM     40  H   UNL     1      11.524   5.028   2.402  0.00  0.00    +0.145 HD
ENDBRANCH  19  23
BRANCH  19  22
ATOM     22  C   UNL     1      12.844   2.874  -0.796  0.00  0.00    +0.074 C 
BRANCH  22  24
ATOM      2  S   UNL     1      13.009   3.781  -3.425  0.00  0.00    -0.102 S 
ATOM     24  C   UNL     1      12.179   2.999  -2.147  0.00  0.00    -0.008 A 
ATOM     27  C   UNL     1      10.933   2.559  -2.533  0.00  0.00    +0.011 A 
ATOM     30  C   UNL     1      10.656   2.865  -3.897  0.00  0.00    +0.008 A 
ATOM     31  C   UNL     1      11.700   3.529  -4.500  0.00  0.00    +0.045 A 
ENDBRANCH  22  24
ENDBRANCH  19  22
ENDBRANCH  10  19
ENDBRANCH  14  17
BRANCH  18  20
ATOM     20  C   UNL     1       7.498   7.859  -2.550  0.00  0.00    +0.164 C 
BRANCH  20   1
ATOM      1  S   UNL     1       6.457   6.684  -3.428  0.00  0.00    -0.155 S 
ATOM     26  C   UNL     1       6.519   7.432  -5.075  0.00  0.00    +0.085 C 
ENDBRANCH  20   1
ENDBRANCH  18  20
TORSDOF 10
ENDMDL
MODEL 2
REMARK VINA RESULT:      -5.9     33.940     39.431
REMARK  Name = 7127938
REMARK  12 active torsions:
REMARK  status: ('A' for Active; 'I' for Inactive)
REMARK    1  A    between atoms: S_1  and  C_20
REMARK    2  A    between atoms: S_1  and  C_26
REMARK    3  A    between atoms: O_7  and  C_34
REMARK    4  A    between atoms: O_7  and  C_35
REMARK    5  A    between atoms: N_9  and  C_13
REMARK    6  A    between atoms: N_10  and  C_19
REMARK    7  A    between atoms: N_11  and  C_25
REMARK    8  A    between atoms: C_14  and  C_17
REMARK    9  A    between atoms: C_18  and  C_20
REMARK   10  A    between atoms: C_19  and  C_22
REMARK   11  A    between atoms: C_19  and  C_23
REMARK   12  A    between atoms: C_22  and  C_24
REMARK                            x       y       z     vdW  Elec       q    Type
REMARK                         _______ _______ _______ _____ _____    ______ ____
ROOT
ATOM      4  O   UNL     1     -12.398   7.119  36.602  0.00  0.00    -0.275 OA
ATOM      8  N   UNL     1     -12.255   8.900  35.130  0.00  0.00    -0.287 N 
ATOM     13  C   UNL     1     -12.441  10.539  33.421  0.00  0.00    +0.094 C 
ATOM     14  C   UNL     1     -13.602   8.773  34.592  0.00  0.00    +0.164 C 
ATOM     15  C   UNL     1     -13.842  10.065  33.816  0.00  0.00    +0.055 C 
ATOM     16  C   UNL     1     -11.568  10.069  34.581  0.00  0.00    +0.131 C 
ATOM     18  C   UNL     1     -11.792   8.098  36.163  0.00  0.00    +0.226 C 
ENDROOT
BRANCH  13   9
ATOM      5  O   UNL     1     -12.725  11.719  30.825  0.00  0.00    -0.253 OA
ATOM      9  N   UNL     1     -12.017   9.973  32.166  0.00  0.00    -0.295 N 
ATOM     11  N   UNL     1     -11.685   9.831  29.895  0.00  0.00    -0.269 N 
ATOM     21  C   UNL     1     -12.194  10.616  30.934  0.00  0.00    +0.304 C 
ATOM     36  H   UNL     1     -11.627   9.035  32.165  0.00  0.00    +0.151 HD
ATOM     38  H   UNL     1     -11.275   8.938  30.157  0.00  0.00    +0.156 HD
BRANCH  11  25
ATOM     25  C   UNL     1     -11.671  10.124  28.512  0.00  0.00    +0.035 A 
ATOM     28  C   UNL     1     -12.870  10.340  27.833  0.00  0.00    +0.027 A 
ATOM     29  C   UNL     1     -10.457  10.198  27.827  0.00  0.00    +0.027 A 
ATOM     32  C   UNL     1     -12.856  10.630  26.468  0.00  0.00    +0.047 A 
ATOM     33  C   UNL     1     -10.443  10.488  26.463  0.00  0.00    +0.047 A 
ATOM     34  C   UNL     1     -11.642  10.704  25.784  0.00  0.00    +0.120 A 
BRANCH  34   7
ATOM      7  O   UNL     1     -11.628  10.989  24.453  0.00  0.00    -0.495 OA
ATOM     35  C   UNL     1     -12.881  10.961  23.769  0.00  0.00    +0.277 C 
ENDBRANCH  34   7
ENDBRANCH  11  25
ENDBRANCH  13   9
BRANCH  14  17
ATOM      3  O   UNL     1     -12.797   7.375  32.832  0.00  0.00    -0.274 OA
ATOM     10  N   UNL     1     -14.752   6.775  33.945  0.00  0.00    -0.302 N 
ATOM     17  C   UNL     1     -13.650   7.574  33.694  0.00  0.00    +0.234 C 
ATOM     37  H   UNL     1     -15.412   7.056  34.665  0.00  0.00    +0.150 HD
BRANCH  10  19
ATOM     19  C   UNL     1     -15.042   5.571  33.201  0.00  0.00    +0.163 C 
BRANCH  19  23
ATOM      6  O   UNL     1     -17.360   5.349  32.505  0.00  0.00    -0.274 OA
ATOM     12  N   UNL     1     -16.812   4.846  34.678  0.00  0.00    -0.328 N 
ATOM     23  C   UNL     1     -16.521   5.269  33.398  0.00  0.00    +0.231 C 
ATOM     39  H   UNL     1     -17.761   4.597  34.940  0.00  0.00    +0.145 HD
ATOM     40  H   UNL     1     -16.108   4.781  35.407  0.00  0.00    +0.145 HD
ENDBRANCH  19  23
BRANCH  19  22
ATOM     22  C   UNL     1     -14.187   4.383  33.660  0.00  0.00    +0.074 C 
BRANCH  22  24
ATOM      2  S   UNL     1     -14.600   1.692  33.067  0.00  0.00    -0.102 S 
ATOM     24  C   UNL     1     -14.135   3.281  32.628  0.00  0.00    -0.008 A 
ATOM     27  C   UNL     1     -13.745   3.359  31.309  0.00  0.00    +0.011 A 
ATOM     30  C   UNL     1     -13.832   2.099  30.650  0.00  0.00    +0.008 A 
ATOM     31  C   UNL     1     -14.282   1.105  31.490  0.00  0.00    +0.045 A 
ENDBRANCH  22  24
ENDBRANCH  19  22
ENDBRANCH  10  19
ENDBRANCH  14  17
BRANCH  18  20
ATOM     20  C   UNL     1     -10.453   8.485  36.737  0.00  0.00    +0.164 C 
BRANCH  20   1
ATOM      1  S   UNL     1     -10.748   9.274  38.326  0.00  0.00    -0.155 S 
ATOM     26  C   UNL     1      -9.893   8.086  39.391  0.00  0.00    +0.085 C 
ENDBRANCH  20   1
ENDBRANCH  18  20
TORSDOF 10
ENDMDL
MODEL 3
REMARK VINA RESULT:      -5.8     24.546     29.254
REMARK  Name = 7127938
REMARK  12 active torsions:
REMARK  status: ('A' for Active; 'I' for Inactive)
REMARK    1  A    between atoms: S_1  and  C_20
REMARK    2  A    between atoms: S_1  and  C_26
REMARK    3  A    between atoms: O_7  and  C_34
REMARK    4  A    between atoms: O_7  and  C_35
REMARK    5  A    between atoms: N_9  and  C_13
REMARK    6  A    between atoms: N_10  and  C_19
REMARK    7  A    between atoms: N_11  and  C_25
REMARK    8  A    between atoms: C_14  and  C_17
REMARK    9  A    between atoms: C_18  and  C_20
REMARK   10  A    between atoms: C_19  and  C_22
REMARK   11  A    between atoms: C_19  and  C_23
REMARK   12  A    between atoms: C_22  and  C_24
REMARK                            x       y       z     vdW  Elec       q    Type
REMARK                         _______ _______ _______ _____ _____    ______ ____
ROOT
ATOM      4  O   UNL     1      -8.333 -13.101  18.668  0.00  0.00    -0.275 OA
ATOM      8  N   UNL     1      -6.632 -12.175  17.401  0.00  0.00    -0.287 N 
ATOM     13  C   UNL     1      -5.006 -10.853  16.283  0.00  0.00    +0.094 C 
ATOM     14  C   UNL     1      -6.491 -10.957  18.186  0.00  0.00    +0.164 C 
ATOM     15  C   UNL     1      -5.184 -10.327  17.710  0.00  0.00    +0.055 C 
ATOM     16  C   UNL     1      -5.630 -12.244  16.336  0.00  0.00    +0.131 C 
ATOM     18  C   UNL     1      -7.500 -13.194  17.764  0.00  0.00    +0.226 C 
ENDROOT
BRANCH  13   9
ATOM      5  O   UNL     1      -4.923 -11.135  13.433  0.00  0.00    -0.253 OA
ATOM      9  N   UNL     1      -5.658 -10.009  15.314  0.00  0.00    -0.295 N 
ATOM     11  N   UNL     1      -6.300  -9.243  13.243  0.00  0.00    -0.269 N 
ATOM     21  C   UNL     1      -5.567 -10.215  13.931  0.00  0.00    +0.304 C 
ATOM     36  H   UNL     1      -6.156  -9.188  15.645  0.00  0.00    +0.151 HD
ATOM     38  H   UNL     1      -6.779  -8.547  13.809  0.00  0.00    +0.156 HD
BRANCH  11  25
ATOM     25  C   UNL     1      -6.459  -9.104  11.845  0.00  0.00    +0.035 A 
ATOM     28  C   UNL     1      -5.399  -8.643  11.065  0.00  0.00    +0.027 A 
ATOM     29  C   UNL     1      -7.677  -9.429  11.246  0.00  0.00    +0.027 A 
ATOM     32  C   UNL     1      -5.557  -8.507   9.685  0.00  0.00    +0.047 A 
ATOM     33  C   UNL     1      -7.834  -9.293   9.867  0.00  0.00    +0.047 A 
ATOM     34  C   UNL     1      -6.774  -8.832   9.087  0.00  0.00    +0.120 A 
BRANCH  34   7
ATOM      7  O   UNL     1      -6.927  -8.701   7.741  0.00  0.00    -0.495 OA
ATOM     35  C   UNL     1      -6.181  -9.593   6.913  0.00  0.00    +0.277 C 
ENDBRANCH  34   7
ENDBRANCH  11  25
ENDBRANCH  13   9
BRANCH  14  17
ATOM      3  O   UNL     1      -7.609  -9.163  17.078  0.00  0.00    -0.274 OA
ATOM     10  N   UNL     1      -8.757 -10.378  18.698  0.00  0.00    -0.302 N 
ATOM     17  C   UNL     1      -7.665 -10.067  17.908  0.00  0.00    +0.234 C 
ATOM     37  H   UNL     1      -8.678 -11.131  19.376  0.00  0.00    +0.150 HD
BRANCH  10  19
ATOM     19  C   UNL     1     -10.007  -9.655  18.641  0.00  0.00    +0.163 C 
BRANCH  19  23
ATOM      6  O   UNL     1     -12.067  -9.871  19.912  0.00  0.00    -0.274 OA
ATOM     12  N   UNL     1     -10.319 -11.278  20.404  0.00  0.00    -0.328 N 
ATOM     23  C   UNL     1     -10.913 -10.244  19.712  0.00  0.00    +0.231 C 
ATOM     39  H   UNL     1     -10.821 -11.769  21.137  0.00  0.00    +0.145 HD
ATOM     40  H   UNL     1      -9.365 -11.578  20.226  0.00  0.00    +0.145 HD
ENDBRANCH  19  23
BRANCH  19  22
ATOM     22  C   UNL     1     -10.673  -9.752  17.262  0.00  0.00    +0.074 C 
BRANCH  22  24
ATOM      2  S   UNL     1     -12.810  -8.292  16.230  0.00  0.00    -0.102 S 
ATOM     24  C   UNL     1     -11.193  -8.418  16.781  0.00  0.00    -0.008 A 
ATOM     27  C   UNL     1     -10.527  -7.214  16.708  0.00  0.00    +0.011 A 
ATOM     30  C   UNL     1     -11.356  -6.174  16.196  0.00  0.00    +0.008 A 
ATOM     31  C   UNL     1     -12.622  -6.623  15.895  0.00  0.00    +0.045 A 
ENDBRANCH  22  24
ENDBRANCH  19  22
ENDBRANCH  10  19
ENDBRANCH  14  17
BRANCH  18  20
ATOM     20  C   UNL     1      -7.384 -14.465  16.963  0.00  0.00    +0.164 C 
BRANCH  20   1
ATOM      1  S   UNL     1      -8.792 -14.537  15.846  0.00  0.00    -0.155 S 
ATOM     26  C   UNL     1      -7.899 -14.554  14.271  0.00  0.00    +0.085 C 
ENDBRANCH  20   1
ENDBRANCH  18  20
TORSDOF 10
ENDMDL
MODEL 4
REMARK VINA RESULT:      -5.8     23.866     28.124
REMARK  Name = 7127938
REMARK  12 active torsions:
REMARK  status: ('A' for Active; 'I' for Inactive)
REMARK    1  A    between atoms: S_1  and  C_20
REMARK    2  A    between atoms: S_1  and  C_26
REMARK    3  A    between atoms: O_7  and  C_34
REMARK    4  A    between atoms: O_7  and  C_35
REMARK    5  A    between atoms: N_9  and  C_13
REMARK    6  A    between atoms: N_10  and  C_19
REMARK    7  A    between atoms: N_11  and  C_25
REMARK    8  A    between atoms: C_14  and  C_17
REMARK    9  A    between atoms: C_18  and  C_20
REMARK   10  A    between atoms: C_19  and  C_22
REMARK   11  A    between atoms: C_19  and  C_23
REMARK   12  A    between atoms: C_22  and  C_24
REMARK                            x       y       z     vdW  Elec       q    Type
REMARK                         _______ _______ _______ _____ _____    ______ ____
ROOT
ATOM      4  O   UNL     1      -5.498 -13.737  17.642  0.00  0.00    -0.275 OA
ATOM      8  N   UNL     1      -4.191 -12.607  16.101  0.00  0.00    -0.287 N 
ATOM     13  C   UNL     1      -2.960 -11.095  14.744  0.00  0.00    +0.094 C 
ATOM     14  C   UNL     1      -3.995 -11.408  16.904  0.00  0.00    +0.164 C 
ATOM     15  C   UNL     1      -2.879 -10.639  16.203  0.00  0.00    +0.055 C 
ATOM     16  C   UNL     1      -3.435 -12.542  14.851  0.00  0.00    +0.131 C 
ATOM     18  C   UNL     1      -4.870 -13.716  16.582  0.00  0.00    +0.226 C 
ENDROOT
BRANCH  13   9
ATOM      5  O   UNL     1      -3.542 -11.347  11.950  0.00  0.00    -0.253 OA
ATOM      9  N   UNL     1      -3.874 -10.286  13.978  0.00  0.00    -0.295 N 
ATOM     11  N   UNL     1      -5.035  -9.545  12.137  0.00  0.00    -0.269 N 
ATOM     21  C   UNL     1      -4.102 -10.474  12.608  0.00  0.00    +0.304 C 
ATOM     36  H   UNL     1      -4.327  -9.501  14.437  0.00  0.00    +0.151 HD
ATOM     38  H   UNL     1      -5.406  -8.885  12.817  0.00  0.00    +0.156 HD
BRANCH  11  25
ATOM     25  C   UNL     1      -5.531  -9.404  10.821  0.00  0.00    +0.035 A 
ATOM     28  C   UNL     1      -4.659  -9.478   9.735  0.00  0.00    +0.027 A 
ATOM     29  C   UNL     1      -6.894  -9.192  10.608  0.00  0.00    +0.027 A 
ATOM     32  C   UNL     1      -5.150  -9.340   8.436  0.00  0.00    +0.047 A 
ATOM     33  C   UNL     1      -7.384  -9.054   9.310  0.00  0.00    +0.047 A 
ATOM     34  C   UNL     1      -6.512  -9.128   8.224  0.00  0.00    +0.120 A 
BRANCH  34   7
ATOM      7  O   UNL     1      -6.991  -8.995   6.956  0.00  0.00    -0.495 OA
ATOM     35  C   UNL     1      -6.398  -9.815   5.949  0.00  0.00    +0.277 C 
ENDBRANCH  34   7
ENDBRANCH  11  25
ENDBRANCH  13   9
BRANCH  14  17
ATOM      3  O   UNL     1      -5.446  -9.647  16.204  0.00  0.00    -0.274 OA
ATOM     10  N   UNL     1      -6.181 -11.130  17.841  0.00  0.00    -0.302 N 
ATOM     17  C   UNL     1      -5.275 -10.627  16.924  0.00  0.00    +0.234 C 
ATOM     37  H   UNL     1      -5.919 -11.932  18.407  0.00  0.00    +0.150 HD
BRANCH  10  19
ATOM     19  C   UNL     1      -7.482 -10.543  18.070  0.00  0.00    +0.163 C 
BRANCH  19  23
ATOM      6  O   UNL     1      -9.022 -10.742  19.939  0.00  0.00    -0.274 OA
ATOM     12  N   UNL     1      -7.341 -12.294  19.729  0.00  0.00    -0.328 N 
ATOM     23  C   UNL     1      -8.036 -11.167  19.343  0.00  0.00    +0.231 C 
ATOM     39  H   UNL     1      -7.616 -12.816  20.555  0.00  0.00    +0.145 HD
ATOM     40  H   UNL     1      -6.529 -12.637  19.225  0.00  0.00    +0.145 HD
ENDBRANCH  19  23
BRANCH  19  22
ATOM     22  C   UNL     1      -8.442 -10.779  16.896  0.00  0.00    +0.074 C 
BRANCH  22  24
ATOM      2  S   UNL     1      -9.944  -9.427  14.979  0.00  0.00    -0.102 S 
ATOM     24  C   UNL     1      -9.207  -9.531  16.521  0.00  0.00    -0.008 A 
ATOM     27  C   UNL     1      -9.414  -8.395  17.271  0.00  0.00    +0.011 A 
ATOM     30  C   UNL     1     -10.190  -7.426  16.572  0.00  0.00    +0.008 A 
ATOM     31  C   UNL     1     -10.545  -7.859  15.314  0.00  0.00    +0.045 A 
ENDBRANCH  22  24
ENDBRANCH  19  22
ENDBRANCH  10  19
ENDBRANCH  14  17
BRANCH  18  20
ATOM     20  C   UNL     1      -4.815 -14.942  15.706  0.00  0.00    +0.164 C 
BRANCH  20   1
ATOM      1  S   UNL     1      -4.091 -16.274  16.675  0.00  0.00    -0.155 S 
ATOM     26  C   UNL     1      -2.692 -16.675  15.599  0.00  0.00    +0.085 C 
ENDBRANCH  20   1
ENDBRANCH  18  20
TORSDOF 10
ENDMDL
MODEL 5
REMARK VINA RESULT:      -5.8     23.998     27.277
REMARK  Name = 7127938
REMARK  12 active torsions:
REMARK  status: ('A' for Active; 'I' for Inactive)
REMARK    1  A    between atoms: S_1  and  C_20
REMARK    2  A    between atoms: S_1  and  C_26
REMARK    3  A    between atoms: O_7  and  C_34
REMARK    4  A    between atoms: O_7  and  C_35
REMARK    5  A    between atoms: N_9  and  C_13
REMARK    6  A    between atoms: N_10  and  C_19
REMARK    7  A    between atoms: N_11  and  C_25
REMARK    8  A    between atoms: C_14  and  C_17
REMARK    9  A    between atoms: C_18  and  C_20
REMARK   10  A    between atoms: C_19  and  C_22
REMARK   11  A    between atoms: C_19  and  C_23
REMARK   12  A    between atoms: C_22  and  C_24
REMARK                            x       y       z     vdW  Elec       q    Type
REMARK                         _______ _______ _______ _____ _____    ______ ____
ROOT
ATOM      4  O   UNL     1      -3.341 -14.611  15.365  0.00  0.00    -0.275 OA
ATOM      8  N   UNL     1      -2.859 -13.005  13.770  0.00  0.00    -0.287 N 
ATOM     13  C   UNL     1      -2.369 -11.082  12.465  0.00  0.00    +0.094 C 
ATOM     14  C   UNL     1      -2.342 -12.008  14.696  0.00  0.00    +0.164 C 
ATOM     15  C   UNL     1      -1.657 -10.966  13.815  0.00  0.00    +0.055 C 
ATOM     16  C   UNL     1      -2.732 -12.562  12.381  0.00  0.00    +0.131 C 
ATOM     18  C   UNL     1      -3.245 -14.271  14.185  0.00  0.00    +0.226 C 
ENDROOT
BRANCH  13   9
ATOM      5  O   UNL     1      -4.155 -10.803  10.242  0.00  0.00    -0.253 OA
ATOM      9  N   UNL     1      -3.535 -10.239  12.397  0.00  0.00    -0.295 N 
ATOM     11  N   UNL     1      -5.410  -9.262  11.493  0.00  0.00    -0.269 N 
ATOM     21  C   UNL     1      -4.360 -10.158  11.268  0.00  0.00    +0.304 C 
ATOM     36  H   UNL     1      -3.734  -9.625  13.181  0.00  0.00    +0.151 HD
ATOM     38  H   UNL     1      -5.435  -8.808  12.402  0.00  0.00    +0.156 HD
BRANCH  11  25
ATOM     25  C   UNL     1      -6.451  -8.904  10.605  0.00  0.00    +0.035 A 
ATOM     28  C   UNL     1      -7.764  -9.283  10.882  0.00  0.00    +0.027 A 
ATOM     29  C   UNL     1      -6.164  -8.169   9.454  0.00  0.00    +0.027 A 
ATOM     32  C   UNL     1      -8.791  -8.929  10.006  0.00  0.00    +0.047 A 
ATOM     33  C   UNL     1      -7.190  -7.815   8.579  0.00  0.00    +0.047 A 
ATOM     34  C   UNL     1      -8.503  -8.195   8.855  0.00  0.00    +0.120 A 
BRANCH  34   7
ATOM      7  O   UNL     1      -9.506  -7.846   8.002  0.00  0.00    -0.495 OA
ATOM     35  C   UNL     1      -9.507  -6.506   7.513  0.00  0.00    +0.277 C 
ENDBRANCH  34   7
ENDBRANCH  11  25
ENDBRANCH  13   9
BRANCH  14  17
ATOM      3  O   UNL     1      -4.269 -10.621  14.940  0.00  0.00    -0.274 OA
ATOM     10  N   UNL     1      -3.529 -11.856  16.769  0.00  0.00    -0.302 N 
ATOM     17  C   UNL     1      -3.490 -11.417  15.458  0.00  0.00    +0.234 C 
ATOM     37  H   UNL     1      -2.810 -12.495  17.099  0.00  0.00    +0.150 HD
BRANCH  10  19
ATOM     19  C   UNL     1      -4.525 -11.418  17.721  0.00  0.00    +0.163 C 
BRANCH  19  23
ATOM      6  O   UNL     1      -4.745 -12.014  20.066  0.00  0.00    -0.274 OA
ATOM     12  N   UNL     1      -2.640 -11.894  19.155  0.00  0.00    -0.328 N 
ATOM     23  C   UNL     1      -4.014 -11.788  19.105  0.00  0.00    +0.231 C 
ATOM     39  H   UNL     1      -2.170 -12.149  20.018  0.00  0.00    +0.145 HD
ATOM     40  H   UNL     1      -2.047 -11.707  18.352  0.00  0.00    +0.145 HD
ENDBRANCH  19  23
BRANCH  19  22
ATOM     22  C   UNL     1      -5.895 -12.060  17.466  0.00  0.00    +0.074 C 
BRANCH  22  24
ATOM      2  S   UNL     1      -8.509 -11.475  18.233  0.00  0.00    -0.102 S 
ATOM     24  C   UNL     1      -7.018 -11.050  17.505  0.00  0.00    -0.008 A 
ATOM     27  C   UNL     1      -7.031  -9.763  17.013  0.00  0.00    +0.011 A 
ATOM     30  C   UNL     1      -8.280  -9.117  17.239  0.00  0.00    +0.008 A 
ATOM     31  C   UNL     1      -9.175  -9.934  17.893  0.00  0.00    +0.045 A 
ENDBRANCH  22  24
ENDBRANCH  19  22
ENDBRANCH  10  19
ENDBRANCH  14  17
BRANCH  18  20
ATOM     20  C   UNL     1      -3.569 -15.247  13.083  0.00  0.00    +0.164 C 
BRANCH  20   1
ATOM      1  S   UNL     1      -2.496 -16.677  13.286  0.00  0.00    -0.155 S 
ATOM     26  C   UNL     1      -0.910 -15.894  12.903  0.00  0.00    +0.085 C 
ENDBRANCH  20   1
ENDBRANCH  18  20
TORSDOF 10
ENDMDL
MODEL 6
REMARK VINA RESULT:      -5.8      5.280      8.516
REMARK  Name = 7127938
REMARK  12 active torsions:
REMARK  status: ('A' for Active; 'I' for Inactive)
REMARK    1  A    between atoms: S_1  and  C_20
REMARK    2  A    between atoms: S_1  and  C_26
REMARK    3  A    between atoms: O_7  and  C_34
REMARK    4  A    between atoms: O_7  and  C_35
REMARK    5  A    between atoms: N_9  and  C_13
REMARK    6  A    between atoms: N_10  and  C_19
REMARK    7  A    between atoms: N_11  and  C_25
REMARK    8  A    between atoms: C_14  and  C_17
REMARK    9  A    between atoms: C_18  and  C_20
REMARK   10  A    between atoms: C_19  and  C_22
REMARK   11  A    between atoms: C_19  and  C_23
REMARK   12  A    between atoms: C_22  and  C_24
REMARK                            x       y       z     vdW  Elec       q    Type
REMARK                         _______ _______ _______ _____ _____    ______ ____
ROOT
ATOM      4  O   UNL     1      12.688   7.427   6.972  0.00  0.00    -0.275 OA
ATOM      8  N   UNL     1      11.339   9.216   6.391  0.00  0.00    -0.287 N 
ATOM     13  C   UNL     1       9.714  10.929   6.131  0.00  0.00    +0.094 C 
ATOM     14  C   UNL     1      10.664   9.333   7.676  0.00  0.00    +0.164 C 
ATOM     15  C   UNL     1       9.941  10.677   7.624  0.00  0.00    +0.055 C 
ATOM     16  C   UNL     1      10.927  10.277   5.472  0.00  0.00    +0.131 C 
ATOM     18  C   UNL     1      12.366   8.309   6.175  0.00  0.00    +0.226 C 
ENDROOT
BRANCH  13   9
ATOM      5  O   UNL     1       7.995  11.965   4.086  0.00  0.00    -0.253 OA
ATOM      9  N   UNL     1       8.478  10.351   5.670  0.00  0.00    -0.295 N 
ATOM     11  N   UNL     1       6.555  10.142   4.427  0.00  0.00    -0.269 N 
ATOM     21  C   UNL     1       7.692  10.922   4.661  0.00  0.00    +0.304 C 
ATOM     36  H   UNL     1       8.125   9.523   6.142  0.00  0.00    +0.151 HD
ATOM     38  H   UNL     1       6.452   9.304   4.993  0.00  0.00    +0.156 HD
BRANCH  11  25
ATOM     25  C   UNL     1       5.519  10.376   3.493  0.00  0.00    +0.035 A 
ATOM     28  C   UNL     1       5.530   9.723   2.261  0.00  0.00    +0.027 A 
ATOM     29  C   UNL     1       4.484  11.259   3.806  0.00  0.00    +0.027 A 
ATOM     32  C   UNL     1       4.507   9.953   1.340  0.00  0.00    +0.047 A 
ATOM     33  C   UNL     1       3.462  11.489   2.886  0.00  0.00    +0.047 A 
ATOM     34  C   UNL     1       3.474  10.836   1.654  0.00  0.00    +0.120 A 
BRANCH  34   7
ATOM      7  O   UNL     1       2.474  11.059   0.756  0.00  0.00    -0.495 OA
ATOM     35  C   UNL     1       1.139  10.816   1.198  0.00  0.00    +0.277 C 
ENDBRANCH  34   7
ENDBRANCH  11  25
ENDBRANCH  13   9
BRANCH  14  17
ATOM      3  O   UNL     1       8.617   8.329   8.383  0.00  0.00    -0.274 OA
ATOM     10  N   UNL     1      10.189   7.021   7.270  0.00  0.00    -0.302 N 
ATOM     17  C   UNL     1       9.699   8.194   7.818  0.00  0.00    +0.234 C 
ATOM     37  H   UNL     1      11.116   7.020   6.853  0.00  0.00    +0.150 HD
BRANCH  10  19
ATOM     19  C   UNL     1       9.462   5.772   7.296  0.00  0.00    +0.163 C 
BRANCH  19  23
ATOM      6  O   UNL     1      10.357   5.381   9.522  0.00  0.00    -0.274 OA
ATOM     12  N   UNL     1      10.179   3.601   8.080  0.00  0.00    -0.328 N 
ATOM     23  C   UNL     1      10.058   4.933   8.418  0.00  0.00    +0.231 C 
ATOM     39  H   UNL     1      10.549   2.929   8.744  0.00  0.00    +0.145 HD
ATOM     40  H   UNL     1       9.925   3.243   7.164  0.00  0.00    +0.145 HD
ENDBRANCH  19  23
BRANCH  19  22
ATOM     22  C   UNL     1       9.547   5.021   5.962  0.00  0.00    +0.074 C 
BRANCH  22  24
ATOM      2  S   UNL     1      10.677   5.897   3.571  0.00  0.00    -0.102 S 
ATOM     24  C   UNL     1       9.459   5.950   4.774  0.00  0.00    -0.008 A 
ATOM     27  C   UNL     1       8.495   6.893   4.493  0.00  0.00    +0.011 A 
ATOM     30  C   UNL     1       8.758   7.579   3.272  0.00  0.00    +0.008 A 
ATOM     31  C   UNL     1       9.914   7.136   2.668  0.00  0.00    +0.045 A 
ENDBRANCH  22  24
ENDBRANCH  19  22
ENDBRANCH  10  19
ENDBRANCH  14  17
BRANCH  18  20
ATOM     20  C   UNL     1      13.091   8.449   4.861  0.00  0.00    +0.164 C 
BRANCH  20   1
ATOM      1  S   UNL     1      14.849   8.579   5.217  0.00  0.00    -0.155 S 
ATOM     26  C   UNL     1      15.463   7.335   4.053  0.00  0.00    +0.085 C 
ENDBRANCH  20   1
ENDBRANCH  18  20
TORSDOF 10
ENDMDL
MODEL 7
REMARK VINA RESULT:      -5.7      4.208      8.737
REMARK  Name = 7127938
REMARK  12 active torsions:
REMARK  status: ('A' for Active; 'I' for Inactive)
REMARK    1  A    between atoms: S_1  and  C_20
REMARK    2  A    between atoms: S_1  and  C_26
REMARK    3  A    between atoms: O_7  and  C_34
REMARK    4  A    between atoms: O_7  and  C_35
REMARK    5  A    between atoms: N_9  and  C_13
REMARK    6  A    between atoms: N_10  and  C_19
REMARK    7  A    between atoms: N_11  and  C_25
REMARK    8  A    between atoms: C_14  and  C_17
REMARK    9  A    between atoms: C_18  and  C_20
REMARK   10  A    between atoms: C_19  and  C_22
REMARK   11  A    between atoms: C_19  and  C_23
REMARK   12  A    between atoms: C_22  and  C_24
REMARK                            x       y       z     vdW  Elec       q    Type
REMARK                         _______ _______ _______ _____ _____    ______ ____
ROOT
ATOM      4  O   UNL     1       9.263   8.753   7.675  0.00  0.00    -0.275 OA
ATOM      8  N   UNL     1       9.330   6.873   6.327  0.00  0.00    -0.287 N 
ATOM     13  C   UNL     1       9.720   4.818   5.202  0.00  0.00    +0.094 C 
ATOM     14  C   UNL     1      10.039   6.023   7.272  0.00  0.00    +0.164 C 
ATOM     15  C   UNL     1       9.913   4.610   6.707  0.00  0.00    +0.055 C 
ATOM     16  C   UNL     1       8.954   6.135   5.121  0.00  0.00    +0.131 C 
ATOM     18  C   UNL     1       8.927   8.161   6.649  0.00  0.00    +0.226 C 
ENDROOT
BRANCH  13   9
ATOM      5  O   UNL     1      10.117   4.659   2.369  0.00  0.00    -0.253 OA
ATOM      9  N   UNL     1      10.978   4.885   4.504  0.00  0.00    -0.295 N 
ATOM     11  N   UNL     1      12.427   4.894   2.718  0.00  0.00    -0.269 N 
ATOM     21  C   UNL     1      11.088   4.798   3.110  0.00  0.00    +0.304 C 
ATOM     36  H   UNL     1      11.833   4.933   5.050  0.00  0.00    +0.151 HD
ATOM     38  H   UNL     1      13.113   5.007   3.461  0.00  0.00    +0.156 HD
BRANCH  11  25
ATOM     25  C   UNL     1      12.954   4.851   1.407  0.00  0.00    +0.035 A 
ATOM     28  C   UNL     1      13.336   3.632   0.848  0.00  0.00    +0.027 A 
ATOM     29  C   UNL     1      13.089   6.029   0.671  0.00  0.00    +0.027 A 
ATOM     32  C   UNL     1      13.855   3.590  -0.447  0.00  0.00    +0.047 A 
ATOM     33  C   UNL     1      13.607   5.987  -0.623  0.00  0.00    +0.047 A 
ATOM     34  C   UNL     1      13.990   4.768  -1.181  0.00  0.00    +0.120 A 
BRANCH  34   7
ATOM      7  O   UNL     1      14.494   4.727  -2.446  0.00  0.00    -0.495 OA
ATOM     35  C   UNL     1      15.907   4.869  -2.587  0.00  0.00    +0.277 C 
ENDBRANCH  34   7
ENDBRANCH  11  25
ENDBRANCH  13   9
BRANCH  14  17
ATOM      3  O   UNL     1      12.276   5.940   8.102  0.00  0.00    -0.274 OA
ATOM     10  N   UNL     1      11.736   7.509   6.469  0.00  0.00    -0.302 N 
ATOM     17  C   UNL     1      11.471   6.463   7.336  0.00  0.00    +0.234 C 
ATOM     37  H   UNL     1      10.982   7.885   5.902  0.00  0.00    +0.150 HD
BRANCH  10  19
ATOM     19  C   UNL     1      13.036   8.131   6.356  0.00  0.00    +0.163 C 
BRANCH  19  23
ATOM      6  O   UNL     1      12.535  10.301   5.381  0.00  0.00    -0.274 OA
ATOM     12  N   UNL     1      12.906  10.172   7.645  0.00  0.00    -0.328 N 
ATOM     23  C   UNL     1      12.813   9.637   6.377  0.00  0.00    +0.231 C 
ATOM     39  H   UNL     1      12.764  11.164   7.801  0.00  0.00    +0.145 HD
ATOM     40  H   UNL     1      13.133   9.611   8.460  0.00  0.00    +0.145 HD
ENDBRANCH  19  23
BRANCH  19  22
ATOM     22  C   UNL     1      13.770   7.717   5.074  0.00  0.00    +0.074 C 
BRANCH  22  24
ATOM      2  S   UNL     1      16.140   8.100   3.661  0.00  0.00    -0.102 S 
ATOM     24  C   UNL     1      15.240   8.062   5.118  0.00  0.00    -0.008 A 
ATOM     27  C   UNL     1      16.017   8.366   6.214  0.00  0.00    +0.011 A 
ATOM     30  C   UNL     1      17.368   8.637   5.853  0.00  0.00    +0.008 A 
ATOM     31  C   UNL     1      17.574   8.527   4.496  0.00  0.00    +0.045 A 
ENDBRANCH  22  24
ENDBRANCH  19  22
ENDBRANCH  10  19
ENDBRANCH  14  17
BRANCH  18  20
ATOM     20  C   UNL     1       8.035   8.835   5.638  0.00  0.00    +0.164 C 
BRANCH  20   1
ATOM      1  S   UNL     1       9.051   9.971   4.683  0.00  0.00    -0.155 S 
ATOM     26  C   UNL     1       8.629  11.510   5.538  0.00  0.00    +0.085 C 
ENDBRANCH  20   1
ENDBRANCH  18  20
TORSDOF 10
ENDMDL
MODEL 8
REMARK VINA RESULT:      -5.7     36.146     39.541
REMARK  Name = 7127938
REMARK  12 active torsions:
REMARK  status: ('A' for Active; 'I' for Inactive)
REMARK    1  A    between atoms: S_1  and  C_20
REMARK    2  A    between atoms: S_1  and  C_26
REMARK    3  A    between atoms: O_7  and  C_34
REMARK    4  A    between atoms: O_7  and  C_35
REMARK    5  A    between atoms: N_9  and  C_13
REMARK    6  A    between atoms: N_10  and  C_19
REMARK    7  A    between atoms: N_11  and  C_25
REMARK    8  A    between atoms: C_14  and  C_17
REMARK    9  A    between atoms: C_18  and  C_20
REMARK   10  A    between atoms: C_19  and  C_22
REMARK   11  A    between atoms: C_19  and  C_23
REMARK   12  A    between atoms: C_22  and  C_24
REMARK                            x       y       z     vdW  Elec       q    Type
REMARK                         _______ _______ _______ _____ _____    ______ ____
ROOT
ATOM      4  O   UNL     1     -12.344  11.516  31.674  0.00  0.00    -0.275 OA
ATOM      8  N   UNL     1     -13.946   9.849  31.784  0.00  0.00    -0.287 N 
ATOM     13  C   UNL     1     -15.438   8.072  32.295  0.00  0.00    +0.094 C 
ATOM     14  C   UNL     1     -13.979   9.752  33.236  0.00  0.00    +0.164 C 
ATOM     15  C   UNL     1     -15.220   8.920  33.551  0.00  0.00    +0.055 C 
ATOM     16  C   UNL     1     -14.944   8.974  31.168  0.00  0.00    +0.131 C 
ATOM     18  C   UNL     1     -13.177  10.794  31.123  0.00  0.00    +0.226 C 
ENDROOT
BRANCH  13   9
ATOM      5  O   UNL     1     -16.202   5.577  31.113  0.00  0.00    -0.253 OA
ATOM      9  N   UNL     1     -14.706   6.832  32.350  0.00  0.00    -0.295 N 
ATOM     11  N   UNL     1     -14.237   4.615  31.963  0.00  0.00    -0.269 N 
ATOM     21  C   UNL     1     -15.150   5.651  31.743  0.00  0.00    +0.304 C 
ATOM     36  H   UNL     1     -13.858   6.795  32.908  0.00  0.00    +0.151 HD
ATOM     38  H   UNL     1     -13.410   4.844  32.510  0.00  0.00    +0.156 HD
BRANCH  11  25
ATOM     25  C   UNL     1     -14.319   3.275  31.519  0.00  0.00    +0.035 A 
ATOM     28  C   UNL     1     -13.939   2.948  30.217  0.00  0.00    +0.027 A 
ATOM     29  C   UNL     1     -14.779   2.280  32.383  0.00  0.00    +0.027 A 
ATOM     32  C   UNL     1     -14.020   1.625  29.779  0.00  0.00    +0.047 A 
ATOM     33  C   UNL     1     -14.860   0.959  31.945  0.00  0.00    +0.047 A 
ATOM     34  C   UNL     1     -14.481   0.632  30.644  0.00  0.00    +0.120 A 
BRANCH  34   7
ATOM      7  O   UNL     1     -14.557  -0.659  30.217  0.00  0.00    -0.495 OA
ATOM     35  C   UNL     1     -13.503  -1.129  29.377  0.00  0.00    +0.277 C 
ENDBRANCH  34   7
ENDBRANCH  11  25
ENDBRANCH  13   9
BRANCH  14  17
ATOM      3  O   UNL     1     -12.083   8.327  32.967  0.00  0.00    -0.274 OA
ATOM     10  N   UNL     1     -12.429   9.368  35.021  0.00  0.00    -0.302 N 
ATOM     17  C   UNL     1     -12.727   9.072  33.702  0.00  0.00    +0.234 C 
ATOM     37  H   UNL     1     -13.053   9.975  35.544  0.00  0.00    +0.150 HD
BRANCH  10  19
ATOM     19  C   UNL     1     -11.286   8.821  35.716  0.00  0.00    +0.163 C 
BRANCH  19  23
ATOM      6  O   UNL     1     -12.506   6.991  36.749  0.00  0.00    -0.274 OA
ATOM     12  N   UNL     1     -11.415   8.490  38.106  0.00  0.00    -0.328 N 
ATOM     23  C   UNL     1     -11.822   8.003  36.882  0.00  0.00    +0.231 C 
ATOM     39  H   UNL     1     -11.691   8.028  38.966  0.00  0.00    +0.145 HD
ATOM     40  H   UNL     1     -10.847   9.326  38.201  0.00  0.00    +0.145 HD
ENDBRANCH  19  23
BRANCH  19  22
ATOM     22  C   UNL     1     -10.334   9.913  36.220  0.00  0.00    +0.074 C 
BRANCH  22  24
ATOM      2  S   UNL     1      -9.906  12.407  35.055  0.00  0.00    -0.102 S 
ATOM     24  C   UNL     1      -9.719  10.705  35.090  0.00  0.00    -0.008 A 
ATOM     27  C   UNL     1      -8.990  10.243  34.017  0.00  0.00    +0.011 A 
ATOM     30  C   UNL     1      -8.577  11.300  33.155  0.00  0.00    +0.008 A 
ATOM     31  C   UNL     1      -9.008  12.529  33.602  0.00  0.00    +0.045 A 
ENDBRANCH  22  24
ENDBRANCH  19  22
ENDBRANCH  10  19
ENDBRANCH  14  17
BRANCH  18  20
ATOM     20  C   UNL     1     -13.405  10.894  29.636  0.00  0.00    +0.164 C 
BRANCH  20   1
ATOM      1  S   UNL     1     -11.879  11.482  28.887  0.00  0.00    -0.155 S 
ATOM     26  C   UNL     1     -11.423   9.988  27.970  0.00  0.00    +0.085 C 
ENDBRANCH  20   1
ENDBRANCH  18  20
TORSDOF 10
ENDMDL
MODEL 9
REMARK VINA RESULT:      -5.7     14.028     17.312
REMARK  Name = 7127938
REMARK  12 active torsions:
REMARK  status: ('A' for Active; 'I' for Inactive)
REMARK    1  A    between atoms: S_1  and  C_20
REMARK    2  A    between atoms: S_1  and  C_26
REMARK    3  A    between atoms: O_7  and  C_34
REMARK    4  A    between atoms: O_7  and  C_35
REMARK    5  A    between atoms: N_9  and  C_13
REMARK    6  A    between atoms: N_10  and  C_19
REMARK    7  A    between atoms: N_11  and  C_25
REMARK    8  A    between atoms: C_14  and  C_17
REMARK    9  A    between atoms: C_18  and  C_20
REMARK   10  A    between atoms: C_19  and  C_22
REMARK   11  A    between atoms: C_19  and  C_23
REMARK   12  A    between atoms: C_22  and  C_24
REMARK                            x       y       z     vdW  Elec       q    Type
REMARK                         _______ _______ _______ _____ _____    ______ ____
ROOT
ATOM      4  O   UNL     1      19.153  -5.855  -3.914  0.00  0.00    -0.275 OA
ATOM      8  N   UNL     1      19.199  -8.072  -3.250  0.00  0.00    -0.287 N 
ATOM     13  C   UNL     1      18.882 -10.382  -2.799  0.00  0.00    +0.094 C 
ATOM     14  C   UNL     1      18.309  -8.569  -4.290  0.00  0.00    +0.164 C 
ATOM     15  C   UNL     1      18.449 -10.089  -4.238  0.00  0.00    +0.055 C 
ATOM     16  C   UNL     1      19.718  -9.162  -2.424  0.00  0.00    +0.131 C 
ATOM     18  C   UNL     1      19.613  -6.749  -3.201  0.00  0.00    +0.226 C 
ENDROOT
BRANCH  13   9
ATOM      5  O   UNL     1      18.872 -11.683  -0.246  0.00  0.00    -0.253 OA
ATOM      9  N   UNL     1      17.752 -10.549  -1.921  0.00  0.00    -0.295 N 
ATOM     11  N   UNL     1      16.580 -11.210  -0.056  0.00  0.00    -0.269 N 
ATOM     21  C   UNL     1      17.830 -11.201  -0.684  0.00  0.00    +0.304 C 
ATOM     36  H   UNL     1      16.840 -10.235  -2.241  0.00  0.00    +0.151 HD
ATOM     38  H   UNL     1      15.815 -10.764  -0.557  0.00  0.00    +0.156 HD
BRANCH  11  25
ATOM     25  C   UNL     1      16.243 -11.767   1.199  0.00  0.00    +0.035 A 
ATOM     28  C   UNL     1      15.669 -13.036   1.267  0.00  0.00    +0.027 A 
ATOM     29  C   UNL     1      16.486 -11.047   2.369  0.00  0.00    +0.027 A 
ATOM     32  C   UNL     1      15.337 -13.586   2.506  0.00  0.00    +0.047 A 
ATOM     33  C   UNL     1      16.154 -11.596   3.607  0.00  0.00    +0.047 A 
ATOM     34  C   UNL     1      15.580 -12.865   3.675  0.00  0.00    +0.120 A 
BRANCH  34   7
ATOM      7  O   UNL     1      15.258 -13.403   4.884  0.00  0.00    -0.495 OA
ATOM     35  C   UNL     1      16.127 -14.412   5.398  0.00  0.00    +0.277 C 
ENDBRANCH  34   7
ENDBRANCH  11  25
ENDBRANCH  13   9
BRANCH  14  17
ATOM      3  O   UNL     1      16.304  -8.561  -2.995  0.00  0.00    -0.274 OA
ATOM     10  N   UNL     1      16.414  -7.245  -4.913  0.00  0.00    -0.302 N 
ATOM     17  C   UNL     1      16.910  -8.134  -3.975  0.00  0.00    +0.234 C 
ATOM     37  H   UNL     1      16.997  -6.985  -5.704  0.00  0.00    +0.150 HD
BRANCH  10  19
ATOM     19  C   UNL     1      15.080  -6.693  -4.851  0.00  0.00    +0.163 C 
BRANCH  19  23
ATOM      6  O   UNL     1      13.898  -8.735  -5.434  0.00  0.00    -0.274 OA
ATOM     12  N   UNL     1      13.705  -6.917  -6.826  0.00  0.00    -0.328 N 
ATOM     23  C   UNL     1      14.191  -7.575  -5.715  0.00  0.00    +0.231 C 
ATOM     39  H   UNL     1      13.086  -7.388  -7.479  0.00  0.00    +0.145 HD
ATOM     40  H   UNL     1      13.952  -5.957  -7.045  0.00  0.00    +0.145 HD
ENDBRANCH  19  23
BRANCH  19  22
ATOM     22  C   UNL     1      15.029  -5.239  -5.339  0.00  0.00    +0.074 C 
BRANCH  22  24
ATOM      2  S   UNL     1      17.016  -3.288  -5.363  0.00  0.00    -0.102 S 
ATOM     24  C   UNL     1      15.938  -4.334  -4.542  0.00  0.00    -0.008 A 
ATOM     27  C   UNL     1      16.042  -4.214  -3.174  0.00  0.00    +0.011 A 
ATOM     30  C   UNL     1      17.019  -3.249  -2.794  0.00  0.00    +0.008 A 
ATOM     31  C   UNL     1      17.625  -2.669  -3.887  0.00  0.00    +0.045 A 
ENDBRANCH  22  24
ENDBRANCH  19  22
ENDBRANCH  10  19
ENDBRANCH  14  17
BRANCH  18  20
ATOM     20  C   UNL     1      20.684  -6.440  -2.187  0.00  0.00    +0.164 C 
BRANCH  20   1
ATOM      1  S   UNL     1      19.944  -5.420  -0.904  0.00  0.00    -0.155 S 
ATOM     26  C   UNL     1      21.304  -5.443   0.291  0.00  0.00    +0.085 C 
ENDBRANCH  20   1
ENDBRANCH  18  20
TORSDOF 10
ENDMDL
MODEL 10
REMARK VINA RESULT:      -5.6      7.130     10.567
REMARK  Name = 7127938
REMARK  12 active torsions:
REMARK  status: ('A' for Active; 'I' for Inactive)
REMARK    1  A    between atoms: S_1  and  C_20
REMARK    2  A    between atoms: S_1  and  C_26
REMARK    3  A    between atoms: O_7  and  C_34
REMARK    4  A    between atoms: O_7  and  C_35
REMARK    5  A    between atoms: N_9  and  C_13
REMARK    6  A    between atoms: N_10  and  C_19
REMARK    7  A    between atoms: N_11  and  C_25
REMARK    8  A    between atoms: C_14  and  C_17
REMARK    9  A    between atoms: C_18  and  C_20
REMARK   10  A    between atoms: C_19  and  C_22
REMARK   11  A    between atoms: C_19  and  C_23
REMARK   12  A    between atoms: C_22  and  C_24
REMARK                            x       y       z     vdW  Elec       q    Type
REMARK                         _______ _______ _______ _____ _____    ______ ____
ROOT
ATOM      4  O   UNL     1      10.626  10.399   8.630  0.00  0.00    -0.275 OA
ATOM      8  N   UNL     1      12.634  11.020   7.660  0.00  0.00    -0.287 N 
ATOM     13  C   UNL     1      14.598  11.362   6.368  0.00  0.00    +0.094 C 
ATOM     14  C   UNL     1      12.344  10.491   6.336  0.00  0.00    +0.164 C 
ATOM     15  C   UNL     1      13.423  11.079   5.429  0.00  0.00    +0.055 C 
ATOM     16  C   UNL     1      13.919  11.719   7.688  0.00  0.00    +0.131 C 
ATOM     18  C   UNL     1      11.701  10.998   8.687  0.00  0.00    +0.226 C 
ENDROOT
BRANCH  13   9
ATOM      5  O   UNL     1      17.229  11.068   5.272  0.00  0.00    -0.253 OA
ATOM      9  N   UNL     1      15.465  10.219   6.503  0.00  0.00    -0.295 N 
ATOM     11  N   UNL     1      17.348   8.928   6.230  0.00  0.00    -0.269 N 
ATOM     21  C   UNL     1      16.743  10.154   5.933  0.00  0.00    +0.304 C 
ATOM     36  H   UNL     1      15.110   9.396   6.980  0.00  0.00    +0.151 HD
ATOM     38  H   UNL     1      16.806   8.277   6.793  0.00  0.00    +0.156 HD
BRANCH  11  25
ATOM     25  C   UNL     1      18.630   8.476   5.842  0.00  0.00    +0.035 A 
ATOM     28  C   UNL     1      18.846   8.025   4.540  0.00  0.00    +0.027 A 
ATOM     29  C   UNL     1      19.680   8.483   6.761  0.00  0.00    +0.027 A 
ATOM     32  C   UNL     1      20.111   7.579   4.156  0.00  0.00    +0.047 A 
ATOM     33  C   UNL     1      20.945   8.039   6.377  0.00  0.00    +0.047 A 
ATOM     34  C   UNL     1      21.160   7.587   5.076  0.00  0.00    +0.120 A 
BRANCH  34   7
ATOM      7  O   UNL     1      22.396   7.155   4.701  0.00  0.00    -0.495 OA
ATOM     35  C   UNL     1      23.405   8.148   4.522  0.00  0.00    +0.277 C 
ENDBRANCH  34   7
ENDBRANCH  11  25
ENDBRANCH  13   9
BRANCH  14  17
ATOM      3  O   UNL     1      13.278   8.414   7.053  0.00  0.00    -0.274 OA
ATOM     10  N   UNL     1      11.461   8.392   5.597  0.00  0.00    -0.302 N 
ATOM     17  C   UNL     1      12.424   8.995   6.387  0.00  0.00    +0.234 C 
ATOM     37  H   UNL     1      10.823   8.975   5.063  0.00  0.00    +0.150 HD
BRANCH  10  19
ATOM     19  C   UNL     1      11.339   6.958   5.456  0.00  0.00    +0.163 C 
BRANCH  19  23
ATOM      6  O   UNL     1      12.982   6.764   3.675  0.00  0.00    -0.274 OA
ATOM     12  N   UNL     1      10.839   6.037   3.278  0.00  0.00    -0.328 N 
ATOM     23  C   UNL     1      11.825   6.605   4.057  0.00  0.00    +0.231 C 
ATOM     39  H   UNL     1      11.034   5.741   2.327  0.00  0.00    +0.145 HD
ATOM     40  H   UNL     1       9.887   5.908   3.607  0.00  0.00    +0.145 HD
ENDBRANCH  19  23
BRANCH  19  22
ATOM     22  C   UNL     1       9.898   6.474   5.660  0.00  0.00    +0.074 C 
BRANCH  22  24
ATOM      2  S   UNL     1       9.113   6.731   8.321  0.00  0.00    -0.102 S 
ATOM     24  C   UNL     1       9.701   5.810   7.002  0.00  0.00    -0.008 A 
ATOM     27  C   UNL     1       9.937   4.499   7.353  0.00  0.00    +0.011 A 
ATOM     30  C   UNL     1       9.630   4.247   8.721  0.00  0.00    +0.008 A 
ATOM     31  C   UNL     1       9.172   5.375   9.364  0.00  0.00    +0.045 A 
ENDBRANCH  22  24
ENDBRANCH  19  22
ENDBRANCH  10  19
ENDBRANCH  14  17
BRANCH  18  20
ATOM     20  C   UNL     1      12.083  11.760   9.930  0.00  0.00    +0.164 C 
BRANCH  20   1
ATOM      1  S   UNL     1      10.585  12.028  10.888  0.00  0.00    -0.155 S 
ATOM     26  C   UNL     1      11.010  13.624  11.630  0.00  0.00    +0.085 C 
ENDBRANCH  20   1
ENDBRANCH  18  20
TORSDOF 10
ENDMDL
