MODEL 1
REMARK VINA RESULT:      -8.7      0.000      0.000
REMARK  Name = 11911995
REMARK  7 active torsions:
REMARK  status: ('A' for Active; 'I' for Inactive)
REMARK    1  A    between atoms: O_3  and  C_13
REMARK    2  A    between atoms: O_3  and  C_17
REMARK    3  A    between atoms: O_5  and  C_29
REMARK    4  A    between atoms: O_5  and  C_33
REMARK    5  A    between atoms: N_6  and  C_12
REMARK    6  A    between atoms: N_9  and  C_21
REMARK    7  A    between atoms: C_18  and  C_22
REMARK                            x       y       z     vdW  Elec       q    Type
REMARK                         _______ _______ _______ _____ _____    ______ ____
ROOT
ATOM      1  O   UNL     1      -4.456  -9.083  10.103  0.00  0.00    -0.368 OA
ATOM      2  O   UNL     1      -5.891 -11.791  10.257  0.00  0.00    -0.368 OA
ATOM     10  C   UNL     1      -4.533 -11.409  10.562  0.00  0.00    +0.173 C 
ATOM     11  C   UNL     1      -4.131 -10.365   9.538  0.00  0.00    +0.192 C 
ATOM     12  C   UNL     1      -4.487 -10.668  11.878  0.00  0.00    +0.130 C 
ATOM     13  C   UNL     1      -5.018 -10.699   8.364  0.00  0.00    +0.235 C 
ATOM     14  C   UNL     1      -4.866  -9.256  11.468  0.00  0.00    +0.185 C 
ATOM     15  C   UNL     1      -6.295 -11.140   9.044  0.00  0.00    +0.207 C 
ENDROOT
BRANCH  12   6
ATOM      6  N   UNL     1      -3.144 -10.691  12.419  0.00  0.00    -0.306 N 
ATOM      7  N   UNL     1      -3.923 -10.593  14.605  0.00  0.00    -0.214 NA
ATOM      8  N   UNL     1      -1.564 -10.684  14.120  0.00  0.00    -0.223 NA
ATOM     16  C   UNL     1      -2.865 -10.654  13.774  0.00  0.00    +0.216 A 
ATOM     18  C   UNL     1      -3.613 -10.559  15.917  0.00  0.00    +0.076 A 
ATOM     19  C   UNL     1      -1.327 -10.647  15.448  0.00  0.00    +0.116 A 
ATOM     20  C   UNL     1      -2.321 -10.584  16.403  0.00  0.00    +0.048 A 
ATOM     39  H   UNL     1      -2.355 -10.789  11.790  0.00  0.00    +0.149 HD
BRANCH  18  22
ATOM     22  C   UNL     1      -4.744 -10.495  16.812  0.00  0.00    +0.001 A 
ATOM     25  C   UNL     1      -5.921  -9.866  16.403  0.00  0.00    +0.010 A 
ATOM     26  C   UNL     1      -4.662 -11.062  18.084  0.00  0.00    +0.010 A 
ATOM     30  C   UNL     1      -7.015  -9.805  17.267  0.00  0.00    +0.001 A 
ATOM     31  C   UNL     1      -5.756 -11.000  18.947  0.00  0.00    +0.001 A 
ATOM     32  C   UNL     1      -6.933 -10.372  18.539  0.00  0.00    +0.000 A 
ENDBRANCH  18  22
ENDBRANCH  12   6
BRANCH  13   3
ATOM      3  O   UNL     1      -5.230  -9.613   7.491  0.00  0.00    -0.442 OA
BRANCH   3  17
ATOM      4  O   UNL     1      -7.263  -9.617   6.443  0.00  0.00    -0.226 OA
ATOM      9  N   UNL     1      -6.837  -8.249   8.294  0.00  0.00    -0.251 N 
ATOM     17  C   UNL     1      -6.533  -9.189   7.328  0.00  0.00    +0.405 C 
ATOM     40  H   UNL     1      -6.093  -8.020   8.949  0.00  0.00    +0.158 HD
BRANCH   9  21
ATOM     21  C   UNL     1      -8.057  -7.562   8.487  0.00  0.00    +0.037 A 
ATOM     23  C   UNL     1      -8.155  -6.209   8.164  0.00  0.00    +0.027 A 
ATOM     24  C   UNL     1      -9.165  -8.240   8.997  0.00  0.00    +0.027 A 
ATOM     27  C   UNL     1      -9.360  -5.532   8.353  0.00  0.00    +0.048 A 
ATOM     28  C   UNL     1     -10.369  -7.563   9.186  0.00  0.00    +0.048 A 
ATOM     29  C   UNL     1     -10.468  -6.210   8.864  0.00  0.00    +0.129 A 
BRANCH  29   5
ATOM      5  O   UNL     1     -11.643  -5.549   9.048  0.00  0.00    -0.456 OA
BRANCH   5  33
ATOM     33  C   UNL     1     -11.940  -5.107  10.327  0.00  0.00    +0.128 A 
ATOM     34  C   UNL     1     -11.787  -3.758  10.651  0.00  0.00    +0.046 A 
ATOM     35  C   UNL     1     -12.389  -6.009  11.290  0.00  0.00    +0.046 A 
ATOM     36  C   UNL     1     -12.084  -3.312  11.938  0.00  0.00    +0.004 A 
ATOM     37  C   UNL     1     -12.686  -5.563  12.579  0.00  0.00    +0.004 A 
ATOM     38  C   UNL     1     -12.534  -4.214  12.902  0.00  0.00    +0.000 A 
ENDBRANCH   5  33
ENDBRANCH  29   5
ENDBRANCH   9  21
ENDBRANCH   3  17
ENDBRANCH  13   3
TORSDOF 7
ENDMDL
MODEL 2
REMARK VINA RESULT:      -8.4     19.123     21.387
REMARK  Name = 11911995
REMARK  7 active torsions:
REMARK  status: ('A' for Active; 'I' for Inactive)
REMARK    1  A    between atoms: O_3  and  C_13
REMARK    2  A    between atoms: O_3  and  C_17
REMARK    3  A    between atoms: O_5  and  C_29
REMARK    4  A    between atoms: O_5  and  C_33
REMARK    5  A    between atoms: N_6  and  C_12
REMARK    6  A    between atoms: N_9  and  C_21
REMARK    7  A    between atoms: C_18  and  C_22
REMARK                            x       y       z     vdW  Elec       q    Type
REMARK                         _______ _______ _______ _____ _____    ______ ____
ROOT
ATOM      1  O   UNL     1     -16.295   1.293  25.365  0.00  0.00    -0.368 OA
ATOM      2  O   UNL     1     -19.103   2.235  26.169  0.00  0.00    -0.368 OA
ATOM     10  C   UNL     1     -18.291   1.136  26.635  0.00  0.00    +0.173 C 
ATOM     11  C   UNL     1     -17.549   0.595  25.429  0.00  0.00    +0.192 C 
ATOM     12  C   UNL     1     -17.194   1.650  27.539  0.00  0.00    +0.130 C 
ATOM     13  C   UNL     1     -18.460   0.976  24.287  0.00  0.00    +0.235 C 
ATOM     14  C   UNL     1     -16.139   2.099  26.543  0.00  0.00    +0.185 C 
ATOM     15  C   UNL     1     -18.996   2.315  24.740  0.00  0.00    +0.207 C 
ENDROOT
BRANCH  12   6
ATOM      6  N   UNL     1     -16.682   0.578  28.366  0.00  0.00    -0.306 N 
ATOM      7  N   UNL     1     -15.854   2.066  29.946  0.00  0.00    -0.214 NA
ATOM      8  N   UNL     1     -15.602  -0.315  30.217  0.00  0.00    -0.223 NA
ATOM     16  C   UNL     1     -16.017   0.785  29.562  0.00  0.00    +0.216 A 
ATOM     18  C   UNL     1     -15.201   2.230  31.115  0.00  0.00    +0.076 A 
ATOM     19  C   UNL     1     -14.957  -0.077  31.379  0.00  0.00    +0.116 A 
ATOM     20  C   UNL     1     -14.727   1.186  31.882  0.00  0.00    +0.048 A 
ATOM     39  H   UNL     1     -16.854  -0.384  28.098  0.00  0.00    +0.149 HD
BRANCH  18  22
ATOM     22  C   UNL     1     -15.026   3.601  31.530  0.00  0.00    +0.001 A 
ATOM     25  C   UNL     1     -14.003   3.935  32.418  0.00  0.00    +0.010 A 
ATOM     26  C   UNL     1     -15.878   4.593  31.044  0.00  0.00    +0.010 A 
ATOM     30  C   UNL     1     -13.832   5.260  32.820  0.00  0.00    +0.001 A 
ATOM     31  C   UNL     1     -15.707   5.918  31.446  0.00  0.00    +0.001 A 
ATOM     32  C   UNL     1     -14.684   6.252  32.334  0.00  0.00    +0.000 A 
ENDBRANCH  18  22
ENDBRANCH  12   6
BRANCH  13   3
ATOM      3  O   UNL     1     -17.800   1.062  23.045  0.00  0.00    -0.442 OA
BRANCH   3  17
ATOM      4  O   UNL     1     -18.402   2.873  21.785  0.00  0.00    -0.226 OA
ATOM      9  N   UNL     1     -16.396   2.826  22.991  0.00  0.00    -0.251 N 
ATOM     17  C   UNL     1     -17.599   2.326  22.531  0.00  0.00    +0.405 C 
ATOM     40  H   UNL     1     -15.863   2.218  23.609  0.00  0.00    +0.158 HD
BRANCH   9  21
ATOM     21  C   UNL     1     -15.811   4.082  22.710  0.00  0.00    +0.037 A 
ATOM     23  C   UNL     1     -16.108   4.737  21.515  0.00  0.00    +0.027 A 
ATOM     24  C   UNL     1     -14.939   4.666  23.628  0.00  0.00    +0.027 A 
ATOM     27  C   UNL     1     -15.531   5.977  21.238  0.00  0.00    +0.048 A 
ATOM     28  C   UNL     1     -14.362   5.905  23.351  0.00  0.00    +0.048 A 
ATOM     29  C   UNL     1     -14.658   6.561  22.157  0.00  0.00    +0.129 A 
BRANCH  29   5
ATOM      5  O   UNL     1     -14.095   7.770  21.887  0.00  0.00    -0.456 OA
BRANCH   5  33
ATOM     33  C   UNL     1     -13.276   7.865  20.774  0.00  0.00    +0.128 A 
ATOM     34  C   UNL     1     -13.697   8.590  19.658  0.00  0.00    +0.046 A 
ATOM     35  C   UNL     1     -12.032   7.235  20.767  0.00  0.00    +0.046 A 
ATOM     36  C   UNL     1     -12.874   8.685  18.537  0.00  0.00    +0.004 A 
ATOM     37  C   UNL     1     -11.208   7.329  19.644  0.00  0.00    +0.004 A 
ATOM     38  C   UNL     1     -11.630   8.055  18.530  0.00  0.00    +0.000 A 
ENDBRANCH   5  33
ENDBRANCH  29   5
ENDBRANCH   9  21
ENDBRANCH   3  17
ENDBRANCH  13   3
TORSDOF 7
ENDMDL
MODEL 3
REMARK VINA RESULT:      -8.1      5.834      9.135
REMARK  Name = 11911995
REMARK  7 active torsions:
REMARK  status: ('A' for Active; 'I' for Inactive)
REMARK    1  A    between atoms: O_3  and  C_13
REMARK    2  A    between atoms: O_3  and  C_17
REMARK    3  A    between atoms: O_5  and  C_29
REMARK    4  A    between atoms: O_5  and  C_33
REMARK    5  A    between atoms: N_6  and  C_12
REMARK    6  A    between atoms: N_9  and  C_21
REMARK    7  A    between atoms: C_18  and  C_22
REMARK                            x       y       z     vdW  Elec       q    Type
REMARK                         _______ _______ _______ _____ _____    ______ ____
ROOT
ATOM      1  O   UNL     1      -5.758 -12.210  19.145  0.00  0.00    -0.368 OA
ATOM      2  O   UNL     1      -7.125 -11.530  16.483  0.00  0.00    -0.368 OA
ATOM     10  C   UNL     1      -5.882 -11.080  17.064  0.00  0.00    +0.173 C 
ATOM     11  C   UNL     1      -6.117 -10.949  18.556  0.00  0.00    +0.192 C 
ATOM     12  C   UNL     1      -4.836 -12.165  16.952  0.00  0.00    +0.130 C 
ATOM     13  C   UNL     1      -7.603 -10.699  18.633  0.00  0.00    +0.235 C 
ATOM     14  C   UNL     1      -5.156 -13.047  18.146  0.00  0.00    +0.185 C 
ATOM     15  C   UNL     1      -8.131 -11.560  17.506  0.00  0.00    +0.207 C 
ENDROOT
BRANCH  12   6
ATOM      6  N   UNL     1      -3.510 -11.599  17.085  0.00  0.00    -0.306 N 
ATOM      7  N   UNL     1      -3.429 -11.018  14.838  0.00  0.00    -0.214 NA
ATOM      8  N   UNL     1      -1.589 -10.544  16.320  0.00  0.00    -0.223 NA
ATOM     16  C   UNL     1      -2.812 -11.029  16.035  0.00  0.00    +0.216 A 
ATOM     18  C   UNL     1      -2.720 -10.455  13.838  0.00  0.00    +0.076 A 
ATOM     19  C   UNL     1      -0.936  -9.996  15.274  0.00  0.00    +0.116 A 
ATOM     20  C   UNL     1      -1.457  -9.922  13.999  0.00  0.00    +0.048 A 
ATOM     39  H   UNL     1      -3.074 -11.564  17.999  0.00  0.00    +0.149 HD
BRANCH  18  22
ATOM     22  C   UNL     1      -3.378 -10.440  12.554  0.00  0.00    +0.001 A 
ATOM     25  C   UNL     1      -2.712  -9.940  11.435  0.00  0.00    +0.010 A 
ATOM     26  C   UNL     1      -4.681 -10.924  12.431  0.00  0.00    +0.010 A 
ATOM     30  C   UNL     1      -3.347  -9.926  10.193  0.00  0.00    +0.001 A 
ATOM     31  C   UNL     1      -5.316 -10.910  11.189  0.00  0.00    +0.001 A 
ATOM     32  C   UNL     1      -4.649 -10.410  10.070  0.00  0.00    +0.000 A 
ENDBRANCH  18  22
ENDBRANCH  12   6
BRANCH  13   3
ATOM      3  O   UNL     1      -8.170 -11.047  19.876  0.00  0.00    -0.442 OA
BRANCH   3  17
ATOM      4  O   UNL     1      -9.989 -12.424  20.036  0.00  0.00    -0.226 OA
ATOM      9  N   UNL     1     -10.218 -10.114  19.733  0.00  0.00    -0.251 N 
ATOM     17  C   UNL     1      -9.526 -11.299  19.894  0.00  0.00    +0.405 C 
ATOM     40  H   UNL     1      -9.654  -9.274  19.629  0.00  0.00    +0.158 HD
BRANCH   9  21
ATOM     21  C   UNL     1     -11.618  -9.922  19.693  0.00  0.00    +0.037 A 
ATOM     23  C   UNL     1     -12.363  -9.972  20.871  0.00  0.00    +0.027 A 
ATOM     24  C   UNL     1     -12.254  -9.679  18.475  0.00  0.00    +0.027 A 
ATOM     27  C   UNL     1     -13.744  -9.781  20.832  0.00  0.00    +0.048 A 
ATOM     28  C   UNL     1     -13.635  -9.489  18.436  0.00  0.00    +0.048 A 
ATOM     29  C   UNL     1     -14.380  -9.539  19.613  0.00  0.00    +0.129 A 
BRANCH  29   5
ATOM      5  O   UNL     1     -15.727  -9.353  19.575  0.00  0.00    -0.456 OA
BRANCH   5  33
ATOM     33  C   UNL     1     -16.213  -8.094  19.888  0.00  0.00    +0.128 A 
ATOM     34  C   UNL     1     -16.688  -7.258  18.877  0.00  0.00    +0.046 A 
ATOM     35  C   UNL     1     -16.224  -7.661  21.213  0.00  0.00    +0.046 A 
ATOM     36  C   UNL     1     -17.175  -5.990  19.191  0.00  0.00    +0.004 A 
ATOM     37  C   UNL     1     -16.711  -6.391  21.528  0.00  0.00    +0.004 A 
ATOM     38  C   UNL     1     -17.187  -5.557  20.517  0.00  0.00    +0.000 A 
ENDBRANCH   5  33
ENDBRANCH  29   5
ENDBRANCH   9  21
ENDBRANCH   3  17
ENDBRANCH  13   3
TORSDOF 7
ENDMDL
MODEL 4
REMARK VINA RESULT:      -8.1      5.017      9.380
REMARK  Name = 11911995
REMARK  7 active torsions:
REMARK  status: ('A' for Active; 'I' for Inactive)
REMARK    1  A    between atoms: O_3  and  C_13
REMARK    2  A    between atoms: O_3  and  C_17
REMARK    3  A    between atoms: O_5  and  C_29
REMARK    4  A    between atoms: O_5  and  C_33
REMARK    5  A    between atoms: N_6  and  C_12
REMARK    6  A    between atoms: N_9  and  C_21
REMARK    7  A    between atoms: C_18  and  C_22
REMARK                            x       y       z     vdW  Elec       q    Type
REMARK                         _______ _______ _______ _____ _____    ______ ____
ROOT
ATOM      1  O   UNL     1      -4.155  -9.571   9.567  0.00  0.00    -0.368 OA
ATOM      2  O   UNL     1      -6.206 -11.630  10.552  0.00  0.00    -0.368 OA
ATOM     10  C   UNL     1      -4.782 -11.521  10.761  0.00  0.00    +0.173 C 
ATOM     11  C   UNL     1      -4.186 -11.004   9.467  0.00  0.00    +0.192 C 
ATOM     12  C   UNL     1      -4.488 -10.428  11.762  0.00  0.00    +0.130 C 
ATOM     13  C   UNL     1      -5.185 -11.471   8.437  0.00  0.00    +0.235 C 
ATOM     14  C   UNL     1      -4.527  -9.180  10.898  0.00  0.00    +0.185 C 
ATOM     15  C   UNL     1      -6.496 -11.332   9.179  0.00  0.00    +0.207 C 
ENDROOT
BRANCH  12   6
ATOM      6  N   UNL     1      -3.167 -10.607  12.328  0.00  0.00    -0.306 N 
ATOM      7  N   UNL     1      -3.982 -10.513  14.501  0.00  0.00    -0.214 NA
ATOM      8  N   UNL     1      -1.634 -10.824  14.058  0.00  0.00    -0.223 NA
ATOM     16  C   UNL     1      -2.917 -10.650  13.688  0.00  0.00    +0.216 A 
ATOM     18  C   UNL     1      -3.701 -10.560  15.819  0.00  0.00    +0.076 A 
ATOM     19  C   UNL     1      -1.425 -10.861  15.390  0.00  0.00    +0.116 A 
ATOM     20  C   UNL     1      -2.430 -10.734  16.327  0.00  0.00    +0.048 A 
ATOM     39  H   UNL     1      -2.378 -10.761  11.711  0.00  0.00    +0.149 HD
BRANCH  18  22
ATOM     22  C   UNL     1      -4.841 -10.415  16.693  0.00  0.00    +0.001 A 
ATOM     25  C   UNL     1      -4.808 -10.961  17.977  0.00  0.00    +0.010 A 
ATOM     26  C   UNL     1      -5.975  -9.731  16.256  0.00  0.00    +0.010 A 
ATOM     30  C   UNL     1      -5.908 -10.821  18.823  0.00  0.00    +0.001 A 
ATOM     31  C   UNL     1      -7.075  -9.591  17.101  0.00  0.00    +0.001 A 
ATOM     32  C   UNL     1      -7.042 -10.136  18.385  0.00  0.00    +0.000 A 
ENDBRANCH  18  22
ENDBRANCH  12   6
BRANCH  13   3
ATOM      3  O   UNL     1      -5.166 -10.713   7.249  0.00  0.00    -0.442 OA
BRANCH   3  17
ATOM      4  O   UNL     1      -5.836 -11.440   5.186  0.00  0.00    -0.226 OA
ATOM      9  N   UNL     1      -3.750 -12.019   6.075  0.00  0.00    -0.251 N 
ATOM     17  C   UNL     1      -4.989 -11.407   6.070  0.00  0.00    +0.405 C 
ATOM     40  H   UNL     1      -3.181 -11.875   6.906  0.00  0.00    +0.158 HD
BRANCH   9  21
ATOM     21  C   UNL     1      -3.172 -12.824   5.067  0.00  0.00    +0.037 A 
ATOM     23  C   UNL     1      -2.825 -14.146   5.344  0.00  0.00    +0.027 A 
ATOM     24  C   UNL     1      -2.951 -12.296   3.795  0.00  0.00    +0.027 A 
ATOM     27  C   UNL     1      -2.256 -14.941   4.348  0.00  0.00    +0.048 A 
ATOM     28  C   UNL     1      -2.382 -13.091   2.800  0.00  0.00    +0.048 A 
ATOM     29  C   UNL     1      -2.035 -14.413   3.076  0.00  0.00    +0.129 A 
BRANCH  29   5
ATOM      5  O   UNL     1      -1.480 -15.188   2.105  0.00  0.00    -0.456 OA
BRANCH   5  33
ATOM     33  C   UNL     1      -0.236 -14.820   1.620  0.00  0.00    +0.128 A 
ATOM     34  C   UNL     1       0.872 -14.822   2.468  0.00  0.00    +0.046 A 
ATOM     35  C   UNL     1      -0.091 -14.446   0.284  0.00  0.00    +0.046 A 
ATOM     36  C   UNL     1       2.124 -14.450   1.980  0.00  0.00    +0.004 A 
ATOM     37  C   UNL     1       1.162 -14.074  -0.205  0.00  0.00    +0.004 A 
ATOM     38  C   UNL     1       2.269 -14.076   0.644  0.00  0.00    +0.000 A 
ENDBRANCH   5  33
ENDBRANCH  29   5
ENDBRANCH   9  21
ENDBRANCH   3  17
ENDBRANCH  13   3
TORSDOF 7
ENDMDL
MODEL 5
REMARK VINA RESULT:      -7.8     28.283     31.915
REMARK  Name = 11911995
REMARK  7 active torsions:
REMARK  status: ('A' for Active; 'I' for Inactive)
REMARK    1  A    between atoms: O_3  and  C_13
REMARK    2  A    between atoms: O_3  and  C_17
REMARK    3  A    between atoms: O_5  and  C_29
REMARK    4  A    between atoms: O_5  and  C_33
REMARK    5  A    between atoms: N_6  and  C_12
REMARK    6  A    between atoms: N_9  and  C_21
REMARK    7  A    between atoms: C_18  and  C_22
REMARK                            x       y       z     vdW  Elec       q    Type
REMARK                         _______ _______ _______ _____ _____    ______ ____
ROOT
ATOM      1  O   UNL     1      22.323   7.885  22.196  0.00  0.00    -0.368 OA
ATOM      2  O   UNL     1      21.442   6.011  24.461  0.00  0.00    -0.368 OA
ATOM     10  C   UNL     1      21.831   5.747  23.096  0.00  0.00    +0.173 C 
ATOM     11  C   UNL     1      21.289   6.888  22.257  0.00  0.00    +0.192 C 
ATOM     12  C   UNL     1      23.330   5.866  22.952  0.00  0.00    +0.130 C 
ATOM     13  C   UNL     1      20.106   7.358  23.067  0.00  0.00    +0.235 C 
ATOM     14  C   UNL     1      23.521   7.364  22.790  0.00  0.00    +0.185 C 
ATOM     15  C   UNL     1      20.597   7.170  24.486  0.00  0.00    +0.207 C 
ENDROOT
BRANCH  12   6
ATOM      6  N   UNL     1      23.777   5.171  21.763  0.00  0.00    -0.306 N 
ATOM      7  N   UNL     1      23.739   3.112  22.838  0.00  0.00    -0.214 NA
ATOM      8  N   UNL     1      24.395   3.305  20.527  0.00  0.00    -0.223 NA
ATOM     16  C   UNL     1      23.980   3.803  21.707  0.00  0.00    +0.216 A 
ATOM     18  C   UNL     1      23.947   1.783  22.747  0.00  0.00    +0.076 A 
ATOM     19  C   UNL     1      24.583   1.969  20.507  0.00  0.00    +0.116 A 
ATOM     20  C   UNL     1      24.372   1.149  21.597  0.00  0.00    +0.048 A 
ATOM     39  H   UNL     1      23.906   5.690  20.902  0.00  0.00    +0.149 HD
BRANCH  18  22
ATOM     22  C   UNL     1      23.689   1.039  23.956  0.00  0.00    +0.001 A 
ATOM     25  C   UNL     1      24.659   0.173  24.462  0.00  0.00    +0.010 A 
ATOM     26  C   UNL     1      22.471   1.185  24.620  0.00  0.00    +0.010 A 
ATOM     30  C   UNL     1      24.411  -0.546  25.631  0.00  0.00    +0.001 A 
ATOM     31  C   UNL     1      22.223   0.466  25.789  0.00  0.00    +0.001 A 
ATOM     32  C   UNL     1      23.193  -0.400  26.295  0.00  0.00    +0.000 A 
ENDBRANCH  18  22
ENDBRANCH  12   6
BRANCH  13   3
ATOM      3  O   UNL     1      19.739   8.693  22.806  0.00  0.00    -0.442 OA
BRANCH   3  17
ATOM      4  O   UNL     1      18.593   9.901  21.238  0.00  0.00    -0.226 OA
ATOM      9  N   UNL     1      17.847   7.802  21.959  0.00  0.00    -0.251 N 
ATOM     17  C   UNL     1      18.697   8.892  21.924  0.00  0.00    +0.405 C 
ATOM     40  H   UNL     1      18.103   7.054  22.599  0.00  0.00    +0.158 HD
BRANCH   9  21
ATOM     21  C   UNL     1      16.663   7.598  21.216  0.00  0.00    +0.037 A 
ATOM     23  C   UNL     1      16.656   6.701  20.148  0.00  0.00    +0.027 A 
ATOM     24  C   UNL     1      15.500   8.291  21.553  0.00  0.00    +0.027 A 
ATOM     27  C   UNL     1      15.486   6.498  19.415  0.00  0.00    +0.048 A 
ATOM     28  C   UNL     1      14.331   8.088  20.821  0.00  0.00    +0.048 A 
ATOM     29  C   UNL     1      14.323   7.192  19.752  0.00  0.00    +0.129 A 
BRANCH  29   5
ATOM      5  O   UNL     1      13.182   6.994  19.038  0.00  0.00    -0.456 OA
BRANCH   5  33
ATOM     33  C   UNL     1      12.967   7.800  17.932  0.00  0.00    +0.128 A 
ATOM     34  C   UNL     1      14.040   8.176  17.124  0.00  0.00    +0.046 A 
ATOM     35  C   UNL     1      11.677   8.236  17.627  0.00  0.00    +0.046 A 
ATOM     36  C   UNL     1      13.824   8.988  16.011  0.00  0.00    +0.004 A 
ATOM     37  C   UNL     1      11.461   9.049  16.514  0.00  0.00    +0.004 A 
ATOM     38  C   UNL     1      12.535   9.424  15.706  0.00  0.00    +0.000 A 
ENDBRANCH   5  33
ENDBRANCH  29   5
ENDBRANCH   9  21
ENDBRANCH   3  17
ENDBRANCH  13   3
TORSDOF 7
ENDMDL
MODEL 6
REMARK VINA RESULT:      -7.7      5.569      7.760
REMARK  Name = 11911995
REMARK  7 active torsions:
REMARK  status: ('A' for Active; 'I' for Inactive)
REMARK    1  A    between atoms: O_3  and  C_13
REMARK    2  A    between atoms: O_3  and  C_17
REMARK    3  A    between atoms: O_5  and  C_29
REMARK    4  A    between atoms: O_5  and  C_33
REMARK    5  A    between atoms: N_6  and  C_12
REMARK    6  A    between atoms: N_9  and  C_21
REMARK    7  A    between atoms: C_18  and  C_22
REMARK                            x       y       z     vdW  Elec       q    Type
REMARK                         _______ _______ _______ _____ _____    ______ ____
ROOT
ATOM      1  O   UNL     1     -12.632  -8.235  14.902  0.00  0.00    -0.368 OA
ATOM      2  O   UNL     1     -10.673  -5.938  15.452  0.00  0.00    -0.368 OA
ATOM     10  C   UNL     1     -11.368  -6.837  16.342  0.00  0.00    +0.173 C 
ATOM     11  C   UNL     1     -12.740  -7.074  15.743  0.00  0.00    +0.192 C 
ATOM     12  C   UNL     1     -10.716  -8.200  16.313  0.00  0.00    +0.130 C 
ATOM     13  C   UNL     1     -12.966  -5.819  14.936  0.00  0.00    +0.235 C 
ATOM     14  C   UNL     1     -11.337  -8.830  15.078  0.00  0.00    +0.185 C 
ATOM     15  C   UNL     1     -11.577  -5.517  14.420  0.00  0.00    +0.207 C 
ENDROOT
BRANCH  12   6
ATOM      6  N   UNL     1     -11.075  -8.954  17.496  0.00  0.00    -0.306 N 
ATOM      7  N   UNL     1      -8.919  -9.784  17.736  0.00  0.00    -0.214 NA
ATOM      8  N   UNL     1     -10.668 -10.377  19.284  0.00  0.00    -0.223 NA
ATOM     16  C   UNL     1     -10.182  -9.740  18.203  0.00  0.00    +0.216 A 
ATOM     18  C   UNL     1      -8.077 -10.559  18.449  0.00  0.00    +0.076 A 
ATOM     19  C   UNL     1      -9.771 -11.135  19.949  0.00  0.00    +0.116 A 
ATOM     20  C   UNL     1      -8.450 -11.264  19.575  0.00  0.00    +0.048 A 
ATOM     39  H   UNL     1     -12.013  -8.874  17.871  0.00  0.00    +0.149 HD
BRANCH  18  22
ATOM     22  C   UNL     1      -6.722 -10.609  17.953  0.00  0.00    +0.001 A 
ATOM     25  C   UNL     1      -5.741 -11.291  18.672  0.00  0.00    +0.010 A 
ATOM     26  C   UNL     1      -6.394  -9.974  16.754  0.00  0.00    +0.010 A 
ATOM     30  C   UNL     1      -4.432 -11.340  18.193  0.00  0.00    +0.001 A 
ATOM     31  C   UNL     1      -5.085 -10.023  16.275  0.00  0.00    +0.001 A 
ATOM     32  C   UNL     1      -4.103 -10.706  16.994  0.00  0.00    +0.000 A 
ENDBRANCH  18  22
ENDBRANCH  12   6
BRANCH  13   3
ATOM      3  O   UNL     1     -13.897  -5.982  13.889  0.00  0.00    -0.442 OA
BRANCH   3  17
ATOM      4  O   UNL     1     -14.203  -3.751  13.486  0.00  0.00    -0.226 OA
ATOM      9  N   UNL     1     -14.167  -5.321  11.750  0.00  0.00    -0.251 N 
ATOM     17  C   UNL     1     -14.102  -4.896  13.063  0.00  0.00    +0.405 C 
ATOM     40  H   UNL     1     -14.059  -6.320  11.595  0.00  0.00    +0.158 HD
BRANCH   9  21
ATOM     21  C   UNL     1     -14.365  -4.537  10.590  0.00  0.00    +0.037 A 
ATOM     23  C   UNL     1     -13.277  -3.920   9.972  0.00  0.00    +0.027 A 
ATOM     24  C   UNL     1     -15.647  -4.383  10.064  0.00  0.00    +0.027 A 
ATOM     27  C   UNL     1     -13.473  -3.147   8.826  0.00  0.00    +0.048 A 
ATOM     28  C   UNL     1     -15.842  -3.611   8.919  0.00  0.00    +0.048 A 
ATOM     29  C   UNL     1     -14.756  -2.993   8.300  0.00  0.00    +0.129 A 
BRANCH  29   5
ATOM      5  O   UNL     1     -14.947  -2.240   7.183  0.00  0.00    -0.456 OA
BRANCH   5  33
ATOM     33  C   UNL     1     -14.709  -0.879   7.276  0.00  0.00    +0.128 A 
ATOM     34  C   UNL     1     -13.665  -0.302   6.553  0.00  0.00    +0.046 A 
ATOM     35  C   UNL     1     -15.513  -0.085   8.093  0.00  0.00    +0.046 A 
ATOM     36  C   UNL     1     -13.425   1.069   6.647  0.00  0.00    +0.004 A 
ATOM     37  C   UNL     1     -15.273   1.287   8.189  0.00  0.00    +0.004 A 
ATOM     38  C   UNL     1     -14.228   1.862   7.465  0.00  0.00    +0.000 A 
ENDBRANCH   5  33
ENDBRANCH  29   5
ENDBRANCH   9  21
ENDBRANCH   3  17
ENDBRANCH  13   3
TORSDOF 7
ENDMDL
MODEL 7
REMARK VINA RESULT:      -7.6     19.790     22.377
REMARK  Name = 11911995
REMARK  7 active torsions:
REMARK  status: ('A' for Active; 'I' for Inactive)
REMARK    1  A    between atoms: O_3  and  C_13
REMARK    2  A    between atoms: O_3  and  C_17
REMARK    3  A    between atoms: O_5  and  C_29
REMARK    4  A    between atoms: O_5  and  C_33
REMARK    5  A    between atoms: N_6  and  C_12
REMARK    6  A    between atoms: N_9  and  C_21
REMARK    7  A    between atoms: C_18  and  C_22
REMARK                            x       y       z     vdW  Elec       q    Type
REMARK                         _______ _______ _______ _____ _____    ______ ____
ROOT
ATOM      1  O   UNL     1     -15.903   2.089  25.586  0.00  0.00    -0.368 OA
ATOM      2  O   UNL     1     -18.923   2.458  25.987  0.00  0.00    -0.368 OA
ATOM     10  C   UNL     1     -18.024   1.406  26.397  0.00  0.00    +0.173 C 
ATOM     11  C   UNL     1     -17.015   1.231  25.279  0.00  0.00    +0.192 C 
ATOM     12  C   UNL     1     -17.193   1.863  27.573  0.00  0.00    +0.130 C 
ATOM     13  C   UNL     1     -17.778   1.714  24.070  0.00  0.00    +0.235 C 
ATOM     14  C   UNL     1     -16.081   2.646  26.897  0.00  0.00    +0.185 C 
ATOM     15  C   UNL     1     -18.600   2.847  24.644  0.00  0.00    +0.207 C 
ENDROOT
BRANCH  12   6
ATOM      6  N   UNL     1     -16.648   0.722  28.277  0.00  0.00    -0.306 N 
ATOM      7  N   UNL     1     -15.944   2.037  30.057  0.00  0.00    -0.214 NA
ATOM      8  N   UNL     1     -15.576  -0.345  30.039  0.00  0.00    -0.223 NA
ATOM     16  C   UNL     1     -16.029   0.808  29.511  0.00  0.00    +0.216 A 
ATOM     18  C   UNL     1     -15.335   2.084  31.259  0.00  0.00    +0.076 A 
ATOM     19  C   UNL     1     -14.977  -0.224  31.242  0.00  0.00    +0.116 A 
ATOM     20  C   UNL     1     -14.828   0.975  31.907  0.00  0.00    +0.048 A 
ATOM     39  H   UNL     1     -16.762  -0.206  27.885  0.00  0.00    +0.149 HD
BRANCH  18  22
ATOM     22  C   UNL     1     -15.243   3.398  31.848  0.00  0.00    +0.001 A 
ATOM     25  C   UNL     1     -13.993   3.976  32.073  0.00  0.00    +0.010 A 
ATOM     26  C   UNL     1     -16.404   4.092  32.193  0.00  0.00    +0.010 A 
ATOM     30  C   UNL     1     -13.904   5.246  32.641  0.00  0.00    +0.001 A 
ATOM     31  C   UNL     1     -16.314   5.362  32.762  0.00  0.00    +0.001 A 
ATOM     32  C   UNL     1     -15.064   5.940  32.986  0.00  0.00    +0.000 A 
ENDBRANCH  18  22
ENDBRANCH  12   6
BRANCH  13   3
ATOM      3  O   UNL     1     -16.948   2.144  23.015  0.00  0.00    -0.442 OA
BRANCH   3  17
ATOM      4  O   UNL     1     -17.898   3.880  21.869  0.00  0.00    -0.226 OA
ATOM      9  N   UNL     1     -16.057   4.199  23.280  0.00  0.00    -0.251 N 
ATOM     17  C   UNL     1     -17.045   3.470  22.646  0.00  0.00    +0.405 C 
ATOM     40  H   UNL     1     -15.436   3.677  23.893  0.00  0.00    +0.158 HD
BRANCH   9  21
ATOM     21  C   UNL     1     -15.800   5.586  23.181  0.00  0.00    +0.037 A 
ATOM     23  C   UNL     1     -14.687   6.040  22.475  0.00  0.00    +0.027 A 
ATOM     24  C   UNL     1     -16.662   6.499  23.789  0.00  0.00    +0.027 A 
ATOM     27  C   UNL     1     -14.435   7.409  22.377  0.00  0.00    +0.048 A 
ATOM     28  C   UNL     1     -16.410   7.867  23.691  0.00  0.00    +0.048 A 
ATOM     29  C   UNL     1     -15.297   8.322  22.985  0.00  0.00    +0.129 A 
BRANCH  29   5
ATOM      5  O   UNL     1     -15.051   9.657  22.889  0.00  0.00    -0.456 OA
BRANCH   5  33
ATOM     33  C   UNL     1     -13.986  10.170  23.612  0.00  0.00    +0.128 A 
ATOM     34  C   UNL     1     -12.937  10.809  22.951  0.00  0.00    +0.046 A 
ATOM     35  C   UNL     1     -13.963  10.045  25.001  0.00  0.00    +0.046 A 
ATOM     36  C   UNL     1     -11.864  11.323  23.679  0.00  0.00    +0.004 A 
ATOM     37  C   UNL     1     -12.889  10.559  25.730  0.00  0.00    +0.004 A 
ATOM     38  C   UNL     1     -11.841  11.199  25.068  0.00  0.00    +0.000 A 
ENDBRANCH   5  33
ENDBRANCH  29   5
ENDBRANCH   9  21
ENDBRANCH   3  17
ENDBRANCH  13   3
TORSDOF 7
ENDMDL
MODEL 8
REMARK VINA RESULT:      -7.6     11.732     17.153
REMARK  Name = 11911995
REMARK  7 active torsions:
REMARK  status: ('A' for Active; 'I' for Inactive)
REMARK    1  A    between atoms: O_3  and  C_13
REMARK    2  A    between atoms: O_3  and  C_17
REMARK    3  A    between atoms: O_5  and  C_29
REMARK    4  A    between atoms: O_5  and  C_33
REMARK    5  A    between atoms: N_6  and  C_12
REMARK    6  A    between atoms: N_9  and  C_21
REMARK    7  A    between atoms: C_18  and  C_22
REMARK                            x       y       z     vdW  Elec       q    Type
REMARK                         _______ _______ _______ _____ _____    ______ ____
ROOT
ATOM      1  O   UNL     1     -14.692   8.725  12.442  0.00  0.00    -0.368 OA
ATOM      2  O   UNL     1     -15.361   6.708  14.657  0.00  0.00    -0.368 OA
ATOM     10  C   UNL     1     -14.126   7.365  14.301  0.00  0.00    +0.173 C 
ATOM     11  C   UNL     1     -14.100   7.462  12.788  0.00  0.00    +0.192 C 
ATOM     12  C   UNL     1     -14.155   8.805  14.759  0.00  0.00    +0.130 C 
ATOM     13  C   UNL     1     -14.971   6.303  12.371  0.00  0.00    +0.235 C 
ATOM     14  C   UNL     1     -14.921   9.485  13.638  0.00  0.00    +0.185 C 
ATOM     15  C   UNL     1     -16.026   6.290  13.455  0.00  0.00    +0.207 C 
ENDROOT
BRANCH  12   6
ATOM      6  N   UNL     1     -12.809   9.332  14.842  0.00  0.00    -0.306 N 
ATOM      7  N   UNL     1     -12.543   8.574  17.020  0.00  0.00    -0.214 NA
ATOM      8  N   UNL     1     -10.779   9.759  15.885  0.00  0.00    -0.223 NA
ATOM     16  C   UNL     1     -12.009   9.217  15.964  0.00  0.00    +0.216 A 
ATOM     18  C   UNL     1     -11.736   8.480  18.097  0.00  0.00    +0.076 A 
ATOM     19  C   UNL     1     -10.026   9.628  16.997  0.00  0.00    +0.116 A 
ATOM     20  C   UNL     1     -10.456   8.992  18.143  0.00  0.00    +0.048 A 
ATOM     39  H   UNL     1     -12.395   9.769  14.026  0.00  0.00    +0.149 HD
BRANCH  18  22
ATOM     22  C   UNL     1     -12.305   7.791  19.230  0.00  0.00    +0.001 A 
ATOM     25  C   UNL     1     -11.476   7.093  20.109  0.00  0.00    +0.010 A 
ATOM     26  C   UNL     1     -13.683   7.821  19.448  0.00  0.00    +0.010 A 
ATOM     30  C   UNL     1     -12.025   6.427  21.205  0.00  0.00    +0.001 A 
ATOM     31  C   UNL     1     -14.231   7.155  20.543  0.00  0.00    +0.001 A 
ATOM     32  C   UNL     1     -13.402   6.457  21.422  0.00  0.00    +0.000 A 
ENDBRANCH  18  22
ENDBRANCH  12   6
BRANCH  13   3
ATOM      3  O   UNL     1     -15.533   6.454  11.087  0.00  0.00    -0.442 OA
BRANCH   3  17
ATOM      4  O   UNL     1     -17.235   5.408   9.972  0.00  0.00    -0.226 OA
ATOM      9  N   UNL     1     -15.369   4.229  10.753  0.00  0.00    -0.251 N 
ATOM     17  C   UNL     1     -16.153   5.348  10.544  0.00  0.00    +0.405 C 
ATOM     40  H   UNL     1     -14.496   4.379  11.252  0.00  0.00    +0.158 HD
BRANCH   9  21
ATOM     21  C   UNL     1     -15.631   2.897  10.360  0.00  0.00    +0.037 A 
ATOM     23  C   UNL     1     -16.474   2.095  11.130  0.00  0.00    +0.027 A 
ATOM     24  C   UNL     1     -15.048   2.385   9.200  0.00  0.00    +0.027 A 
ATOM     27  C   UNL     1     -16.733   0.781  10.740  0.00  0.00    +0.048 A 
ATOM     28  C   UNL     1     -15.307   1.072   8.811  0.00  0.00    +0.048 A 
ATOM     29  C   UNL     1     -16.149   0.269   9.581  0.00  0.00    +0.129 A 
BRANCH  29   5
ATOM      5  O   UNL     1     -16.402  -1.013   9.201  0.00  0.00    -0.456 OA
BRANCH   5  33
ATOM     33  C   UNL     1     -15.475  -1.982   9.547  0.00  0.00    +0.128 A 
ATOM     34  C   UNL     1     -14.605  -2.491   8.582  0.00  0.00    +0.046 A 
ATOM     35  C   UNL     1     -15.412  -2.450  10.859  0.00  0.00    +0.046 A 
ATOM     36  C   UNL     1     -13.672  -3.468   8.930  0.00  0.00    +0.004 A 
ATOM     37  C   UNL     1     -14.479  -3.428  11.207  0.00  0.00    +0.004 A 
ATOM     38  C   UNL     1     -13.610  -3.936  10.242  0.00  0.00    +0.000 A 
ENDBRANCH   5  33
ENDBRANCH  29   5
ENDBRANCH   9  21
ENDBRANCH   3  17
ENDBRANCH  13   3
TORSDOF 7
ENDMDL
MODEL 9
REMARK VINA RESULT:      -7.5      4.636      7.078
REMARK  Name = 11911995
REMARK  7 active torsions:
REMARK  status: ('A' for Active; 'I' for Inactive)
REMARK    1  A    between atoms: O_3  and  C_13
REMARK    2  A    between atoms: O_3  and  C_17
REMARK    3  A    between atoms: O_5  and  C_29
REMARK    4  A    between atoms: O_5  and  C_33
REMARK    5  A    between atoms: N_6  and  C_12
REMARK    6  A    between atoms: N_9  and  C_21
REMARK    7  A    between atoms: C_18  and  C_22
REMARK                            x       y       z     vdW  Elec       q    Type
REMARK                         _______ _______ _______ _____ _____    ______ ____
ROOT
ATOM      1  O   UNL     1      -4.958  -8.601   9.342  0.00  0.00    -0.368 OA
ATOM      2  O   UNL     1      -7.198 -10.481  10.271  0.00  0.00    -0.368 OA
ATOM     10  C   UNL     1      -5.761 -10.625  10.280  0.00  0.00    +0.173 C 
ATOM     11  C   UNL     1      -5.247  -9.970   9.013  0.00  0.00    +0.192 C 
ATOM     12  C   UNL     1      -5.165  -9.793  11.391  0.00  0.00    +0.130 C 
ATOM     13  C   UNL     1      -6.428 -10.084   8.082  0.00  0.00    +0.235 C 
ATOM     14  C   UNL     1      -5.093  -8.414  10.759  0.00  0.00    +0.185 C 
ATOM     15  C   UNL     1      -7.597  -9.893   9.024  0.00  0.00    +0.207 C 
ENDROOT
BRANCH  12   6
ATOM      6  N   UNL     1      -3.836 -10.267  11.716  0.00  0.00    -0.306 N 
ATOM      7  N   UNL     1      -4.329 -10.381  13.982  0.00  0.00    -0.214 NA
ATOM      8  N   UNL     1      -2.155 -10.993  13.142  0.00  0.00    -0.223 NA
ATOM     16  C   UNL     1      -3.422 -10.559  13.003  0.00  0.00    +0.216 A 
ATOM     18  C   UNL     1      -3.890 -10.675  15.224  0.00  0.00    +0.076 A 
ATOM     19  C   UNL     1      -1.783 -11.269  14.410  0.00  0.00    +0.116 A 
ATOM     20  C   UNL     1      -2.616 -11.129  15.500  0.00  0.00    +0.048 A 
ATOM     39  H   UNL     1      -3.176 -10.449  10.968  0.00  0.00    +0.149 HD
BRANCH  18  22
ATOM     22  C   UNL     1      -4.860 -10.487  16.276  0.00  0.00    +0.001 A 
ATOM     25  C   UNL     1      -4.603 -10.977  17.557  0.00  0.00    +0.010 A 
ATOM     26  C   UNL     1      -6.054  -9.814  16.014  0.00  0.00    +0.010 A 
ATOM     30  C   UNL     1      -5.539 -10.794  18.574  0.00  0.00    +0.001 A 
ATOM     31  C   UNL     1      -6.989  -9.631  17.032  0.00  0.00    +0.001 A 
ATOM     32  C   UNL     1      -6.733 -10.122  18.312  0.00  0.00    +0.000 A 
ENDBRANCH  18  22
ENDBRANCH  12   6
BRANCH  13   3
ATOM      3  O   UNL     1      -6.423  -9.129   7.045  0.00  0.00    -0.442 OA
BRANCH   3  17
ATOM      4  O   UNL     1      -5.931 -10.539   5.312  0.00  0.00    -0.226 OA
ATOM      9  N   UNL     1      -7.559  -8.869   5.114  0.00  0.00    -0.251 N 
ATOM     17  C   UNL     1      -6.583  -9.604   5.759  0.00  0.00    +0.405 C 
ATOM     40  H   UNL     1      -7.992  -8.124   5.654  0.00  0.00    +0.158 HD
BRANCH   9  21
ATOM     21  C   UNL     1      -8.032  -9.023   3.791  0.00  0.00    +0.037 A 
ATOM     23  C   UNL     1      -7.799  -8.023   2.846  0.00  0.00    +0.027 A 
ATOM     24  C   UNL     1      -8.729 -10.176   3.430  0.00  0.00    +0.027 A 
ATOM     27  C   UNL     1      -8.265  -8.177   1.540  0.00  0.00    +0.048 A 
ATOM     28  C   UNL     1      -9.195 -10.329   2.124  0.00  0.00    +0.048 A 
ATOM     29  C   UNL     1      -8.963  -9.330   1.179  0.00  0.00    +0.129 A 
BRANCH  29   5
ATOM      5  O   UNL     1      -9.417  -9.479  -0.095  0.00  0.00    -0.456 OA
BRANCH   5  33
ATOM     33  C   UNL     1      -8.495  -9.814  -1.072  0.00  0.00    +0.128 A 
ATOM     34  C   UNL     1      -8.157  -8.888  -2.060  0.00  0.00    +0.046 A 
ATOM     35  C   UNL     1      -7.904 -11.078  -1.070  0.00  0.00    +0.046 A 
ATOM     36  C   UNL     1      -7.230  -9.226  -3.045  0.00  0.00    +0.004 A 
ATOM     37  C   UNL     1      -6.976 -11.416  -2.056  0.00  0.00    +0.004 A 
ATOM     38  C   UNL     1      -6.639 -10.489  -3.043  0.00  0.00    +0.000 A 
ENDBRANCH   5  33
ENDBRANCH  29   5
ENDBRANCH   9  21
ENDBRANCH   3  17
ENDBRANCH  13   3
TORSDOF 7
ENDMDL
MODEL 10
REMARK VINA RESULT:      -7.5     24.806     26.678
REMARK  Name = 11911995
REMARK  7 active torsions:
REMARK  status: ('A' for Active; 'I' for Inactive)
REMARK    1  A    between atoms: O_3  and  C_13
REMARK    2  A    between atoms: O_3  and  C_17
REMARK    3  A    between atoms: O_5  and  C_29
REMARK    4  A    between atoms: O_5  and  C_33
REMARK    5  A    between atoms: N_6  and  C_12
REMARK    6  A    between atoms: N_9  and  C_21
REMARK    7  A    between atoms: C_18  and  C_22
REMARK                            x       y       z     vdW  Elec       q    Type
REMARK                         _______ _______ _______ _____ _____    ______ ____
ROOT
ATOM      1  O   UNL     1      11.163  13.490  10.117  0.00  0.00    -0.368 OA
ATOM      2  O   UNL     1       9.791  11.874  12.336  0.00  0.00    -0.368 OA
ATOM     10  C   UNL     1      11.172  11.950  11.920  0.00  0.00    +0.173 C 
ATOM     11  C   UNL     1      11.168  12.082  10.410  0.00  0.00    +0.192 C 
ATOM     12  C   UNL     1      11.786  13.244  12.400  0.00  0.00    +0.130 C 
ATOM     13  C   UNL     1       9.865  11.426  10.026  0.00  0.00    +0.235 C 
ATOM     14  C   UNL     1      11.338  14.229  11.335  0.00  0.00    +0.185 C 
ATOM     15  C   UNL     1       8.958  11.827  11.169  0.00  0.00    +0.207 C 
ENDROOT
BRANCH  12   6
ATOM      6  N   UNL     1      13.230  13.139  12.413  0.00  0.00    -0.306 N 
ATOM      7  N   UNL     1      13.197  11.596  14.148  0.00  0.00    -0.214 NA
ATOM      8  N   UNL     1      15.272  12.332  13.168  0.00  0.00    -0.223 NA
ATOM     16  C   UNL     1      13.930  12.321  13.281  0.00  0.00    +0.216 A 
ATOM     18  C   UNL     1      13.912  10.810  14.979  0.00  0.00    +0.076 A 
ATOM     19  C   UNL     1      15.923  11.523  14.029  0.00  0.00    +0.116 A 
ATOM     20  C   UNL     1      15.290  10.731  14.965  0.00  0.00    +0.048 A 
ATOM     39  H   UNL     1      13.772  13.647  11.723  0.00  0.00    +0.149 HD
BRANCH  18  22
ATOM     22  C   UNL     1      13.131  10.031  15.909  0.00  0.00    +0.001 A 
ATOM     25  C   UNL     1      11.873   9.556  15.536  0.00  0.00    +0.010 A 
ATOM     26  C   UNL     1      13.631   9.754  17.182  0.00  0.00    +0.010 A 
ATOM     30  C   UNL     1      11.117   8.802  16.434  0.00  0.00    +0.001 A 
ATOM     31  C   UNL     1      12.875   9.000  18.080  0.00  0.00    +0.001 A 
ATOM     32  C   UNL     1      11.618   8.525  17.706  0.00  0.00    +0.000 A 
ENDBRANCH  18  22
ENDBRANCH  12   6
BRANCH  13   3
ATOM      3  O   UNL     1       9.365  11.852   8.779  0.00  0.00    -0.442 OA
BRANCH   3  17
ATOM      4  O   UNL     1       9.585  11.360   6.556  0.00  0.00    -0.226 OA
ATOM      9  N   UNL     1       9.555   9.683   8.190  0.00  0.00    -0.251 N 
ATOM     17  C   UNL     1       9.511  10.982   7.719  0.00  0.00    +0.405 C 
ATOM     40  H   UNL     1       9.477   9.568   9.197  0.00  0.00    +0.158 HD
BRANCH   9  21
ATOM     21  C   UNL     1       9.695   8.491   7.444  0.00  0.00    +0.037 A 
ATOM     23  C   UNL     1       8.562   7.806   7.005  0.00  0.00    +0.027 A 
ATOM     24  C   UNL     1      10.966   8.002   7.144  0.00  0.00    +0.027 A 
ATOM     27  C   UNL     1       8.700   6.630   6.267  0.00  0.00    +0.048 A 
ATOM     28  C   UNL     1      11.104   6.826   6.407  0.00  0.00    +0.048 A 
ATOM     29  C   UNL     1       9.972   6.140   5.968  0.00  0.00    +0.129 A 
BRANCH  29   5
ATOM      5  O   UNL     1      10.107   4.993   5.249  0.00  0.00    -0.456 OA
BRANCH   5  33
ATOM     33  C   UNL     1      10.303   5.109   3.882  0.00  0.00    +0.128 A 
ATOM     34  C   UNL     1       9.797   6.214   3.197  0.00  0.00    +0.046 A 
ATOM     35  C   UNL     1      11.006   4.122   3.192  0.00  0.00    +0.046 A 
ATOM     36  C   UNL     1       9.993   6.330   1.821  0.00  0.00    +0.004 A 
ATOM     37  C   UNL     1      11.202   4.238   1.815  0.00  0.00    +0.004 A 
ATOM     38  C   UNL     1      10.695   5.343   1.131  0.00  0.00    +0.000 A 
ENDBRANCH   5  33
ENDBRANCH  29   5
ENDBRANCH   9  21
ENDBRANCH   3  17
ENDBRANCH  13   3
TORSDOF 7
ENDMDL
