MODEL 1
REMARK VINA RESULT:      -5.7      0.000      0.000
REMARK  Name = 56774005
REMARK  11 active torsions:
REMARK  status: ('A' for Active; 'I' for Inactive)
REMARK    1  A    between atoms: O_3  and  C_22
REMARK    2  A    between atoms: N_4  and  C_9
REMARK    3  A    between atoms: N_6  and  C_18
REMARK    4  A    between atoms: C_7  and  C_12
REMARK    5  A    between atoms: C_7  and  C_13
REMARK    6  A    between atoms: C_8  and  C_11
REMARK    7  A    between atoms: C_11  and  C_14
REMARK    8  A    between atoms: C_17  and  C_19
REMARK    9  A    between atoms: C_18  and  C_20
REMARK   10  A    between atoms: C_18  and  C_21
REMARK   11  A    between atoms: C_19  and  C_22
REMARK                            x       y       z     vdW  Elec       q    Type
REMARK                         _______ _______ _______ _____ _____    ______ ____
ROOT
ATOM      7  C   UNL     1      -5.211 -11.099  16.284  0.00  0.00    -0.013 C 
ATOM      8  C   UNL     1      -4.868 -11.463  17.743  0.00  0.00    +0.004 C 
ATOM      9  C   UNL     1      -3.750 -11.449  15.933  0.00  0.00    +0.081 C 
ATOM     10  C   UNL     1      -3.402 -11.127  17.401  0.00  0.00    +0.027 C 
ATOM     12  C   UNL     1      -6.275 -11.985  15.673  0.00  0.00    +0.013 C 
ATOM     13  C   UNL     1      -5.542  -9.640  16.028  0.00  0.00    +0.013 C 
ENDROOT
BRANCH   9   4
ATOM      2  O   UNL     1      -3.109 -12.041  13.181  0.00  0.00    -0.253 OA
ATOM      4  N   UNL     1      -3.095 -10.557  14.962  0.00  0.00    -0.296 N 
ATOM      6  N   UNL     1      -2.206  -9.916  12.938  0.00  0.00    -0.297 N 
ATOM     15  C   UNL     1      -2.828 -10.938  13.648  0.00  0.00    +0.300 C 
ATOM     23  H   UNL     1      -2.811  -9.621  15.240  0.00  0.00    +0.151 HD
ATOM     24  H   UNL     1      -2.086  -9.015  13.391  0.00  0.00    +0.150 HD
BRANCH   6  18
ATOM     18  C   UNL     1      -1.820 -10.051  11.552  0.00  0.00    +0.068 C 
ATOM     20  C   UNL     1      -0.640  -9.140  11.240  0.00  0.00    +0.027 C 
ATOM     21  C   UNL     1      -3.002  -9.758  10.638  0.00  0.00    +0.027 C 
ENDBRANCH   6  18
ENDBRANCH   9   4
BRANCH   8  11
ATOM     11  C   UNL     1      -5.478 -10.612  18.831  0.00  0.00    +0.063 C 
BRANCH  11  14
ATOM      1  O   UNL     1      -8.475 -12.201  20.062  0.00  0.00    -0.359 OA
ATOM      5  N   UNL     1      -7.096 -12.027  20.035  0.00  0.00    -0.083 NA
ATOM     14  C   UNL     1      -6.886 -11.069  19.129  0.00  0.00    +0.084 A 
ATOM     16  C   UNL     1      -8.082 -10.605  18.555  0.00  0.00    +0.071 A 
ATOM     17  C   UNL     1      -9.051 -11.348  19.176  0.00  0.00    +0.140 A 
BRANCH  17  19
ATOM     19  C   UNL     1     -10.515 -11.399  19.075  0.00  0.00    +0.105 C 
BRANCH  19  22
ATOM     22  C   UNL     1     -11.233 -10.318  19.907  0.00  0.00    +0.163 C 
BRANCH  22   3
ATOM      3  O   UNL     1     -10.385  -9.906  20.973  0.00  0.00    -0.395 OA
ATOM     25  H   UNL     1      -9.475  -9.917  20.632  0.00  0.00    +0.209 HD
ENDBRANCH  22   3
ENDBRANCH  19  22
ENDBRANCH  17  19
ENDBRANCH  11  14
ENDBRANCH   8  11
TORSDOF 7
ENDMDL
MODEL 2
REMARK VINA RESULT:      -5.7     26.275     28.924
REMARK  Name = 56774005
REMARK  11 active torsions:
REMARK  status: ('A' for Active; 'I' for Inactive)
REMARK    1  A    between atoms: O_3  and  C_22
REMARK    2  A    between atoms: N_4  and  C_9
REMARK    3  A    between atoms: N_6  and  C_18
REMARK    4  A    between atoms: C_7  and  C_12
REMARK    5  A    between atoms: C_7  and  C_13
REMARK    6  A    between atoms: C_8  and  C_11
REMARK    7  A    between atoms: C_11  and  C_14
REMARK    8  A    between atoms: C_17  and  C_19
REMARK    9  A    between atoms: C_18  and  C_20
REMARK   10  A    between atoms: C_18  and  C_21
REMARK   11  A    between atoms: C_19  and  C_22
REMARK                            x       y       z     vdW  Elec       q    Type
REMARK                         _______ _______ _______ _____ _____    ______ ____
ROOT
ATOM      7  C   UNL     1      12.836   7.925  19.941  0.00  0.00    -0.013 C 
ATOM      8  C   UNL     1      12.559   7.716  18.438  0.00  0.00    +0.004 C 
ATOM      9  C   UNL     1      11.590   8.834  19.966  0.00  0.00    +0.081 C 
ATOM     10  C   UNL     1      11.830   9.075  18.462  0.00  0.00    +0.027 C 
ATOM     12  C   UNL     1      12.750   6.652  20.754  0.00  0.00    +0.013 C 
ATOM     13  C   UNL     1      14.113   8.671  20.278  0.00  0.00    +0.013 C 
ENDROOT
BRANCH   9   4
ATOM      2  O   UNL     1      10.378   9.322  22.541  0.00  0.00    -0.253 OA
ATOM      4  N   UNL     1      11.705  10.052  20.785  0.00  0.00    -0.296 N 
ATOM      6  N   UNL     1      11.345  11.433  22.592  0.00  0.00    -0.297 N 
ATOM     15  C   UNL     1      11.078  10.191  22.023  0.00  0.00    +0.300 C 
ATOM     23  H   UNL     1      12.254  10.840  20.452  0.00  0.00    +0.151 HD
ATOM     24  H   UNL     1      11.998  12.051  22.119  0.00  0.00    +0.150 HD
BRANCH   6  18
ATOM     18  C   UNL     1      10.816  11.833  23.875  0.00  0.00    +0.068 C 
ATOM     20  C   UNL     1      10.329  13.274  23.820  0.00  0.00    +0.027 C 
ATOM     21  C   UNL     1      11.862  11.643  24.966  0.00  0.00    +0.027 C 
ENDBRANCH   6  18
ENDBRANCH   9   4
BRANCH   8  11
ATOM     11  C   UNL     1      13.754   7.651  17.515  0.00  0.00    +0.063 C 
BRANCH  11  14
ATOM      1  O   UNL     1      13.200  10.000  14.833  0.00  0.00    -0.359 OA
ATOM      5  N   UNL     1      12.970   8.789  15.475  0.00  0.00    -0.083 NA
ATOM     14  C   UNL     1      13.745   8.822  16.562  0.00  0.00    +0.084 A 
ATOM     16  C   UNL     1      14.480  10.017  16.658  0.00  0.00    +0.071 A 
ATOM     17  C   UNL     1      14.100  10.722  15.548  0.00  0.00    +0.140 A 
BRANCH  17  19
ATOM     19  C   UNL     1      14.460  12.039  15.008  0.00  0.00    +0.105 C 
BRANCH  19  22
ATOM     22  C   UNL     1      15.562  11.989  13.931  0.00  0.00    +0.163 C 
BRANCH  22   3
ATOM      3  O   UNL     1      15.561  10.705  13.318  0.00  0.00    -0.395 OA
ATOM     25  H   UNL     1      15.736  10.842  12.372  0.00  0.00    +0.209 HD
ENDBRANCH  22   3
ENDBRANCH  19  22
ENDBRANCH  17  19
ENDBRANCH  11  14
ENDBRANCH   8  11
TORSDOF 7
ENDMDL
MODEL 3
REMARK VINA RESULT:      -5.6     20.153     21.453
REMARK  Name = 56774005
REMARK  11 active torsions:
REMARK  status: ('A' for Active; 'I' for Inactive)
REMARK    1  A    between atoms: O_3  and  C_22
REMARK    2  A    between atoms: N_4  and  C_9
REMARK    3  A    between atoms: N_6  and  C_18
REMARK    4  A    between atoms: C_7  and  C_12
REMARK    5  A    between atoms: C_7  and  C_13
REMARK    6  A    between atoms: C_8  and  C_11
REMARK    7  A    between atoms: C_11  and  C_14
REMARK    8  A    between atoms: C_17  and  C_19
REMARK    9  A    between atoms: C_18  and  C_20
REMARK   10  A    between atoms: C_18  and  C_21
REMARK   11  A    between atoms: C_19  and  C_22
REMARK                            x       y       z     vdW  Elec       q    Type
REMARK                         _______ _______ _______ _____ _____    ______ ____
ROOT
ATOM      7  C   UNL     1     -11.150   9.858  18.551  0.00  0.00    -0.013 C 
ATOM      8  C   UNL     1     -11.642   8.539  17.921  0.00  0.00    +0.004 C 
ATOM      9  C   UNL     1     -10.697  10.276  17.137  0.00  0.00    +0.081 C 
ATOM     10  C   UNL     1     -10.600   8.772  16.807  0.00  0.00    +0.027 C 
ATOM     12  C   UNL     1     -12.257  10.683  19.169  0.00  0.00    +0.013 C 
ATOM     13  C   UNL     1      -9.992   9.733  19.524  0.00  0.00    +0.013 C 
ENDROOT
BRANCH   9   4
ATOM      2  O   UNL     1     -10.235  12.968  16.199  0.00  0.00    -0.253 OA
ATOM      4  N   UNL     1      -9.407  10.981  17.062  0.00  0.00    -0.296 N 
ATOM      6  N   UNL     1      -7.965  12.721  16.623  0.00  0.00    -0.297 N 
ATOM     15  C   UNL     1      -9.287  12.289  16.591  0.00  0.00    +0.300 C 
ATOM     23  H   UNL     1      -8.553  10.513  17.354  0.00  0.00    +0.151 HD
ATOM     24  H   UNL     1      -7.266  12.112  17.037  0.00  0.00    +0.150 HD
BRANCH   6  18
ATOM     18  C   UNL     1      -7.566  14.040  16.190  0.00  0.00    +0.068 C 
ATOM     20  C   UNL     1      -7.258  14.036  14.699  0.00  0.00    +0.027 C 
ATOM     21  C   UNL     1      -6.373  14.530  17.000  0.00  0.00    +0.027 C 
ENDBRANCH   6  18
ENDBRANCH   9   4
BRANCH   8  11
ATOM     11  C   UNL     1     -11.443   7.272  18.721  0.00  0.00    +0.063 C 
BRANCH  11  14
ATOM      1  O   UNL     1     -14.543   7.161  20.566  0.00  0.00    -0.359 OA
ATOM      5  N   UNL     1     -13.805   7.404  19.413  0.00  0.00    -0.083 NA
ATOM     14  C   UNL     1     -12.542   7.121  19.745  0.00  0.00    +0.084 A 
ATOM     16  C   UNL     1     -12.423   6.700  21.081  0.00  0.00    +0.071 A 
ATOM     17  C   UNL     1     -13.708   6.742  21.551  0.00  0.00    +0.140 A 
BRANCH  17  19
ATOM     19  C   UNL     1     -14.327   6.439  22.848  0.00  0.00    +0.105 C 
BRANCH  19  22
ATOM     22  C   UNL     1     -14.551   4.934  23.092  0.00  0.00    +0.163 C 
BRANCH  22   3
ATOM      3  O   UNL     1     -14.169   4.207  21.930  0.00  0.00    -0.395 OA
ATOM     25  H   UNL     1     -13.297   4.542  21.660  0.00  0.00    +0.209 HD
ENDBRANCH  22   3
ENDBRANCH  19  22
ENDBRANCH  17  19
ENDBRANCH  11  14
ENDBRANCH   8  11
TORSDOF 7
ENDMDL
MODEL 4
REMARK VINA RESULT:      -5.5     25.650     27.710
REMARK  Name = 56774005
REMARK  11 active torsions:
REMARK  status: ('A' for Active; 'I' for Inactive)
REMARK    1  A    between atoms: O_3  and  C_22
REMARK    2  A    between atoms: N_4  and  C_9
REMARK    3  A    between atoms: N_6  and  C_18
REMARK    4  A    between atoms: C_7  and  C_12
REMARK    5  A    between atoms: C_7  and  C_13
REMARK    6  A    between atoms: C_8  and  C_11
REMARK    7  A    between atoms: C_11  and  C_14
REMARK    8  A    between atoms: C_17  and  C_19
REMARK    9  A    between atoms: C_18  and  C_20
REMARK   10  A    between atoms: C_18  and  C_21
REMARK   11  A    between atoms: C_19  and  C_22
REMARK                            x       y       z     vdW  Elec       q    Type
REMARK                         _______ _______ _______ _____ _____    ______ ____
ROOT
ATOM      7  C   UNL     1       1.454   3.938  -5.823  0.00  0.00    -0.013 C 
ATOM      8  C   UNL     1       1.235   2.468  -6.236  0.00  0.00    +0.004 C 
ATOM      9  C   UNL     1       2.961   3.697  -6.047  0.00  0.00    +0.081 C 
ATOM     10  C   UNL     1       2.684   2.203  -5.778  0.00  0.00    +0.027 C 
ATOM     12  C   UNL     1       0.791   4.933  -6.751  0.00  0.00    +0.013 C 
ATOM     13  C   UNL     1       1.122   4.274  -4.381  0.00  0.00    +0.013 C 
ENDROOT
BRANCH   9   4
ATOM      2  O   UNL     1       4.597   6.047  -6.419  0.00  0.00    -0.253 OA
ATOM      4  N   UNL     1       3.861   4.317  -5.062  0.00  0.00    -0.296 N 
ATOM      6  N   UNL     1       5.378   5.842  -4.242  0.00  0.00    -0.297 N 
ATOM     15  C   UNL     1       4.613   5.459  -5.339  0.00  0.00    +0.300 C 
ATOM     23  H   UNL     1       3.960   3.911  -4.135  0.00  0.00    +0.151 HD
ATOM     24  H   UNL     1       5.263   5.335  -3.370  0.00  0.00    +0.150 HD
BRANCH   6  18
ATOM     18  C   UNL     1       6.249   6.995  -4.264  0.00  0.00    +0.068 C 
ATOM     20  C   UNL     1       7.557   6.656  -4.966  0.00  0.00    +0.027 C 
ATOM     21  C   UNL     1       6.496   7.504  -2.850  0.00  0.00    +0.027 C 
ENDBRANCH   6  18
ENDBRANCH   9   4
BRANCH   8  11
ATOM     11  C   UNL     1       0.179   1.688  -5.489  0.00  0.00    +0.063 C 
BRANCH  11  14
ATOM      1  O   UNL     1      -1.781   0.245  -8.153  0.00  0.00    -0.359 OA
ATOM      5  N   UNL     1      -1.181   1.323  -7.510  0.00  0.00    -0.083 NA
ATOM     14  C   UNL     1      -0.585   0.796  -6.437  0.00  0.00    +0.084 A 
ATOM     16  C   UNL     1      -0.772  -0.595  -6.351  0.00  0.00    +0.071 A 
ATOM     17  C   UNL     1      -1.529  -0.890  -7.453  0.00  0.00    +0.140 A 
BRANCH  17  19
ATOM     19  C   UNL     1      -2.093  -2.132  -7.996  0.00  0.00    +0.105 C 
BRANCH  19  22
ATOM     22  C   UNL     1      -3.121  -2.806  -7.066  0.00  0.00    +0.163 C 
BRANCH  22   3
ATOM      3  O   UNL     1      -2.933  -4.216  -7.101  0.00  0.00    -0.395 OA
ATOM     25  H   UNL     1      -3.762  -4.605  -7.429  0.00  0.00    +0.209 HD
ENDBRANCH  22   3
ENDBRANCH  19  22
ENDBRANCH  17  19
ENDBRANCH  11  14
ENDBRANCH   8  11
TORSDOF 7
ENDMDL
MODEL 5
REMARK VINA RESULT:      -5.5     27.527     30.632
REMARK  Name = 56774005
REMARK  11 active torsions:
REMARK  status: ('A' for Active; 'I' for Inactive)
REMARK    1  A    between atoms: O_3  and  C_22
REMARK    2  A    between atoms: N_4  and  C_9
REMARK    3  A    between atoms: N_6  and  C_18
REMARK    4  A    between atoms: C_7  and  C_12
REMARK    5  A    between atoms: C_7  and  C_13
REMARK    6  A    between atoms: C_8  and  C_11
REMARK    7  A    between atoms: C_11  and  C_14
REMARK    8  A    between atoms: C_17  and  C_19
REMARK    9  A    between atoms: C_18  and  C_20
REMARK   10  A    between atoms: C_18  and  C_21
REMARK   11  A    between atoms: C_19  and  C_22
REMARK                            x       y       z     vdW  Elec       q    Type
REMARK                         _______ _______ _______ _____ _____    ______ ____
ROOT
ATOM      7  C   UNL     1      20.453   6.575  21.231  0.00  0.00    -0.013 C 
ATOM      8  C   UNL     1      19.094   6.584  20.502  0.00  0.00    +0.004 C 
ATOM      9  C   UNL     1      20.807   5.328  20.396  0.00  0.00    +0.081 C 
ATOM     10  C   UNL     1      19.291   5.070  20.279  0.00  0.00    +0.027 C 
ATOM     12  C   UNL     1      21.286   7.811  20.972  0.00  0.00    +0.013 C 
ATOM     13  C   UNL     1      20.401   6.288  22.720  0.00  0.00    +0.013 C 
ENDROOT
BRANCH   9   4
ATOM      2  O   UNL     1      23.583   4.597  20.079  0.00  0.00    -0.253 OA
ATOM      4  N   UNL     1      21.534   4.266  21.111  0.00  0.00    -0.296 N 
ATOM      6  N   UNL     1      23.327   2.942  21.688  0.00  0.00    -0.297 N 
ATOM     15  C   UNL     1      22.882   3.989  20.886  0.00  0.00    +0.300 C 
ATOM     23  H   UNL     1      21.051   3.692  21.798  0.00  0.00    +0.151 HD
ATOM     24  H   UNL     1      22.690   2.556  22.378  0.00  0.00    +0.150 HD
BRANCH   6  18
ATOM     18  C   UNL     1      24.686   2.456  21.651  0.00  0.00    +0.068 C 
ATOM     20  C   UNL     1      24.704   0.934  21.648  0.00  0.00    +0.027 C 
ATOM     21  C   UNL     1      25.486   3.016  22.820  0.00  0.00    +0.027 C 
ENDBRANCH   6  18
ENDBRANCH   9   4
BRANCH   8  11
ATOM     11  C   UNL     1      17.874   6.953  21.313  0.00  0.00    +0.063 C 
BRANCH  11  14
ATOM      1  O   UNL     1      15.391   8.843  19.502  0.00  0.00    -0.359 OA
ATOM      5  N   UNL     1      16.410   8.732  20.441  0.00  0.00    -0.083 NA
ATOM     14  C   UNL     1      16.771   7.447  20.408  0.00  0.00    +0.084 A 
ATOM     16  C   UNL     1      16.022   6.705  19.479  0.00  0.00    +0.071 A 
ATOM     17  C   UNL     1      15.170   7.629  18.936  0.00  0.00    +0.140 A 
BRANCH  17  19
ATOM     19  C   UNL     1      14.117   7.565  17.915  0.00  0.00    +0.105 C 
BRANCH  19  22
ATOM     22  C   UNL     1      12.730   7.193  18.475  0.00  0.00    +0.163 C 
BRANCH  22   3
ATOM      3  O   UNL     1      11.815   7.031  17.398  0.00  0.00    -0.395 OA
ATOM     25  H   UNL     1      11.592   7.921  17.078  0.00  0.00    +0.209 HD
ENDBRANCH  22   3
ENDBRANCH  19  22
ENDBRANCH  17  19
ENDBRANCH  11  14
ENDBRANCH   8  11
TORSDOF 7
ENDMDL
MODEL 6
REMARK VINA RESULT:      -5.4     24.407     28.522
REMARK  Name = 56774005
REMARK  11 active torsions:
REMARK  status: ('A' for Active; 'I' for Inactive)
REMARK    1  A    between atoms: O_3  and  C_22
REMARK    2  A    between atoms: N_4  and  C_9
REMARK    3  A    between atoms: N_6  and  C_18
REMARK    4  A    between atoms: C_7  and  C_12
REMARK    5  A    between atoms: C_7  and  C_13
REMARK    6  A    between atoms: C_8  and  C_11
REMARK    7  A    between atoms: C_11  and  C_14
REMARK    8  A    between atoms: C_17  and  C_19
REMARK    9  A    between atoms: C_18  and  C_20
REMARK   10  A    between atoms: C_18  and  C_21
REMARK   11  A    between atoms: C_19  and  C_22
REMARK                            x       y       z     vdW  Elec       q    Type
REMARK                         _______ _______ _______ _____ _____    ______ ____
ROOT
ATOM      7  C   UNL     1      11.423   4.676   1.690  0.00  0.00    -0.013 C 
ATOM      8  C   UNL     1      12.612   5.022   0.770  0.00  0.00    +0.004 C 
ATOM      9  C   UNL     1      11.879   5.843   2.590  0.00  0.00    +0.081 C 
ATOM     10  C   UNL     1      13.293   5.637   2.010  0.00  0.00    +0.027 C 
ATOM     12  C   UNL     1      10.075   4.836   1.021  0.00  0.00    +0.013 C 
ATOM     13  C   UNL     1      11.499   3.332   2.389  0.00  0.00    +0.013 C 
ENDROOT
BRANCH   9   4
ATOM      2  O   UNL     1       9.572   6.219   4.286  0.00  0.00    -0.253 OA
ATOM      4  N   UNL     1      11.794   5.602   4.039  0.00  0.00    -0.296 N 
ATOM      6  N   UNL     1      10.811   5.512   6.119  0.00  0.00    -0.297 N 
ATOM     15  C   UNL     1      10.627   5.815   4.773  0.00  0.00    +0.300 C 
ATOM     23  H   UNL     1      12.609   5.273   4.550  0.00  0.00    +0.151 HD
ATOM     24  H   UNL     1      11.698   5.112   6.409  0.00  0.00    +0.150 HD
BRANCH   6  18
ATOM     18  C   UNL     1       9.758   5.646   7.099  0.00  0.00    +0.068 C 
ATOM     20  C   UNL     1       9.819   7.017   7.758  0.00  0.00    +0.027 C 
ATOM     21  C   UNL     1       9.845   4.530   8.132  0.00  0.00    +0.027 C 
ENDBRANCH   6  18
ENDBRANCH   9   4
BRANCH   8  11
ATOM     11  C   UNL     1      13.359   3.869   0.141  0.00  0.00    +0.063 C 
BRANCH  11  14
ATOM      1  O   UNL     1      13.058   3.724  -3.452  0.00  0.00    -0.359 OA
ATOM      5  N   UNL     1      13.757   4.018  -2.286  0.00  0.00    -0.083 NA
ATOM     14  C   UNL     1      12.927   3.684  -1.294  0.00  0.00    +0.084 A 
ATOM     16  C   UNL     1      11.704   3.179  -1.768  0.00  0.00    +0.071 A 
ATOM     17  C   UNL     1      11.838   3.225  -3.129  0.00  0.00    +0.140 A 
BRANCH  17  19
ATOM     19  C   UNL     1      10.963   2.859  -4.250  0.00  0.00    +0.105 C 
BRANCH  19  22
ATOM     22  C   UNL     1       9.461   3.015  -3.942  0.00  0.00    +0.163 C 
BRANCH  22   3
ATOM      3  O   UNL     1       8.923   1.750  -3.575  0.00  0.00    -0.395 OA
ATOM     25  H   UNL     1       9.669   1.128  -3.523  0.00  0.00    +0.209 HD
ENDBRANCH  22   3
ENDBRANCH  19  22
ENDBRANCH  17  19
ENDBRANCH  11  14
ENDBRANCH   8  11
TORSDOF 7
ENDMDL
MODEL 7
REMARK VINA RESULT:      -5.3      3.093      5.081
REMARK  Name = 56774005
REMARK  11 active torsions:
REMARK  status: ('A' for Active; 'I' for Inactive)
REMARK    1  A    between atoms: O_3  and  C_22
REMARK    2  A    between atoms: N_4  and  C_9
REMARK    3  A    between atoms: N_6  and  C_18
REMARK    4  A    between atoms: C_7  and  C_12
REMARK    5  A    between atoms: C_7  and  C_13
REMARK    6  A    between atoms: C_8  and  C_11
REMARK    7  A    between atoms: C_11  and  C_14
REMARK    8  A    between atoms: C_17  and  C_19
REMARK    9  A    between atoms: C_18  and  C_20
REMARK   10  A    between atoms: C_18  and  C_21
REMARK   11  A    between atoms: C_19  and  C_22
REMARK                            x       y       z     vdW  Elec       q    Type
REMARK                         _______ _______ _______ _____ _____    ______ ____
ROOT
ATOM      7  C   UNL     1      -2.875 -10.799  12.223  0.00  0.00    -0.013 C 
ATOM      8  C   UNL     1      -3.394 -10.631  13.666  0.00  0.00    +0.004 C 
ATOM      9  C   UNL     1      -4.129 -10.027  11.763  0.00  0.00    +0.081 C 
ATOM     10  C   UNL     1      -4.808 -10.509  13.062  0.00  0.00    +0.027 C 
ATOM     12  C   UNL     1      -1.545 -10.122  11.975  0.00  0.00    +0.013 C 
ATOM     13  C   UNL     1      -2.838 -12.222  11.698  0.00  0.00    +0.013 C 
ENDROOT
BRANCH   9   4
ATOM      2  O   UNL     1      -3.979  -8.875   9.120  0.00  0.00    -0.253 OA
ATOM      4  N   UNL     1      -4.774 -10.528  10.539  0.00  0.00    -0.296 N 
ATOM      6  N   UNL     1      -5.345 -10.568   8.309  0.00  0.00    -0.297 N 
ATOM     15  C   UNL     1      -4.639  -9.897   9.302  0.00  0.00    +0.300 C 
ATOM     23  H   UNL     1      -5.351 -11.364  10.572  0.00  0.00    +0.151 HD
ATOM     24  H   UNL     1      -5.797 -11.447   8.545  0.00  0.00    +0.150 HD
BRANCH   6  18
ATOM     18  C   UNL     1      -5.372 -10.123   6.935  0.00  0.00    +0.068 C 
ATOM     20  C   UNL     1      -6.706  -9.458   6.621  0.00  0.00    +0.027 C 
ATOM     21  C   UNL     1      -5.098 -11.286   5.991  0.00  0.00    +0.027 C 
ENDBRANCH   6  18
ENDBRANCH   9   4
BRANCH   8  11
ATOM     11  C   UNL     1      -3.204 -11.794  14.611  0.00  0.00    +0.063 C 
BRANCH  11  14
ATOM      1  O   UNL     1      -4.707 -10.557  17.649  0.00  0.00    -0.359 OA
ATOM      5  N   UNL     1      -3.856 -10.431  16.557  0.00  0.00    -0.083 NA
ATOM     14  C   UNL     1      -3.992 -11.574  15.880  0.00  0.00    +0.084 A 
ATOM     16  C   UNL     1      -4.906 -12.451  16.491  0.00  0.00    +0.071 A 
ATOM     17  C   UNL     1      -5.326 -11.764  17.598  0.00  0.00    +0.140 A 
BRANCH  17  19
ATOM     19  C   UNL     1      -6.267 -12.064  18.684  0.00  0.00    +0.105 C 
BRANCH  19  22
ATOM     22  C   UNL     1      -5.968 -11.305  19.992  0.00  0.00    +0.163 C 
BRANCH  22   3
ATOM      3  O   UNL     1      -6.623 -10.043  19.964  0.00  0.00    -0.395 OA
ATOM     25  H   UNL     1      -6.457  -9.618  20.822  0.00  0.00    +0.209 HD
ENDBRANCH  22   3
ENDBRANCH  19  22
ENDBRANCH  17  19
ENDBRANCH  11  14
ENDBRANCH   8  11
TORSDOF 7
ENDMDL
MODEL 8
REMARK VINA RESULT:      -5.3      3.971      6.721
REMARK  Name = 56774005
REMARK  11 active torsions:
REMARK  status: ('A' for Active; 'I' for Inactive)
REMARK    1  A    between atoms: O_3  and  C_22
REMARK    2  A    between atoms: N_4  and  C_9
REMARK    3  A    between atoms: N_6  and  C_18
REMARK    4  A    between atoms: C_7  and  C_12
REMARK    5  A    between atoms: C_7  and  C_13
REMARK    6  A    between atoms: C_8  and  C_11
REMARK    7  A    between atoms: C_11  and  C_14
REMARK    8  A    between atoms: C_17  and  C_19
REMARK    9  A    between atoms: C_18  and  C_20
REMARK   10  A    between atoms: C_18  and  C_21
REMARK   11  A    between atoms: C_19  and  C_22
REMARK                            x       y       z     vdW  Elec       q    Type
REMARK                         _______ _______ _______ _____ _____    ______ ____
ROOT
ATOM      7  C   UNL     1      -4.228  -9.955  10.859  0.00  0.00    -0.013 C 
ATOM      8  C   UNL     1      -3.762 -10.943  11.948  0.00  0.00    +0.004 C 
ATOM      9  C   UNL     1      -4.629 -11.186  10.021  0.00  0.00    +0.081 C 
ATOM     10  C   UNL     1      -3.573 -11.978  10.820  0.00  0.00    +0.027 C 
ATOM     12  C   UNL     1      -5.359  -9.053  11.304  0.00  0.00    +0.013 C 
ATOM     13  C   UNL     1      -3.135  -9.131  10.204  0.00  0.00    +0.013 C 
ENDROOT
BRANCH   9   4
ATOM      2  O   UNL     1      -6.155 -12.349   7.862  0.00  0.00    -0.253 OA
ATOM      4  N   UNL     1      -4.338 -11.101   8.580  0.00  0.00    -0.296 N 
ATOM      6  N   UNL     1      -4.649 -11.470   6.329  0.00  0.00    -0.297 N 
ATOM     15  C   UNL     1      -5.141 -11.700   7.611  0.00  0.00    +0.300 C 
ATOM     23  H   UNL     1      -3.518 -10.594   8.255  0.00  0.00    +0.151 HD
ATOM     24  H   UNL     1      -3.847 -10.856   6.222  0.00  0.00    +0.150 HD
BRANCH   6  18
ATOM     18  C   UNL     1      -5.294 -11.981   5.143  0.00  0.00    +0.068 C 
ATOM     20  C   UNL     1      -4.263 -12.256   4.056  0.00  0.00    +0.027 C 
ATOM     21  C   UNL     1      -6.365 -11.012   4.657  0.00  0.00    +0.027 C 
ENDBRANCH   6  18
ENDBRANCH   9   4
BRANCH   8  11
ATOM     11  C   UNL     1      -2.503 -10.594  12.707  0.00  0.00    +0.063 C 
BRANCH  11  14
ATOM      1  O   UNL     1      -2.342 -10.498  16.311  0.00  0.00    -0.359 OA
ATOM      5  N   UNL     1      -1.754 -10.470  15.051  0.00  0.00    -0.083 NA
ATOM     14  C   UNL     1      -2.771 -10.587  14.193  0.00  0.00    +0.084 A 
ATOM     16  C   UNL     1      -4.011 -10.693  14.846  0.00  0.00    +0.071 A 
ATOM     17  C   UNL     1      -3.686 -10.631  16.174  0.00  0.00    +0.140 A 
BRANCH  17  19
ATOM     19  C   UNL     1      -4.469 -10.679  17.416  0.00  0.00    +0.105 C 
BRANCH  19  22
ATOM     22  C   UNL     1      -4.301 -11.992  18.205  0.00  0.00    +0.163 C 
BRANCH  22   3
ATOM      3  O   UNL     1      -3.007 -12.022  18.797  0.00  0.00    -0.395 OA
ATOM     25  H   UNL     1      -3.049 -12.650  19.539  0.00  0.00    +0.209 HD
ENDBRANCH  22   3
ENDBRANCH  19  22
ENDBRANCH  17  19
ENDBRANCH  11  14
ENDBRANCH   8  11
TORSDOF 7
ENDMDL
MODEL 9
REMARK VINA RESULT:      -5.2      1.880      8.508
REMARK  Name = 56774005
REMARK  11 active torsions:
REMARK  status: ('A' for Active; 'I' for Inactive)
REMARK    1  A    between atoms: O_3  and  C_22
REMARK    2  A    between atoms: N_4  and  C_9
REMARK    3  A    between atoms: N_6  and  C_18
REMARK    4  A    between atoms: C_7  and  C_12
REMARK    5  A    between atoms: C_7  and  C_13
REMARK    6  A    between atoms: C_8  and  C_11
REMARK    7  A    between atoms: C_11  and  C_14
REMARK    8  A    between atoms: C_17  and  C_19
REMARK    9  A    between atoms: C_18  and  C_20
REMARK   10  A    between atoms: C_18  and  C_21
REMARK   11  A    between atoms: C_19  and  C_22
REMARK                            x       y       z     vdW  Elec       q    Type
REMARK                         _______ _______ _______ _____ _____    ______ ____
ROOT
ATOM      7  C   UNL     1      -6.776 -10.738  17.379  0.00  0.00    -0.013 C 
ATOM      8  C   UNL     1      -5.339 -10.484  17.879  0.00  0.00    +0.004 C 
ATOM      9  C   UNL     1      -7.266 -10.116  18.703  0.00  0.00    +0.081 C 
ATOM     10  C   UNL     1      -5.911 -10.534  19.311  0.00  0.00    +0.027 C 
ATOM     12  C   UNL     1      -7.120  -9.978  16.116  0.00  0.00    +0.013 C 
ATOM     13  C   UNL     1      -7.175 -12.194  17.232  0.00  0.00    +0.013 C 
ENDROOT
BRANCH   9   4
ATOM      2  O   UNL     1     -10.057  -9.506  18.281  0.00  0.00    -0.253 OA
ATOM      4  N   UNL     1      -8.423 -10.776  19.328  0.00  0.00    -0.296 N 
ATOM      6  N   UNL     1     -10.644 -11.184  19.775  0.00  0.00    -0.297 N 
ATOM     15  C   UNL     1      -9.740 -10.407  19.057  0.00  0.00    +0.300 C 
ATOM     23  H   UNL     1      -8.281 -11.531  19.994  0.00  0.00    +0.151 HD
ATOM     24  H   UNL     1     -10.285 -11.954  20.332  0.00  0.00    +0.150 HD
BRANCH   6  18
ATOM     18  C   UNL     1     -12.074 -11.007  19.677  0.00  0.00    +0.068 C 
ATOM     20  C   UNL     1     -12.542  -9.931  20.647  0.00  0.00    +0.027 C 
ATOM     21  C   UNL     1     -12.794 -12.327  19.925  0.00  0.00    +0.027 C 
ENDBRANCH   6  18
ENDBRANCH   9   4
BRANCH   8  11
ATOM     11  C   UNL     1      -4.301 -11.538  17.572  0.00  0.00    +0.063 C 
BRANCH  11  14
ATOM      1  O   UNL     1      -1.802 -10.526  15.174  0.00  0.00    -0.359 OA
ATOM      5  N   UNL     1      -2.220 -10.819  16.468  0.00  0.00    -0.083 NA
ATOM     14  C   UNL     1      -3.508 -11.152  16.347  0.00  0.00    +0.084 A 
ATOM     16  C   UNL     1      -3.953 -11.088  15.016  0.00  0.00    +0.071 A 
ATOM     17  C   UNL     1      -2.844 -10.691  14.319  0.00  0.00    +0.140 A 
BRANCH  17  19
ATOM     19  C   UNL     1      -2.575 -10.422  12.901  0.00  0.00    +0.105 C 
BRANCH  19  22
ATOM     22  C   UNL     1      -2.295 -11.690  12.070  0.00  0.00    +0.163 C 
BRANCH  22   3
ATOM      3  O   UNL     1      -1.450 -12.561  12.814  0.00  0.00    -0.395 OA
ATOM     25  H   UNL     1      -1.339 -12.165  13.694  0.00  0.00    +0.209 HD
ENDBRANCH  22   3
ENDBRANCH  19  22
ENDBRANCH  17  19
ENDBRANCH  11  14
ENDBRANCH   8  11
TORSDOF 7
ENDMDL
MODEL 10
REMARK VINA RESULT:      -5.2     19.096     20.902
REMARK  Name = 56774005
REMARK  11 active torsions:
REMARK  status: ('A' for Active; 'I' for Inactive)
REMARK    1  A    between atoms: O_3  and  C_22
REMARK    2  A    between atoms: N_4  and  C_9
REMARK    3  A    between atoms: N_6  and  C_18
REMARK    4  A    between atoms: C_7  and  C_12
REMARK    5  A    between atoms: C_7  and  C_13
REMARK    6  A    between atoms: C_8  and  C_11
REMARK    7  A    between atoms: C_11  and  C_14
REMARK    8  A    between atoms: C_17  and  C_19
REMARK    9  A    between atoms: C_18  and  C_20
REMARK   10  A    between atoms: C_18  and  C_21
REMARK   11  A    between atoms: C_19  and  C_22
REMARK                            x       y       z     vdW  Elec       q    Type
REMARK                         _______ _______ _______ _____ _____    ______ ____
ROOT
ATOM      7  C   UNL     1     -12.952   8.013  20.551  0.00  0.00    -0.013 C 
ATOM      8  C   UNL     1     -13.839   7.953  21.812  0.00  0.00    +0.004 C 
ATOM      9  C   UNL     1     -12.408   9.352  21.090  0.00  0.00    +0.081 C 
ATOM     10  C   UNL     1     -13.735   9.491  21.865  0.00  0.00    +0.027 C 
ATOM     12  C   UNL     1     -11.957   6.877  20.456  0.00  0.00    +0.013 C 
ATOM     13  C   UNL     1     -13.689   8.168  19.233  0.00  0.00    +0.013 C 
ENDROOT
BRANCH   9   4
ATOM      2  O   UNL     1     -10.039   9.794  19.499  0.00  0.00    -0.253 OA
ATOM      4  N   UNL     1     -12.197  10.406  20.085  0.00  0.00    -0.296 N 
ATOM      6  N   UNL     1     -11.067  11.610  18.481  0.00  0.00    -0.297 N 
ATOM     15  C   UNL     1     -11.011  10.537  19.365  0.00  0.00    +0.300 C 
ATOM     23  H   UNL     1     -12.932  11.084  19.896  0.00  0.00    +0.151 HD
ATOM     24  H   UNL     1     -11.943  12.117  18.390  0.00  0.00    +0.150 HD
BRANCH   6  18
ATOM     18  C   UNL     1      -9.968  11.965  17.614  0.00  0.00    +0.068 C 
ATOM     20  C   UNL     1      -9.814  13.479  17.548  0.00  0.00    +0.027 C 
ATOM     21  C   UNL     1     -10.167  11.368  16.227  0.00  0.00    +0.027 C 
ENDBRANCH   6  18
ENDBRANCH   9   4
BRANCH   8  11
ATOM     11  C   UNL     1     -15.241   7.415  21.648  0.00  0.00    +0.063 C 
BRANCH  11  14
ATOM      1  O   UNL     1     -15.107   3.904  22.469  0.00  0.00    -0.359 OA
ATOM      5  N   UNL     1     -14.831   4.986  21.640  0.00  0.00    -0.083 NA
ATOM     14  C   UNL     1     -15.354   6.043  22.267  0.00  0.00    +0.084 A 
ATOM     16  C   UNL     1     -15.966   5.694  23.483  0.00  0.00    +0.071 A 
ATOM     17  C   UNL     1     -15.783   4.340  23.563  0.00  0.00    +0.140 A 
BRANCH  17  19
ATOM     19  C   UNL     1     -16.156   3.319  24.551  0.00  0.00    +0.105 C 
BRANCH  19  22
ATOM     22  C   UNL     1     -17.248   2.349  24.058  0.00  0.00    +0.163 C 
BRANCH  22   3
ATOM      3  O   UNL     1     -16.935   1.920  22.738  0.00  0.00    -0.395 OA
ATOM     25  H   UNL     1     -17.710   1.437  22.405  0.00  0.00    +0.209 HD
ENDBRANCH  22   3
ENDBRANCH  19  22
ENDBRANCH  17  19
ENDBRANCH  11  14
ENDBRANCH   8  11
TORSDOF 7
ENDMDL
