MODEL 1
REMARK VINA RESULT:      -6.3      0.000      0.000
REMARK  Name = 38029736
REMARK  13 active torsions:
REMARK  status: ('A' for Active; 'I' for Inactive)
REMARK    1  A    between atoms: S_1  and  N_6
REMARK    2  A    between atoms: S_1  and  C_20
REMARK    3  A    between atoms: O_2  and  C_19
REMARK    4  A    between atoms: O_2  and  C_21
REMARK    5  A    between atoms: N_6  and  C_14
REMARK    6  A    between atoms: C_7  and  C_11
REMARK    7  A    between atoms: C_8  and  C_14
REMARK    8  A    between atoms: C_10  and  C_15
REMARK    9  A    between atoms: C_11  and  C_16
REMARK   10  A    between atoms: C_11  and  C_17
REMARK   11  A    between atoms: C_12  and  C_18
REMARK   12  A    between atoms: C_15  and  C_19
REMARK   13  A    between atoms: C_21  and  C_24
REMARK                            x       y       z     vdW  Elec       q    Type
REMARK                         _______ _______ _______ _____ _____    ______ ____
ROOT
ATOM      7  C   UNL     1      14.231   8.513  20.181  0.00  0.00    +0.000 C 
ATOM      8  C   UNL     1      13.686   7.139  19.716  0.00  0.00    +0.030 C 
ATOM      9  C   UNL     1      13.930   8.734  21.671  0.00  0.00    +0.012 C 
ATOM     10  C   UNL     1      12.421   8.679  21.974  0.00  0.00    +0.025 C 
ATOM     12  C   UNL     1      11.757   7.486  21.319  0.00  0.00    -0.073 C 
ATOM     13  C   UNL     1      12.343   6.801  20.320  0.00  0.00    -0.023 C 
ATOM     18  C   UNL     1      10.422   7.067  21.868  0.00  0.00    +0.039 C 
ENDROOT
BRANCH   7  11
ATOM     11  C   UNL     1      15.737   8.640  19.931  0.00  0.00    -0.013 C 
ATOM     16  C   UNL     1      16.477   7.441  20.515  0.00  0.00    +0.007 C 
ATOM     17  C   UNL     1      16.267   9.942  20.523  0.00  0.00    +0.007 C 
ENDBRANCH   7  11
BRANCH   8  14
ATOM     14  C   UNL     1      13.591   7.070  18.187  0.00  0.00    +0.113 C 
BRANCH  14   6
ATOM      6  N   UNL     1      12.173   6.999  17.797  0.00  0.00    -0.189 NA
ATOM     28  H   UNL     1      11.853   6.104  17.409  0.00  0.00    +0.148 HD
BRANCH   6   1
ATOM      1  S   UNL     1      11.352   8.405  17.294  0.00  0.00    +0.058 S 
ATOM      4  O   UNL     1      10.500   8.872  18.371  0.00  0.00    -0.153 OA
ATOM      5  O   UNL     1      10.802   8.186  15.971  0.00  0.00    -0.153 OA
BRANCH   1  20
ATOM     20  C   UNL     1      12.684   9.555  17.115  0.00  0.00    +0.105 A 
ATOM     22  C   UNL     1      13.527   9.478  16.006  0.00  0.00    +0.028 A 
ATOM     23  C   UNL     1      12.894  10.535  18.085  0.00  0.00    +0.028 A 
ATOM     25  C   UNL     1      14.580  10.383  15.867  0.00  0.00    +0.002 A 
ATOM     26  C   UNL     1      13.947  11.439  17.945  0.00  0.00    +0.002 A 
ATOM     27  C   UNL     1      14.789  11.363  16.837  0.00  0.00    +0.000 A 
ENDBRANCH   1  20
ENDBRANCH   6   1
ENDBRANCH  14   6
ENDBRANCH   8  14
BRANCH  10  15
ATOM     15  C   UNL     1      11.729   9.985  21.565  0.00  0.00    +0.128 C 
BRANCH  15  19
ATOM      3  O   UNL     1      10.980  10.347  23.850  0.00  0.00    -0.251 OA
ATOM     19  C   UNL     1      11.325  10.798  22.766  0.00  0.00    +0.308 C 
BRANCH  19   2
ATOM      2  O   UNL     1      11.408  12.122  22.439  0.00  0.00    -0.465 OA
BRANCH   2  21
ATOM     21  C   UNL     1      11.888  12.401  21.120  0.00  0.00    +0.229 C 
ATOM     24  C   UNL     1      11.564  13.839  20.772  0.00  0.00    +0.048 C 
ENDBRANCH   2  21
ENDBRANCH  19   2
ENDBRANCH  15  19
ENDBRANCH  10  15
TORSDOF 9
ENDMDL
MODEL 2
REMARK VINA RESULT:      -6.3      2.902      4.817
REMARK  Name = 38029736
REMARK  13 active torsions:
REMARK  status: ('A' for Active; 'I' for Inactive)
REMARK    1  A    between atoms: S_1  and  N_6
REMARK    2  A    between atoms: S_1  and  C_20
REMARK    3  A    between atoms: O_2  and  C_19
REMARK    4  A    between atoms: O_2  and  C_21
REMARK    5  A    between atoms: N_6  and  C_14
REMARK    6  A    between atoms: C_7  and  C_11
REMARK    7  A    between atoms: C_8  and  C_14
REMARK    8  A    between atoms: C_10  and  C_15
REMARK    9  A    between atoms: C_11  and  C_16
REMARK   10  A    between atoms: C_11  and  C_17
REMARK   11  A    between atoms: C_12  and  C_18
REMARK   12  A    between atoms: C_15  and  C_19
REMARK   13  A    between atoms: C_21  and  C_24
REMARK                            x       y       z     vdW  Elec       q    Type
REMARK                         _______ _______ _______ _____ _____    ______ ____
ROOT
ATOM      7  C   UNL     1      17.023   7.590  20.649  0.00  0.00    +0.000 C 
ATOM      8  C   UNL     1      15.700   7.313  21.405  0.00  0.00    +0.030 C 
ATOM      9  C   UNL     1      17.887   8.593  21.428  0.00  0.00    +0.012 C 
ATOM     10  C   UNL     1      17.163   9.935  21.650  0.00  0.00    +0.025 C 
ATOM     12  C   UNL     1      15.745   9.734  22.145  0.00  0.00    -0.073 C 
ATOM     13  C   UNL     1      15.112   8.552  22.040  0.00  0.00    -0.023 C 
ATOM     18  C   UNL     1      15.086  10.912  22.807  0.00  0.00    +0.039 C 
ENDROOT
BRANCH   7  11
ATOM     11  C   UNL     1      17.817   6.302  20.405  0.00  0.00    -0.013 C 
ATOM     16  C   UNL     1      19.298   6.528  20.694  0.00  0.00    +0.007 C 
ATOM     17  C   UNL     1      17.614   5.815  18.974  0.00  0.00    +0.007 C 
ENDBRANCH   7  11
BRANCH   8  14
ATOM     14  C   UNL     1      14.659   6.669  20.482  0.00  0.00    +0.113 C 
BRANCH  14   6
ATOM      6  N   UNL     1      13.448   6.365  21.260  0.00  0.00    -0.189 NA
ATOM     28  H   UNL     1      13.510   5.566  21.903  0.00  0.00    +0.148 HD
BRANCH   6   1
ATOM      1  S   UNL     1      11.909   6.744  20.634  0.00  0.00    +0.058 S 
ATOM      4  O   UNL     1      10.914   5.899  21.267  0.00  0.00    -0.153 OA
ATOM      5  O   UNL     1      11.990   6.818  19.188  0.00  0.00    -0.153 OA
BRANCH   1  20
ATOM     20  C   UNL     1      11.678   8.395  21.223  0.00  0.00    +0.105 A 
ATOM     22  C   UNL     1      12.060   9.478  20.431  0.00  0.00    +0.028 A 
ATOM     23  C   UNL     1      11.118   8.614  22.481  0.00  0.00    +0.028 A 
ATOM     25  C   UNL     1      11.881  10.780  20.897  0.00  0.00    +0.002 A 
ATOM     26  C   UNL     1      10.939   9.917  22.948  0.00  0.00    +0.002 A 
ATOM     27  C   UNL     1      11.321  10.998  22.157  0.00  0.00    +0.000 A 
ENDBRANCH   1  20
ENDBRANCH   6   1
ENDBRANCH  14   6
ENDBRANCH   8  14
BRANCH  10  15
ATOM     15  C   UNL     1      17.184  10.791  20.379  0.00  0.00    +0.128 C 
BRANCH  15  19
ATOM      3  O   UNL     1      18.823  12.406  21.163  0.00  0.00    -0.251 OA
ATOM     19  C   UNL     1      17.742  12.164  20.644  0.00  0.00    +0.308 C 
BRANCH  19   2
ATOM      2  O   UNL     1      16.837  13.089  20.209  0.00  0.00    -0.465 OA
BRANCH   2  21
ATOM     21  C   UNL     1      15.767  12.576  19.409  0.00  0.00    +0.229 C 
ATOM     24  C   UNL     1      14.464  13.189  19.875  0.00  0.00    +0.048 C 
ENDBRANCH   2  21
ENDBRANCH  19   2
ENDBRANCH  15  19
ENDBRANCH  10  15
TORSDOF 9
ENDMDL
MODEL 3
REMARK VINA RESULT:      -6.2      3.991      6.395
REMARK  Name = 38029736
REMARK  13 active torsions:
REMARK  status: ('A' for Active; 'I' for Inactive)
REMARK    1  A    between atoms: S_1  and  N_6
REMARK    2  A    between atoms: S_1  and  C_20
REMARK    3  A    between atoms: O_2  and  C_19
REMARK    4  A    between atoms: O_2  and  C_21
REMARK    5  A    between atoms: N_6  and  C_14
REMARK    6  A    between atoms: C_7  and  C_11
REMARK    7  A    between atoms: C_8  and  C_14
REMARK    8  A    between atoms: C_10  and  C_15
REMARK    9  A    between atoms: C_11  and  C_16
REMARK   10  A    between atoms: C_11  and  C_17
REMARK   11  A    between atoms: C_12  and  C_18
REMARK   12  A    between atoms: C_15  and  C_19
REMARK   13  A    between atoms: C_21  and  C_24
REMARK                            x       y       z     vdW  Elec       q    Type
REMARK                         _______ _______ _______ _____ _____    ______ ____
ROOT
ATOM      7  C   UNL     1      16.703   8.292  21.077  0.00  0.00    +0.000 C 
ATOM      8  C   UNL     1      16.230   7.397  19.903  0.00  0.00    +0.030 C 
ATOM      9  C   UNL     1      18.223   8.503  21.013  0.00  0.00    +0.012 C 
ATOM     10  C   UNL     1      18.999   7.174  21.070  0.00  0.00    +0.025 C 
ATOM     12  C   UNL     1      18.418   6.141  20.125  0.00  0.00    -0.073 C 
ATOM     13  C   UNL     1      17.185   6.265  19.603  0.00  0.00    -0.023 C 
ATOM     18  C   UNL     1      19.306   4.985  19.757  0.00  0.00    +0.039 C 
ENDROOT
BRANCH   7  11
ATOM     11  C   UNL     1      15.990   9.648  21.080  0.00  0.00    -0.013 C 
ATOM     16  C   UNL     1      16.988  10.773  20.828  0.00  0.00    +0.007 C 
ATOM     17  C   UNL     1      15.257   9.861  22.400  0.00  0.00    +0.007 C 
ENDBRANCH   7  11
BRANCH   8  14
ATOM     14  C   UNL     1      14.832   6.829  20.169  0.00  0.00    +0.113 C 
BRANCH  14   6
ATOM      6  N   UNL     1      14.051   6.870  18.923  0.00  0.00    -0.189 NA
ATOM     28  H   UNL     1      14.582   7.034  18.059  0.00  0.00    +0.148 HD
BRANCH   6   1
ATOM      1  S   UNL     1      12.424   7.378  18.947  0.00  0.00    +0.058 S 
ATOM      4  O   UNL     1      11.727   6.699  20.022  0.00  0.00    -0.153 OA
ATOM      5  O   UNL     1      11.896   7.343  17.598  0.00  0.00    -0.153 OA
BRANCH   1  20
ATOM     20  C   UNL     1      12.587   9.081  19.393  0.00  0.00    +0.105 A 
ATOM     22  C   UNL     1      13.304   9.952  18.573  0.00  0.00    +0.028 A 
ATOM     23  C   UNL     1      12.001   9.554  20.568  0.00  0.00    +0.028 A 
ATOM     25  C   UNL     1      13.435  11.295  18.926  0.00  0.00    +0.002 A 
ATOM     26  C   UNL     1      12.133  10.897  20.921  0.00  0.00    +0.002 A 
ATOM     27  C   UNL     1      12.850  11.766  20.102  0.00  0.00    +0.000 A 
ENDBRANCH   1  20
ENDBRANCH   6   1
ENDBRANCH  14   6
ENDBRANCH   8  14
BRANCH  10  15
ATOM     15  C   UNL     1      19.061   6.632  22.503  0.00  0.00    +0.128 C 
BRANCH  15  19
ATOM      3  O   UNL     1      20.779   6.530  24.220  0.00  0.00    -0.251 OA
ATOM     19  C   UNL     1      20.466   6.656  23.044  0.00  0.00    +0.308 C 
BRANCH  19   2
ATOM      2  O   UNL     1      21.327   6.844  22.001  0.00  0.00    -0.465 OA
BRANCH   2  21
ATOM     21  C   UNL     1      22.593   6.188  22.121  0.00  0.00    +0.229 C 
ATOM     24  C   UNL     1      22.443   4.745  21.690  0.00  0.00    +0.048 C 
ENDBRANCH   2  21
ENDBRANCH  19   2
ENDBRANCH  15  19
ENDBRANCH  10  15
TORSDOF 9
ENDMDL
MODEL 4
REMARK VINA RESULT:      -5.9      1.896      4.299
REMARK  Name = 38029736
REMARK  13 active torsions:
REMARK  status: ('A' for Active; 'I' for Inactive)
REMARK    1  A    between atoms: S_1  and  N_6
REMARK    2  A    between atoms: S_1  and  C_20
REMARK    3  A    between atoms: O_2  and  C_19
REMARK    4  A    between atoms: O_2  and  C_21
REMARK    5  A    between atoms: N_6  and  C_14
REMARK    6  A    between atoms: C_7  and  C_11
REMARK    7  A    between atoms: C_8  and  C_14
REMARK    8  A    between atoms: C_10  and  C_15
REMARK    9  A    between atoms: C_11  and  C_16
REMARK   10  A    between atoms: C_11  and  C_17
REMARK   11  A    between atoms: C_12  and  C_18
REMARK   12  A    between atoms: C_15  and  C_19
REMARK   13  A    between atoms: C_21  and  C_24
REMARK                            x       y       z     vdW  Elec       q    Type
REMARK                         _______ _______ _______ _____ _____    ______ ____
ROOT
ATOM      7  C   UNL     1      13.076  12.561  20.332  0.00  0.00    +0.000 C 
ATOM      8  C   UNL     1      14.033  11.576  19.614  0.00  0.00    +0.030 C 
ATOM      9  C   UNL     1      13.455  12.693  21.815  0.00  0.00    +0.012 C 
ATOM     10  C   UNL     1      13.405  11.341  22.551  0.00  0.00    +0.025 C 
ATOM     12  C   UNL     1      14.103  10.248  21.769  0.00  0.00    -0.073 C 
ATOM     13  C   UNL     1      14.388  10.376  20.461  0.00  0.00    -0.023 C 
ATOM     18  C   UNL     1      14.509   9.020  22.536  0.00  0.00    +0.039 C 
ENDROOT
BRANCH   7  11
ATOM     11  C   UNL     1      13.082  13.943  19.670  0.00  0.00    -0.013 C 
ATOM     16  C   UNL     1      14.155  14.828  20.296  0.00  0.00    +0.007 C 
ATOM     17  C   UNL     1      11.708  14.595  19.786  0.00  0.00    +0.007 C 
ENDBRANCH   7  11
BRANCH   8  14
ATOM     14  C   UNL     1      13.443  11.105  18.281  0.00  0.00    +0.113 C 
BRANCH  14   6
ATOM      6  N   UNL     1      13.914   9.739  18.002  0.00  0.00    -0.189 NA
ATOM     28  H   UNL     1      14.874   9.653  17.646  0.00  0.00    +0.148 HD
BRANCH   6   1
ATOM      1  S   UNL     1      12.805   8.525  17.556  0.00  0.00    +0.058 S 
ATOM      4  O   UNL     1      13.525   7.418  16.953  0.00  0.00    -0.153 OA
ATOM      5  O   UNL     1      11.689   9.134  16.859  0.00  0.00    -0.153 OA
BRANCH   1  20
ATOM     20  C   UNL     1      12.203   7.991  19.130  0.00  0.00    +0.105 A 
ATOM     22  C   UNL     1      12.831   6.938  19.796  0.00  0.00    +0.028 A 
ATOM     23  C   UNL     1      11.099   8.620  19.704  0.00  0.00    +0.028 A 
ATOM     25  C   UNL     1      12.354   6.514  21.036  0.00  0.00    +0.002 A 
ATOM     26  C   UNL     1      10.622   8.196  20.945  0.00  0.00    +0.002 A 
ATOM     27  C   UNL     1      11.249   7.144  21.610  0.00  0.00    +0.000 A 
ENDBRANCH   1  20
ENDBRANCH   6   1
ENDBRANCH  14   6
ENDBRANCH   8  14
BRANCH  10  15
ATOM     15  C   UNL     1      11.961  10.944  22.879  0.00  0.00    +0.128 C 
BRANCH  15  19
ATOM      3  O   UNL     1      12.193  11.286  25.275  0.00  0.00    -0.251 OA
ATOM     19  C   UNL     1      11.550  11.428  24.245  0.00  0.00    +0.308 C 
BRANCH  19   2
ATOM      2  O   UNL     1      10.338  12.048  24.135  0.00  0.00    -0.465 OA
BRANCH   2  21
ATOM     21  C   UNL     1      10.361  13.473  24.264  0.00  0.00    +0.229 C 
ATOM     24  C   UNL     1       9.859  14.093  22.977  0.00  0.00    +0.048 C 
ENDBRANCH   2  21
ENDBRANCH  19   2
ENDBRANCH  15  19
ENDBRANCH  10  15
TORSDOF 9
ENDMDL
MODEL 5
REMARK VINA RESULT:      -5.6      2.630      4.828
REMARK  Name = 38029736
REMARK  13 active torsions:
REMARK  status: ('A' for Active; 'I' for Inactive)
REMARK    1  A    between atoms: S_1  and  N_6
REMARK    2  A    between atoms: S_1  and  C_20
REMARK    3  A    between atoms: O_2  and  C_19
REMARK    4  A    between atoms: O_2  and  C_21
REMARK    5  A    between atoms: N_6  and  C_14
REMARK    6  A    between atoms: C_7  and  C_11
REMARK    7  A    between atoms: C_8  and  C_14
REMARK    8  A    between atoms: C_10  and  C_15
REMARK    9  A    between atoms: C_11  and  C_16
REMARK   10  A    between atoms: C_11  and  C_17
REMARK   11  A    between atoms: C_12  and  C_18
REMARK   12  A    between atoms: C_15  and  C_19
REMARK   13  A    between atoms: C_21  and  C_24
REMARK                            x       y       z     vdW  Elec       q    Type
REMARK                         _______ _______ _______ _____ _____    ______ ____
ROOT
ATOM      7  C   UNL     1      12.148   8.798  20.620  0.00  0.00    +0.000 C 
ATOM      8  C   UNL     1      12.419   8.745  19.096  0.00  0.00    +0.030 C 
ATOM      9  C   UNL     1      11.718  10.211  21.041  0.00  0.00    +0.012 C 
ATOM     10  C   UNL     1      12.783  11.270  20.699  0.00  0.00    +0.025 C 
ATOM     12  C   UNL     1      13.300  11.113  19.284  0.00  0.00    -0.073 C 
ATOM     13  C   UNL     1      13.116   9.982  18.578  0.00  0.00    -0.023 C 
ATOM     18  C   UNL     1      13.993  12.302  18.680  0.00  0.00    +0.039 C 
ENDROOT
BRANCH   7  11
ATOM     11  C   UNL     1      11.080   7.784  21.042  0.00  0.00    -0.013 C 
ATOM     16  C   UNL     1      10.286   8.311  22.232  0.00  0.00    +0.007 C 
ATOM     17  C   UNL     1      11.722   6.440  21.373  0.00  0.00    +0.007 C 
ENDBRANCH   7  11
BRANCH   8  14
ATOM     14  C   UNL     1      13.237   7.504  18.722  0.00  0.00    +0.113 C 
BRANCH  14   6
ATOM      6  N   UNL     1      14.670   7.812  18.858  0.00  0.00    -0.189 NA
ATOM     28  H   UNL     1      15.088   8.369  18.103  0.00  0.00    +0.148 HD
BRANCH   6   1
ATOM      1  S   UNL     1      15.698   6.751  19.706  0.00  0.00    +0.058 S 
ATOM      4  O   UNL     1      16.404   5.910  18.758  0.00  0.00    -0.153 OA
ATOM      5  O   UNL     1      14.963   6.154  20.804  0.00  0.00    -0.153 OA
BRANCH   1  20
ATOM     20  C   UNL     1      16.866   7.872  20.416  0.00  0.00    +0.105 A 
ATOM     22  C   UNL     1      18.073   7.392  20.923  0.00  0.00    +0.028 A 
ATOM     23  C   UNL     1      16.579   9.236  20.472  0.00  0.00    +0.028 A 
ATOM     25  C   UNL     1      18.994   8.276  21.487  0.00  0.00    +0.002 A 
ATOM     26  C   UNL     1      17.500  10.119  21.035  0.00  0.00    +0.002 A 
ATOM     27  C   UNL     1      18.706   9.640  21.543  0.00  0.00    +0.000 A 
ENDBRANCH   1  20
ENDBRANCH   6   1
ENDBRANCH  14   6
ENDBRANCH   8  14
BRANCH  10  15
ATOM     15  C   UNL     1      13.935  11.240  21.710  0.00  0.00    +0.128 C 
BRANCH  15  19
ATOM      3  O   UNL     1      13.667  13.386  22.821  0.00  0.00    -0.251 OA
ATOM     19  C   UNL     1      13.678  12.164  22.871  0.00  0.00    +0.308 C 
BRANCH  19   2
ATOM      2  O   UNL     1      13.462  11.405  23.986  0.00  0.00    -0.465 OA
BRANCH   2  21
ATOM     21  C   UNL     1      12.482  11.912  24.896  0.00  0.00    +0.229 C 
ATOM     24  C   UNL     1      11.157  11.232  24.624  0.00  0.00    +0.048 C 
ENDBRANCH   2  21
ENDBRANCH  19   2
ENDBRANCH  15  19
ENDBRANCH  10  15
TORSDOF 9
ENDMDL
MODEL 6
REMARK VINA RESULT:      -5.4     24.100     26.883
REMARK  Name = 38029736
REMARK  13 active torsions:
REMARK  status: ('A' for Active; 'I' for Inactive)
REMARK    1  A    between atoms: S_1  and  N_6
REMARK    2  A    between atoms: S_1  and  C_20
REMARK    3  A    between atoms: O_2  and  C_19
REMARK    4  A    between atoms: O_2  and  C_21
REMARK    5  A    between atoms: N_6  and  C_14
REMARK    6  A    between atoms: C_7  and  C_11
REMARK    7  A    between atoms: C_8  and  C_14
REMARK    8  A    between atoms: C_10  and  C_15
REMARK    9  A    between atoms: C_11  and  C_16
REMARK   10  A    between atoms: C_11  and  C_17
REMARK   11  A    between atoms: C_12  and  C_18
REMARK   12  A    between atoms: C_15  and  C_19
REMARK   13  A    between atoms: C_21  and  C_24
REMARK                            x       y       z     vdW  Elec       q    Type
REMARK                         _______ _______ _______ _____ _____    ______ ____
ROOT
ATOM      7  C   UNL     1     -14.160   7.393  21.723  0.00  0.00    +0.000 C 
ATOM      8  C   UNL     1     -13.851   8.579  22.670  0.00  0.00    +0.030 C 
ATOM      9  C   UNL     1     -12.942   7.077  20.843  0.00  0.00    +0.012 C 
ATOM     10  C   UNL     1     -12.512   8.284  19.988  0.00  0.00    +0.025 C 
ATOM     12  C   UNL     1     -12.445   9.558  20.805  0.00  0.00    -0.073 C 
ATOM     13  C   UNL     1     -13.038   9.667  22.008  0.00  0.00    -0.023 C 
ATOM     18  C   UNL     1     -11.641  10.690  20.230  0.00  0.00    +0.039 C 
ENDROOT
BRANCH   7  11
ATOM     11  C   UNL     1     -14.579   6.140  22.500  0.00  0.00    -0.013 C 
ATOM     16  C   UNL     1     -13.487   5.077  22.422  0.00  0.00    +0.007 C 
ATOM     17  C   UNL     1     -15.900   5.598  21.965  0.00  0.00    +0.007 C 
ENDBRANCH   7  11
BRANCH   8  14
ATOM     14  C   UNL     1     -15.140   9.181  23.241  0.00  0.00    +0.113 C 
BRANCH  14   6
ATOM      6  N   UNL     1     -15.009   9.301  24.702  0.00  0.00    -0.189 NA
ATOM     28  H   UNL     1     -15.485   8.582  25.261  0.00  0.00    +0.148 HD
BRANCH   6   1
ATOM      1  S   UNL     1     -14.793  10.831  25.420  0.00  0.00    +0.058 S 
ATOM      4  O   UNL     1     -15.783  11.013  26.465  0.00  0.00    -0.153 OA
ATOM      5  O   UNL     1     -14.640  11.828  24.379  0.00  0.00    -0.153 OA
BRANCH   1  20
ATOM     20  C   UNL     1     -13.213  10.645  26.193  0.00  0.00    +0.105 A 
ATOM     22  C   UNL     1     -12.049  10.752  25.433  0.00  0.00    +0.028 A 
ATOM     23  C   UNL     1     -13.132  10.389  27.561  0.00  0.00    +0.028 A 
ATOM     25  C   UNL     1     -10.802  10.602  26.041  0.00  0.00    +0.002 A 
ATOM     26  C   UNL     1     -11.885  10.239  28.170  0.00  0.00    +0.002 A 
ATOM     27  C   UNL     1     -10.722  10.345  27.410  0.00  0.00    +0.000 A 
ENDBRANCH   1  20
ENDBRANCH   6   1
ENDBRANCH  14   6
ENDBRANCH   8  14
BRANCH  10  15
ATOM     15  C   UNL     1     -13.434   8.458  18.776  0.00  0.00    +0.128 C 
BRANCH  15  19
ATOM      3  O   UNL     1     -13.206   8.229  16.366  0.00  0.00    -0.251 OA
ATOM     19  C   UNL     1     -12.711   8.183  17.484  0.00  0.00    +0.308 C 
BRANCH  19   2
ATOM      2  O   UNL     1     -11.413   7.873  17.775  0.00  0.00    -0.465 OA
BRANCH   2  21
ATOM     21  C   UNL     1     -10.451   8.258  16.788  0.00  0.00    +0.229 C 
ATOM     24  C   UNL     1     -10.033   9.691  17.039  0.00  0.00    +0.048 C 
ENDBRANCH   2  21
ENDBRANCH  19   2
ENDBRANCH  15  19
ENDBRANCH  10  15
TORSDOF 9
ENDMDL
MODEL 7
REMARK VINA RESULT:      -5.4     25.440     28.281
REMARK  Name = 38029736
REMARK  13 active torsions:
REMARK  status: ('A' for Active; 'I' for Inactive)
REMARK    1  A    between atoms: S_1  and  N_6
REMARK    2  A    between atoms: S_1  and  C_20
REMARK    3  A    between atoms: O_2  and  C_19
REMARK    4  A    between atoms: O_2  and  C_21
REMARK    5  A    between atoms: N_6  and  C_14
REMARK    6  A    between atoms: C_7  and  C_11
REMARK    7  A    between atoms: C_8  and  C_14
REMARK    8  A    between atoms: C_10  and  C_15
REMARK    9  A    between atoms: C_11  and  C_16
REMARK   10  A    between atoms: C_11  and  C_17
REMARK   11  A    between atoms: C_12  and  C_18
REMARK   12  A    between atoms: C_15  and  C_19
REMARK   13  A    between atoms: C_21  and  C_24
REMARK                            x       y       z     vdW  Elec       q    Type
REMARK                         _______ _______ _______ _____ _____    ______ ____
ROOT
ATOM      7  C   UNL     1      -3.819 -10.294  11.491  0.00  0.00    +0.000 C 
ATOM      8  C   UNL     1      -4.901  -9.641  12.388  0.00  0.00    +0.030 C 
ATOM      9  C   UNL     1      -3.689  -9.530  10.165  0.00  0.00    +0.012 C 
ATOM     10  C   UNL     1      -5.014  -9.494   9.382  0.00  0.00    +0.025 C 
ATOM     12  C   UNL     1      -6.183  -9.115  10.268  0.00  0.00    -0.073 C 
ATOM     13  C   UNL     1      -6.109  -9.174  11.610  0.00  0.00    -0.023 C 
ATOM     18  C   UNL     1      -7.425  -8.622   9.579  0.00  0.00    +0.039 C 
ENDROOT
BRANCH   7  11
ATOM     11  C   UNL     1      -2.458 -10.351  12.193  0.00  0.00    -0.013 C 
ATOM     16  C   UNL     1      -1.420  -9.559  11.405  0.00  0.00    +0.007 C 
ATOM     17  C   UNL     1      -2.012 -11.799  12.372  0.00  0.00    +0.007 C 
ENDBRANCH   7  11
BRANCH   8  14
ATOM     14  C   UNL     1      -5.347 -10.597  13.501  0.00  0.00    +0.113 C 
BRANCH  14   6
ATOM      6  N   UNL     1      -4.852 -10.095  14.793  0.00  0.00    -0.189 NA
ATOM     28  H   UNL     1      -4.742  -9.077  14.873  0.00  0.00    +0.148 HD
BRANCH   6   1
ATOM      1  S   UNL     1      -3.840 -11.068  15.759  0.00  0.00    +0.058 S 
ATOM      4  O   UNL     1      -2.570 -10.392  15.951  0.00  0.00    -0.153 OA
ATOM      5  O   UNL     1      -3.875 -12.429  15.262  0.00  0.00    -0.153 OA
BRANCH   1  20
ATOM     20  C   UNL     1      -4.701 -11.059  17.303  0.00  0.00    +0.105 A 
ATOM     22  C   UNL     1      -4.197 -11.780  18.386  0.00  0.00    +0.028 A 
ATOM     23  C   UNL     1      -5.885 -10.335  17.438  0.00  0.00    +0.028 A 
ATOM     25  C   UNL     1      -4.877 -11.776  19.604  0.00  0.00    +0.002 A 
ATOM     26  C   UNL     1      -6.565 -10.331  18.656  0.00  0.00    +0.002 A 
ATOM     27  C   UNL     1      -6.062 -11.052  19.738  0.00  0.00    +0.000 A 
ENDBRANCH   1  20
ENDBRANCH   6   1
ENDBRANCH  14   6
ENDBRANCH   8  14
BRANCH  10  15
ATOM     15  C   UNL     1      -5.274 -10.828   8.673  0.00  0.00    +0.128 C 
BRANCH  15  19
ATOM      3  O   UNL     1      -4.533 -11.447   6.441  0.00  0.00    -0.251 OA
ATOM     19  C   UNL     1      -5.156 -10.694   7.177  0.00  0.00    +0.308 C 
BRANCH  19   2
ATOM      2  O   UNL     1      -5.858  -9.589   6.787  0.00  0.00    -0.465 OA
BRANCH   2  21
ATOM     21  C   UNL     1      -6.794  -9.798   5.724  0.00  0.00    +0.229 C 
ATOM     24  C   UNL     1      -7.156  -8.460   5.116  0.00  0.00    +0.048 C 
ENDBRANCH   2  21
ENDBRANCH  19   2
ENDBRANCH  15  19
ENDBRANCH  10  15
TORSDOF 9
ENDMDL
MODEL 8
REMARK VINA RESULT:      -5.3     13.269     16.759
REMARK  Name = 38029736
REMARK  13 active torsions:
REMARK  status: ('A' for Active; 'I' for Inactive)
REMARK    1  A    between atoms: S_1  and  N_6
REMARK    2  A    between atoms: S_1  and  C_20
REMARK    3  A    between atoms: O_2  and  C_19
REMARK    4  A    between atoms: O_2  and  C_21
REMARK    5  A    between atoms: N_6  and  C_14
REMARK    6  A    between atoms: C_7  and  C_11
REMARK    7  A    between atoms: C_8  and  C_14
REMARK    8  A    between atoms: C_10  and  C_15
REMARK    9  A    between atoms: C_11  and  C_16
REMARK   10  A    between atoms: C_11  and  C_17
REMARK   11  A    between atoms: C_12  and  C_18
REMARK   12  A    between atoms: C_15  and  C_19
REMARK   13  A    between atoms: C_21  and  C_24
REMARK                            x       y       z     vdW  Elec       q    Type
REMARK                         _______ _______ _______ _____ _____    ______ ____
ROOT
ATOM      7  C   UNL     1      12.410   4.565   2.105  0.00  0.00    +0.000 C 
ATOM      8  C   UNL     1      12.149   5.683   1.065  0.00  0.00    +0.030 C 
ATOM      9  C   UNL     1      11.086   4.069   2.705  0.00  0.00    +0.012 C 
ATOM     10  C   UNL     1      10.299   5.200   3.393  0.00  0.00    +0.025 C 
ATOM     12  C   UNL     1      10.227   6.443   2.529  0.00  0.00    -0.073 C 
ATOM     13  C   UNL     1      11.053   6.635   1.485  0.00  0.00    -0.023 C 
ATOM     18  C   UNL     1       9.154   7.440   2.864  0.00  0.00    +0.039 C 
ENDROOT
BRANCH   7  11
ATOM     11  C   UNL     1      13.176   3.387   1.493  0.00  0.00    -0.013 C 
ATOM     16  C   UNL     1      14.673   3.543   1.736  0.00  0.00    +0.007 C 
ATOM     17  C   UNL     1      12.879   3.277   0.001  0.00  0.00    +0.007 C 
ENDBRANCH   7  11
BRANCH   8  14
ATOM     14  C   UNL     1      13.428   6.474   0.769  0.00  0.00    +0.113 C 
BRANCH  14   6
ATOM      6  N   UNL     1      13.441   7.693   1.594  0.00  0.00    -0.189 NA
ATOM     28  H   UNL     1      13.104   8.551   1.141  0.00  0.00    +0.148 HD
BRANCH   6   1
ATOM      1  S   UNL     1      14.584   7.868   2.845  0.00  0.00    +0.058 S 
ATOM      4  O   UNL     1      15.382   9.055   2.601  0.00  0.00    -0.153 OA
ATOM      5  O   UNL     1      15.229   6.591   3.082  0.00  0.00    -0.153 OA
BRANCH   1  20
ATOM     20  C   UNL     1      13.544   8.188   4.239  0.00  0.00    +0.105 A 
ATOM     22  C   UNL     1      13.881   7.675   5.492  0.00  0.00    +0.028 A 
ATOM     23  C   UNL     1      12.386   8.950   4.086  0.00  0.00    +0.028 A 
ATOM     25  C   UNL     1      13.059   7.925   6.591  0.00  0.00    +0.002 A 
ATOM     26  C   UNL     1      11.565   9.199   5.185  0.00  0.00    +0.002 A 
ATOM     27  C   UNL     1      11.900   8.686   6.436  0.00  0.00    +0.000 A 
ENDBRANCH   1  20
ENDBRANCH   6   1
ENDBRANCH  14   6
ENDBRANCH   8  14
BRANCH  10  15
ATOM     15  C   UNL     1      10.887   5.524   4.771  0.00  0.00    +0.128 C 
BRANCH  15  19
ATOM      3  O   UNL     1       8.629   5.420   5.666  0.00  0.00    -0.251 OA
ATOM     19  C   UNL     1       9.837   5.467   5.849  0.00  0.00    +0.308 C 
BRANCH  19   2
ATOM      2  O   UNL     1      10.464   5.480   7.063  0.00  0.00    -0.465 OA
BRANCH   2  21
ATOM     21  C   UNL     1       9.606   5.629   8.198  0.00  0.00    +0.229 C 
ATOM     24  C   UNL     1       9.535   4.310   8.939  0.00  0.00    +0.048 C 
ENDBRANCH   2  21
ENDBRANCH  19   2
ENDBRANCH  15  19
ENDBRANCH  10  15
TORSDOF 9
ENDMDL
MODEL 9
REMARK VINA RESULT:      -5.3     23.801     25.876
REMARK  Name = 38029736
REMARK  13 active torsions:
REMARK  status: ('A' for Active; 'I' for Inactive)
REMARK    1  A    between atoms: S_1  and  N_6
REMARK    2  A    between atoms: S_1  and  C_20
REMARK    3  A    between atoms: O_2  and  C_19
REMARK    4  A    between atoms: O_2  and  C_21
REMARK    5  A    between atoms: N_6  and  C_14
REMARK    6  A    between atoms: C_7  and  C_11
REMARK    7  A    between atoms: C_8  and  C_14
REMARK    8  A    between atoms: C_10  and  C_15
REMARK    9  A    between atoms: C_11  and  C_16
REMARK   10  A    between atoms: C_11  and  C_17
REMARK   11  A    between atoms: C_12  and  C_18
REMARK   12  A    between atoms: C_15  and  C_19
REMARK   13  A    between atoms: C_21  and  C_24
REMARK                            x       y       z     vdW  Elec       q    Type
REMARK                         _______ _______ _______ _____ _____    ______ ____
ROOT
ATOM      7  C   UNL     1     -10.657  10.707  16.773  0.00  0.00    +0.000 C 
ATOM      8  C   UNL     1     -10.388   9.327  16.122  0.00  0.00    +0.030 C 
ATOM      9  C   UNL     1     -10.234  10.696  18.250  0.00  0.00    +0.012 C 
ATOM     10  C   UNL     1     -10.981   9.620  19.061  0.00  0.00    +0.025 C 
ATOM     12  C   UNL     1     -10.990   8.283  18.350  0.00  0.00    -0.073 C 
ATOM     13  C   UNL     1     -10.710   8.169  17.039  0.00  0.00    -0.023 C 
ATOM     18  C   UNL     1     -11.285   7.071  19.189  0.00  0.00    +0.039 C 
ENDROOT
BRANCH   7  11
ATOM     11  C   UNL     1      -9.930  11.835  16.033  0.00  0.00    -0.013 C 
ATOM     16  C   UNL     1      -9.021  12.599  16.991  0.00  0.00    +0.007 C 
ATOM     17  C   UNL     1     -10.935  12.775  15.376  0.00  0.00    +0.007 C 
ENDBRANCH   7  11
BRANCH   8  14
ATOM     14  C   UNL     1     -11.168   9.172  14.811  0.00  0.00    +0.113 C 
BRANCH  14   6
ATOM      6  N   UNL     1     -11.978   7.945  14.875  0.00  0.00    -0.189 NA
ATOM     28  H   UNL     1     -11.461   7.066  14.998  0.00  0.00    +0.148 HD
BRANCH   6   1
ATOM      1  S   UNL     1     -13.475   7.864  14.065  0.00  0.00    +0.058 S 
ATOM      4  O   UNL     1     -13.546   6.623  13.317  0.00  0.00    -0.153 OA
ATOM      5  O   UNL     1     -13.727   9.130  13.405  0.00  0.00    -0.153 OA
BRANCH   1  20
ATOM     20  C   UNL     1     -14.609   7.751  15.416  0.00  0.00    +0.105 A 
ATOM     22  C   UNL     1     -14.274   8.299  16.655  0.00  0.00    +0.028 A 
ATOM     23  C   UNL     1     -15.837   7.112  15.246  0.00  0.00    +0.028 A 
ATOM     25  C   UNL     1     -15.167   8.207  17.723  0.00  0.00    +0.002 A 
ATOM     26  C   UNL     1     -16.730   7.020  16.313  0.00  0.00    +0.002 A 
ATOM     27  C   UNL     1     -16.395   7.567  17.551  0.00  0.00    +0.000 A 
ENDBRANCH   1  20
ENDBRANCH   6   1
ENDBRANCH  14   6
ENDBRANCH   8  14
BRANCH  10  15
ATOM     15  C   UNL     1     -12.407  10.073  19.397  0.00  0.00    +0.128 C 
BRANCH  15  19
ATOM      3  O   UNL     1     -12.486  11.539  21.335  0.00  0.00    -0.251 OA
ATOM     19  C   UNL     1     -12.551  10.415  20.856  0.00  0.00    +0.308 C 
BRANCH  19   2
ATOM      2  O   UNL     1     -12.763   9.258  21.551  0.00  0.00    -0.465 OA
BRANCH   2  21
ATOM     21  C   UNL     1     -14.131   8.860  21.682  0.00  0.00    +0.229 C 
ATOM     24  C   UNL     1     -14.254   7.393  21.331  0.00  0.00    +0.048 C 
ENDBRANCH   2  21
ENDBRANCH  19   2
ENDBRANCH  15  19
ENDBRANCH  10  15
TORSDOF 9
ENDMDL
MODEL 10
REMARK VINA RESULT:      -5.3     25.334     28.262
REMARK  Name = 38029736
REMARK  13 active torsions:
REMARK  status: ('A' for Active; 'I' for Inactive)
REMARK    1  A    between atoms: S_1  and  N_6
REMARK    2  A    between atoms: S_1  and  C_20
REMARK    3  A    between atoms: O_2  and  C_19
REMARK    4  A    between atoms: O_2  and  C_21
REMARK    5  A    between atoms: N_6  and  C_14
REMARK    6  A    between atoms: C_7  and  C_11
REMARK    7  A    between atoms: C_8  and  C_14
REMARK    8  A    between atoms: C_10  and  C_15
REMARK    9  A    between atoms: C_11  and  C_16
REMARK   10  A    between atoms: C_11  and  C_17
REMARK   11  A    between atoms: C_12  and  C_18
REMARK   12  A    between atoms: C_15  and  C_19
REMARK   13  A    between atoms: C_21  and  C_24
REMARK                            x       y       z     vdW  Elec       q    Type
REMARK                         _______ _______ _______ _____ _____    ______ ____
ROOT
ATOM      7  C   UNL     1      -3.405 -11.347  14.614  0.00  0.00    +0.000 C 
ATOM      8  C   UNL     1      -4.343 -10.657  15.636  0.00  0.00    +0.030 C 
ATOM      9  C   UNL     1      -3.386 -10.568  13.290  0.00  0.00    +0.012 C 
ATOM     10  C   UNL     1      -4.788 -10.450  12.664  0.00  0.00    +0.025 C 
ATOM     12  C   UNL     1      -5.827 -10.030  13.683  0.00  0.00    -0.073 C 
ATOM     13  C   UNL     1      -5.606 -10.116  15.007  0.00  0.00    -0.023 C 
ATOM     18  C   UNL     1      -7.112  -9.463  13.146  0.00  0.00    +0.039 C 
ENDROOT
BRANCH   7  11
ATOM     11  C   UNL     1      -1.978 -11.485  15.155  0.00  0.00    -0.013 C 
ATOM     16  C   UNL     1      -1.326 -10.113  15.291  0.00  0.00    +0.007 C 
ATOM     17  C   UNL     1      -1.150 -12.390  14.249  0.00  0.00    +0.007 C 
ENDBRANCH   7  11
BRANCH   8  14
ATOM     14  C   UNL     1      -4.709 -11.608  16.781  0.00  0.00    +0.113 C 
BRANCH  14   6
ATOM      6  N   UNL     1      -5.023 -10.818  17.982  0.00  0.00    -0.189 NA
ATOM     28  H   UNL     1      -4.220 -10.440  18.499  0.00  0.00    +0.148 HD
BRANCH   6   1
ATOM      1  S   UNL     1      -6.444 -11.134  18.868  0.00  0.00    +0.058 S 
ATOM      4  O   UNL     1      -6.481 -10.271  20.034  0.00  0.00    -0.153 OA
ATOM      5  O   UNL     1      -6.603 -12.567  19.015  0.00  0.00    -0.153 OA
BRANCH   1  20
ATOM     20  C   UNL     1      -7.696 -10.587  17.746  0.00  0.00    +0.105 A 
ATOM     22  C   UNL     1      -8.457 -11.520  17.042  0.00  0.00    +0.028 A 
ATOM     23  C   UNL     1      -7.921  -9.223  17.562  0.00  0.00    +0.028 A 
ATOM     25  C   UNL     1      -9.443 -11.089  16.154  0.00  0.00    +0.002 A 
ATOM     26  C   UNL     1      -8.906  -8.792  16.674  0.00  0.00    +0.002 A 
ATOM     27  C   UNL     1      -9.666  -9.724  15.970  0.00  0.00    +0.000 A 
ENDBRANCH   1  20
ENDBRANCH   6   1
ENDBRANCH  14   6
ENDBRANCH   8  14
BRANCH  10  15
ATOM     15  C   UNL     1      -5.195 -11.757  11.973  0.00  0.00    +0.128 C 
BRANCH  15  19
ATOM      3  O   UNL     1      -3.849 -12.574  10.120  0.00  0.00    -0.251 OA
ATOM     19  C   UNL     1      -4.702 -11.809  10.551  0.00  0.00    +0.308 C 
BRANCH  19   2
ATOM      2  O   UNL     1      -5.366 -10.860   9.829  0.00  0.00    -0.465 OA
BRANCH   2  21
ATOM     21  C   UNL     1      -4.589 -10.186   8.834  0.00  0.00    +0.229 C 
ATOM     24  C   UNL     1      -3.811  -9.065   9.490  0.00  0.00    +0.048 C 
ENDBRANCH   2  21
ENDBRANCH  19   2
ENDBRANCH  15  19
ENDBRANCH  10  15
TORSDOF 9
ENDMDL
