MODEL 1
REMARK VINA RESULT:      -6.7      0.000      0.000
REMARK  Name = 7127958
REMARK  10 active torsions:
REMARK  status: ('A' for Active; 'I' for Inactive)
REMARK    1  A    between atoms: O_5  and  C_38
REMARK    2  A    between atoms: O_5  and  C_39
REMARK    3  A    between atoms: N_7  and  C_17
REMARK    4  A    between atoms: N_8  and  C_21
REMARK    5  A    between atoms: N_9  and  C_28
REMARK    6  A    between atoms: C_12  and  C_16
REMARK    7  A    between atoms: C_15  and  C_20
REMARK    8  A    between atoms: C_21  and  C_23
REMARK    9  A    between atoms: C_21  and  C_24
REMARK   10  A    between atoms: C_23  and  C_25
REMARK                            x       y       z     vdW  Elec       q    Type
REMARK                         _______ _______ _______ _____ _____    ______ ____
ROOT
ATOM      1  O   UNL     1       8.355   6.921   7.716  0.00  0.00    -0.275 OA
ATOM      6  N   UNL     1      10.506   7.131   6.874  0.00  0.00    -0.288 N 
ATOM     15  C   UNL     1      10.210   8.174   5.905  0.00  0.00    +0.164 C 
ATOM     16  C   UNL     1       9.550   6.645   7.755  0.00  0.00    +0.219 C 
ATOM     17  C   UNL     1      12.530   7.523   5.693  0.00  0.00    +0.094 C 
ATOM     18  C   UNL     1      11.933   6.814   6.903  0.00  0.00    +0.131 C 
ATOM     19  C   UNL     1      11.572   8.694   5.450  0.00  0.00    +0.055 C 
ENDROOT
BRANCH  17   7
ATOM      3  O   UNL     1      14.736   7.302   3.878  0.00  0.00    -0.253 OA
ATOM      7  N   UNL     1      12.624   6.645   4.554  0.00  0.00    -0.295 N 
ATOM      9  N   UNL     1      13.550   5.657   2.696  0.00  0.00    -0.269 N 
ATOM     22  C   UNL     1      13.743   6.598   3.712  0.00  0.00    +0.304 C 
ATOM     40  H   UNL     1      11.815   6.083   4.310  0.00  0.00    +0.151 HD
ATOM     42  H   UNL     1      12.664   5.157   2.701  0.00  0.00    +0.156 HD
BRANCH   9  28
ATOM     28  C   UNL     1      14.439   5.312   1.652  0.00  0.00    +0.035 A 
ATOM     32  C   UNL     1      14.878   3.994   1.517  0.00  0.00    +0.027 A 
ATOM     33  C   UNL     1      14.874   6.287   0.756  0.00  0.00    +0.027 A 
ATOM     36  C   UNL     1      15.753   3.653   0.487  0.00  0.00    +0.047 A 
ATOM     37  C   UNL     1      15.750   5.946  -0.276  0.00  0.00    +0.047 A 
ATOM     38  C   UNL     1      16.189   4.629  -0.409  0.00  0.00    +0.120 A 
BRANCH  38   5
ATOM      5  O   UNL     1      17.042   4.296  -1.417  0.00  0.00    -0.495 OA
ATOM     39  C   UNL     1      16.869   4.968  -2.663  0.00  0.00    +0.277 C 
ENDBRANCH  38   5
ENDBRANCH   9  28
ENDBRANCH  17   7
BRANCH  15  20
ATOM      2  O   UNL     1       8.762   6.558   4.911  0.00  0.00    -0.274 OA
ATOM      8  N   UNL     1       9.614   8.273   3.587  0.00  0.00    -0.302 N 
ATOM     20  C   UNL     1       9.441   7.572   4.768  0.00  0.00    +0.234 C 
ATOM     41  H   UNL     1      10.130   9.149   3.608  0.00  0.00    +0.150 HD
BRANCH   8  21
ATOM     21  C   UNL     1       8.997   7.885   2.339  0.00  0.00    +0.163 C 
BRANCH  21  24
ATOM      4  O   UNL     1       7.167   9.421   2.783  0.00  0.00    -0.274 OA
ATOM     10  N   UNL     1       8.111   9.414   0.689  0.00  0.00    -0.328 N 
ATOM     24  C   UNL     1       7.983   8.964   1.987  0.00  0.00    +0.231 C 
ATOM     43  H   UNL     1       8.807   9.043   0.049  0.00  0.00    +0.145 HD
ATOM     44  H   UNL     1       7.505  10.143   0.329  0.00  0.00    +0.145 HD
ENDBRANCH  21  24
BRANCH  21  23
ATOM     23  C   UNL     1      10.022   7.724   1.211  0.00  0.00    +0.069 C 
BRANCH  23  25
ATOM     11  N   UNL     1      10.608   4.095   1.204  0.00  0.00    -0.360 N 
ATOM     25  C   UNL     1      10.413   6.294   0.969  0.00  0.00    -0.020 A 
ATOM     26  C   UNL     1      11.210   5.802  -0.101  0.00  0.00    +0.003 A 
ATOM     27  C   UNL     1      10.058   5.220   1.754  0.00  0.00    +0.087 A 
ATOM     29  C   UNL     1      11.317   4.419   0.069  0.00  0.00    +0.047 A 
ATOM     30  C   UNL     1      11.853   6.401  -1.203  0.00  0.00    +0.010 A 
ATOM     31  C   UNL     1      12.038   3.604  -0.811  0.00  0.00    +0.026 A 
ATOM     34  C   UNL     1      12.577   5.598  -2.091  0.00  0.00    +0.001 A 
ATOM     35  C   UNL     1      12.667   4.221  -1.896  0.00  0.00    +0.002 A 
ATOM     45  H   UNL     1      10.508   3.160   1.574  0.00  0.00    +0.165 HD
ENDBRANCH  23  25
ENDBRANCH  21  23
ENDBRANCH   8  21
ENDBRANCH  15  20
BRANCH  16  12
ATOM     12  C   UNL     1      10.037   5.701   8.808  0.00  0.00    +0.075 C 
ATOM     13  C   UNL     1       9.039   5.028   9.703  0.00  0.00    +0.013 C 
ATOM     14  C   UNL     1       9.762   4.233   8.657  0.00  0.00    +0.013 C 
ENDBRANCH  16  12
TORSDOF 9
ENDMDL
MODEL 2
REMARK VINA RESULT:      -6.5     23.747     27.036
REMARK  Name = 7127958
REMARK  10 active torsions:
REMARK  status: ('A' for Active; 'I' for Inactive)
REMARK    1  A    between atoms: O_5  and  C_38
REMARK    2  A    between atoms: O_5  and  C_39
REMARK    3  A    between atoms: N_7  and  C_17
REMARK    4  A    between atoms: N_8  and  C_21
REMARK    5  A    between atoms: N_9  and  C_28
REMARK    6  A    between atoms: C_12  and  C_16
REMARK    7  A    between atoms: C_15  and  C_20
REMARK    8  A    between atoms: C_21  and  C_23
REMARK    9  A    between atoms: C_21  and  C_24
REMARK   10  A    between atoms: C_23  and  C_25
REMARK                            x       y       z     vdW  Elec       q    Type
REMARK                         _______ _______ _______ _____ _____    ______ ____
ROOT
ATOM      1  O   UNL     1      -4.446 -12.092  17.879  0.00  0.00    -0.275 OA
ATOM      6  N   UNL     1      -6.297 -12.289  16.496  0.00  0.00    -0.288 N 
ATOM     15  C   UNL     1      -5.582 -12.751  15.316  0.00  0.00    +0.164 C 
ATOM     16  C   UNL     1      -5.661 -12.069  17.710  0.00  0.00    +0.219 C 
ATOM     17  C   UNL     1      -7.924 -12.483  14.776  0.00  0.00    +0.094 C 
ATOM     18  C   UNL     1      -7.742 -12.267  16.274  0.00  0.00    +0.131 C 
ATOM     19  C   UNL     1      -6.666 -13.253  14.365  0.00  0.00    +0.055 C 
ENDROOT
BRANCH  17   7
ATOM      3  O   UNL     1      -8.478 -12.143  11.985  0.00  0.00    -0.253 OA
ATOM      7  N   UNL     1      -8.058 -11.233  14.069  0.00  0.00    -0.295 N 
ATOM      9  N   UNL     1      -8.404  -9.817  12.293  0.00  0.00    -0.269 N 
ATOM     22  C   UNL     1      -8.331 -11.153  12.698  0.00  0.00    +0.304 C 
ATOM     40  H   UNL     1      -7.882 -10.372  14.576  0.00  0.00    +0.151 HD
ATOM     42  H   UNL     1      -8.256  -9.114  13.012  0.00  0.00    +0.156 HD
BRANCH   9  28
ATOM     28  C   UNL     1      -8.661  -9.316  10.995  0.00  0.00    +0.035 A 
ATOM     32  C   UNL     1      -7.604  -8.875  10.197  0.00  0.00    +0.027 A 
ATOM     33  C   UNL     1      -9.968  -9.266  10.512  0.00  0.00    +0.027 A 
ATOM     36  C   UNL     1      -7.857  -8.382   8.917  0.00  0.00    +0.047 A 
ATOM     37  C   UNL     1     -10.221  -8.774   9.231  0.00  0.00    +0.047 A 
ATOM     38  C   UNL     1      -9.165  -8.332   8.434  0.00  0.00    +0.120 A 
BRANCH  38   5
ATOM      5  O   UNL     1      -9.411  -7.853   7.184  0.00  0.00    -0.495 OA
ATOM     39  C   UNL     1      -8.344  -7.923   6.240  0.00  0.00    +0.277 C 
ENDBRANCH  38   5
ENDBRANCH   9  28
ENDBRANCH  17   7
BRANCH  15  20
ATOM      2  O   UNL     1      -5.395 -10.639  14.218  0.00  0.00    -0.274 OA
ATOM      8  N   UNL     1      -3.453 -11.770  14.828  0.00  0.00    -0.302 N 
ATOM     20  C   UNL     1      -4.823 -11.598  14.732  0.00  0.00    +0.234 C 
ATOM     41  H   UNL     1      -3.093 -12.564  15.351  0.00  0.00    +0.150 HD
BRANCH   8  21
ATOM     21  C   UNL     1      -2.498 -10.811  14.319  0.00  0.00    +0.163 C 
BRANCH  21  24
ATOM      4  O   UNL     1      -0.666  -9.626  15.389  0.00  0.00    -0.274 OA
ATOM     10  N   UNL     1      -1.826 -11.187  16.611  0.00  0.00    -0.328 N 
ATOM     24  C   UNL     1      -1.551 -10.474  15.462  0.00  0.00    +0.231 C 
ATOM     43  H   UNL     1      -2.577 -11.868  16.664  0.00  0.00    +0.145 HD
ATOM     44  H   UNL     1      -1.278 -11.048  17.453  0.00  0.00    +0.145 HD
ENDBRANCH  21  24
BRANCH  21  23
ATOM     23  C   UNL     1      -1.716 -11.353  13.117  0.00  0.00    +0.069 C 
BRANCH  23  25
ATOM     11  N   UNL     1      -3.832 -12.988  10.595  0.00  0.00    -0.360 N 
ATOM     25  C   UNL     1      -2.600 -11.758  11.972  0.00  0.00    -0.020 A 
ATOM     26  C   UNL     1      -3.113 -10.907  10.955  0.00  0.00    +0.003 A 
ATOM     27  C   UNL     1      -3.060 -13.031  11.724  0.00  0.00    +0.087 A 
ATOM     29  C   UNL     1      -3.883 -11.703  10.103  0.00  0.00    +0.047 A 
ATOM     30  C   UNL     1      -2.997  -9.530  10.675  0.00  0.00    +0.010 A 
ATOM     31  C   UNL     1      -4.544 -11.189   8.982  0.00  0.00    +0.026 A 
ATOM     34  C   UNL     1      -3.653  -9.003   9.557  0.00  0.00    +0.001 A 
ATOM     35  C   UNL     1      -4.414  -9.822   8.724  0.00  0.00    +0.002 A 
ATOM     45  H   UNL     1      -4.299 -13.783  10.181  0.00  0.00    +0.165 HD
ENDBRANCH  23  25
ENDBRANCH  21  23
ENDBRANCH   8  21
ENDBRANCH  15  20
BRANCH  16  12
ATOM     12  C   UNL     1      -6.545 -11.765  18.876  0.00  0.00    +0.075 C 
ATOM     13  C   UNL     1      -5.923 -11.316  20.166  0.00  0.00    +0.013 C 
ATOM     14  C   UNL     1      -6.695 -10.340  19.327  0.00  0.00    +0.013 C 
ENDBRANCH  16  12
TORSDOF 9
ENDMDL
MODEL 3
REMARK VINA RESULT:      -6.4     33.359     38.355
REMARK  Name = 7127958
REMARK  10 active torsions:
REMARK  status: ('A' for Active; 'I' for Inactive)
REMARK    1  A    between atoms: O_5  and  C_38
REMARK    2  A    between atoms: O_5  and  C_39
REMARK    3  A    between atoms: N_7  and  C_17
REMARK    4  A    between atoms: N_8  and  C_21
REMARK    5  A    between atoms: N_9  and  C_28
REMARK    6  A    between atoms: C_12  and  C_16
REMARK    7  A    between atoms: C_15  and  C_20
REMARK    8  A    between atoms: C_21  and  C_23
REMARK    9  A    between atoms: C_21  and  C_24
REMARK   10  A    between atoms: C_23  and  C_25
REMARK                            x       y       z     vdW  Elec       q    Type
REMARK                         _______ _______ _______ _____ _____    ______ ____
ROOT
ATOM      1  O   UNL     1     -12.381   7.208  36.579  0.00  0.00    -0.275 OA
ATOM      6  N   UNL     1     -12.497   8.946  35.049  0.00  0.00    -0.288 N 
ATOM     15  C   UNL     1     -13.737   8.529  34.410  0.00  0.00    +0.164 C 
ATOM     16  C   UNL     1     -11.964   8.275  36.141  0.00  0.00    +0.219 C 
ATOM     17  C   UNL     1     -12.873  10.484  33.277  0.00  0.00    +0.094 C 
ATOM     18  C   UNL     1     -12.017  10.217  34.510  0.00  0.00    +0.131 C 
ATOM     19  C   UNL     1     -14.172   9.725  33.567  0.00  0.00    +0.055 C 
ENDROOT
BRANCH  17   7
ATOM      3  O   UNL     1     -13.277  11.500  30.629  0.00  0.00    -0.253 OA
ATOM      7  N   UNL     1     -12.228  10.028  32.071  0.00  0.00    -0.295 N 
ATOM      9  N   UNL     1     -11.715   9.939  29.833  0.00  0.00    -0.269 N 
ATOM     22  C   UNL     1     -12.482  10.581  30.810  0.00  0.00    +0.304 C 
ATOM     40  H   UNL     1     -11.611   9.225  32.129  0.00  0.00    +0.151 HD
ATOM     42  H   UNL     1     -11.104   9.191  30.152  0.00  0.00    +0.156 HD
BRANCH   9  28
ATOM     28  C   UNL     1     -11.682  10.202  28.443  0.00  0.00    +0.035 A 
ATOM     32  C   UNL     1     -12.874  10.329  27.729  0.00  0.00    +0.027 A 
ATOM     33  C   UNL     1     -10.458  10.336  27.788  0.00  0.00    +0.027 A 
ATOM     36  C   UNL     1     -12.841  10.589  26.360  0.00  0.00    +0.047 A 
ATOM     37  C   UNL     1     -10.425  10.597  26.418  0.00  0.00    +0.047 A 
ATOM     38  C   UNL     1     -11.617  10.723  25.704  0.00  0.00    +0.120 A 
BRANCH  38   5
ATOM      5  O   UNL     1     -11.585  10.980  24.368  0.00  0.00    -0.495 OA
ATOM     39  C   UNL     1     -12.596  11.842  23.848  0.00  0.00    +0.277 C 
ENDBRANCH  38   5
ENDBRANCH   9  28
ENDBRANCH  17   7
BRANCH  15  20
ATOM      2  O   UNL     1     -12.702   7.374  32.595  0.00  0.00    -0.274 OA
ATOM      8  N   UNL     1     -14.162   6.211  33.986  0.00  0.00    -0.302 N 
ATOM     20  C   UNL     1     -13.459   7.325  33.561  0.00  0.00    +0.234 C 
ATOM     41  H   UNL     1     -14.693   6.266  34.851  0.00  0.00    +0.150 HD
BRANCH   8  21
ATOM     21  C   UNL     1     -14.087   4.928  33.324  0.00  0.00    +0.163 C 
BRANCH  21  24
ATOM      4  O   UNL     1     -14.586   2.676  34.089  0.00  0.00    -0.274 OA
ATOM     10  N   UNL     1     -14.956   4.432  35.524  0.00  0.00    -0.328 N 
ATOM     24  C   UNL     1     -14.575   3.883  34.317  0.00  0.00    +0.231 C 
ATOM     43  H   UNL     1     -14.918   5.429  35.706  0.00  0.00    +0.145 HD
ATOM     44  H   UNL     1     -15.289   3.843  36.280  0.00  0.00    +0.145 HD
ENDBRANCH  21  24
BRANCH  21  23
ATOM     23  C   UNL     1     -14.930   4.886  32.044  0.00  0.00    +0.069 C 
BRANCH  23  25
ATOM     11  N   UNL     1     -13.463   2.113  30.127  0.00  0.00    -0.360 N 
ATOM     25  C   UNL     1     -14.597   3.721  31.157  0.00  0.00    -0.020 A 
ATOM     26  C   UNL     1     -15.494   3.019  30.305  0.00  0.00    +0.003 A 
ATOM     27  C   UNL     1     -13.355   3.140  31.025  0.00  0.00    +0.087 A 
ATOM     29  C   UNL     1     -14.758   2.015  29.671  0.00  0.00    +0.047 A 
ATOM     30  C   UNL     1     -16.867   3.141  30.012  0.00  0.00    +0.010 A 
ATOM     31  C   UNL     1     -15.329   1.125  28.755  0.00  0.00    +0.026 A 
ATOM     34  C   UNL     1     -17.452   2.257  29.098  0.00  0.00    +0.001 A 
ATOM     35  C   UNL     1     -16.693   1.265  28.480  0.00  0.00    +0.002 A 
ATOM     45  H   UNL     1     -12.703   1.512  29.841  0.00  0.00    +0.165 HD
ENDBRANCH  23  25
ENDBRANCH  21  23
ENDBRANCH   8  21
ENDBRANCH  15  20
BRANCH  16  12
ATOM     12  C   UNL     1     -10.784   8.915  36.800  0.00  0.00    +0.075 C 
ATOM     13  C   UNL     1     -10.100   8.197  37.927  0.00  0.00    +0.013 C 
ATOM     14  C   UNL     1      -9.421   8.319  36.594  0.00  0.00    +0.013 C 
ENDBRANCH  16  12
TORSDOF 9
ENDMDL
MODEL 4
REMARK VINA RESULT:      -6.3     24.323     27.668
REMARK  Name = 7127958
REMARK  10 active torsions:
REMARK  status: ('A' for Active; 'I' for Inactive)
REMARK    1  A    between atoms: O_5  and  C_38
REMARK    2  A    between atoms: O_5  and  C_39
REMARK    3  A    between atoms: N_7  and  C_17
REMARK    4  A    between atoms: N_8  and  C_21
REMARK    5  A    between atoms: N_9  and  C_28
REMARK    6  A    between atoms: C_12  and  C_16
REMARK    7  A    between atoms: C_15  and  C_20
REMARK    8  A    between atoms: C_21  and  C_23
REMARK    9  A    between atoms: C_21  and  C_24
REMARK   10  A    between atoms: C_23  and  C_25
REMARK                            x       y       z     vdW  Elec       q    Type
REMARK                         _______ _______ _______ _____ _____    ______ ____
ROOT
ATOM      1  O   UNL     1      -2.928 -12.468  14.823  0.00  0.00    -0.275 OA
ATOM      6  N   UNL     1      -4.498 -11.315  16.083  0.00  0.00    -0.288 N 
ATOM     15  C   UNL     1      -5.582 -12.273  15.925  0.00  0.00    +0.164 C 
ATOM     16  C   UNL     1      -3.228 -11.541  15.569  0.00  0.00    +0.219 C 
ATOM     17  C   UNL     1      -6.379 -10.365  17.180  0.00  0.00    +0.094 C 
ATOM     18  C   UNL     1      -4.876 -10.219  16.972  0.00  0.00    +0.131 C 
ATOM     19  C   UNL     1      -6.632 -11.859  16.952  0.00  0.00    +0.055 C 
ENDROOT
BRANCH  17   7
ATOM      3  O   UNL     1      -9.101  -9.519  17.471  0.00  0.00    -0.253 OA
ATOM      7  N   UNL     1      -7.127  -9.537  16.267  0.00  0.00    -0.295 N 
ATOM      9  N   UNL     1      -8.920  -8.365  15.435  0.00  0.00    -0.269 N 
ATOM     22  C   UNL     1      -8.460  -9.167  16.484  0.00  0.00    +0.304 C 
ATOM     40  H   UNL     1      -6.687  -9.264  15.394  0.00  0.00    +0.151 HD
ATOM     42  H   UNL     1      -8.258  -8.167  14.689  0.00  0.00    +0.156 HD
BRANCH   9  28
ATOM     28  C   UNL     1     -10.203  -7.790  15.280  0.00  0.00    +0.035 A 
ATOM     32  C   UNL     1     -11.220  -8.512  14.656  0.00  0.00    +0.027 A 
ATOM     33  C   UNL     1     -10.451  -6.502  15.754  0.00  0.00    +0.027 A 
ATOM     36  C   UNL     1     -12.485  -7.945  14.504  0.00  0.00    +0.047 A 
ATOM     37  C   UNL     1     -11.717  -5.935  15.603  0.00  0.00    +0.047 A 
ATOM     38  C   UNL     1     -12.734  -6.657  14.978  0.00  0.00    +0.120 A 
BRANCH  38   5
ATOM      5  O   UNL     1     -13.969  -6.105  14.832  0.00  0.00    -0.495 OA
ATOM     39  C   UNL     1     -14.309  -5.607  13.539  0.00  0.00    +0.277 C 
ENDBRANCH  38   5
ENDBRANCH   9  28
ENDBRANCH  17   7
BRANCH  15  20
ATOM      2  O   UNL     1      -6.996 -12.921  14.113  0.00  0.00    -0.274 OA
ATOM      8  N   UNL     1      -5.470 -11.192  13.790  0.00  0.00    -0.302 N 
ATOM     20  C   UNL     1      -6.109 -12.177  14.525  0.00  0.00    +0.234 C 
ATOM     41  H   UNL     1      -4.810 -10.579  14.262  0.00  0.00    +0.150 HD
BRANCH   8  21
ATOM     21  C   UNL     1      -5.778 -10.912  12.406  0.00  0.00    +0.163 C 
BRANCH  21  24
ATOM      4  O   UNL     1      -7.443  -9.219  12.923  0.00  0.00    -0.274 OA
ATOM     10  N   UNL     1      -8.062 -11.008  11.620  0.00  0.00    -0.328 N 
ATOM     24  C   UNL     1      -7.163 -10.282  12.375  0.00  0.00    +0.231 C 
ATOM     43  H   UNL     1      -7.809 -11.872  11.153  0.00  0.00    +0.145 HD
ATOM     44  H   UNL     1      -9.018 -10.691  11.506  0.00  0.00    +0.145 HD
ENDBRANCH  21  24
BRANCH  21  23
ATOM     23  C   UNL     1      -4.749  -9.977  11.760  0.00  0.00    +0.069 C 
BRANCH  23  25
ATOM     11  N   UNL     1      -5.409  -8.948   8.293  0.00  0.00    -0.360 N 
ATOM     25  C   UNL     1      -4.939  -9.825  10.278  0.00  0.00    -0.020 A 
ATOM     26  C   UNL     1      -4.715 -10.821   9.288  0.00  0.00    +0.003 A 
ATOM     27  C   UNL     1      -5.365  -8.685   9.635  0.00  0.00    +0.087 A 
ATOM     29  C   UNL     1      -5.017 -10.246   8.051  0.00  0.00    +0.047 A 
ATOM     30  C   UNL     1      -4.282 -12.162   9.323  0.00  0.00    +0.010 A 
ATOM     31  C   UNL     1      -4.908 -10.947   6.845  0.00  0.00    +0.026 A 
ATOM     34  C   UNL     1      -4.168 -12.876   8.125  0.00  0.00    +0.001 A 
ATOM     35  C   UNL     1      -4.476 -12.275   6.905  0.00  0.00    +0.002 A 
ATOM     45  H   UNL     1      -5.688  -8.287   7.582  0.00  0.00    +0.165 HD
ENDBRANCH  23  25
ENDBRANCH  21  23
ENDBRANCH   8  21
ENDBRANCH  15  20
BRANCH  16  12
ATOM     12  C   UNL     1      -2.172 -10.556  15.955  0.00  0.00    +0.075 C 
ATOM     13  C   UNL     1      -0.737 -10.865  15.644  0.00  0.00    +0.013 C 
ATOM     14  C   UNL     1      -1.456  -9.793  14.879  0.00  0.00    +0.013 C 
ENDBRANCH  16  12
TORSDOF 9
ENDMDL
MODEL 5
REMARK VINA RESULT:      -6.1      3.559      8.071
REMARK  Name = 7127958
REMARK  10 active torsions:
REMARK  status: ('A' for Active; 'I' for Inactive)
REMARK    1  A    between atoms: O_5  and  C_38
REMARK    2  A    between atoms: O_5  and  C_39
REMARK    3  A    between atoms: N_7  and  C_17
REMARK    4  A    between atoms: N_8  and  C_21
REMARK    5  A    between atoms: N_9  and  C_28
REMARK    6  A    between atoms: C_12  and  C_16
REMARK    7  A    between atoms: C_15  and  C_20
REMARK    8  A    between atoms: C_21  and  C_23
REMARK    9  A    between atoms: C_21  and  C_24
REMARK   10  A    between atoms: C_23  and  C_25
REMARK                            x       y       z     vdW  Elec       q    Type
REMARK                         _______ _______ _______ _____ _____    ______ ____
ROOT
ATOM      1  O   UNL     1       7.470   6.569  -4.037  0.00  0.00    -0.275 OA
ATOM      6  N   UNL     1       8.497   7.514  -2.185  0.00  0.00    -0.288 N 
ATOM     15  C   UNL     1       9.835   7.011  -2.455  0.00  0.00    +0.164 C 
ATOM     16  C   UNL     1       7.436   7.304  -3.055  0.00  0.00    +0.219 C 
ATOM     17  C   UNL     1       9.843   8.208  -0.354  0.00  0.00    +0.094 C 
ATOM     18  C   UNL     1       8.478   8.384  -1.011  0.00  0.00    +0.131 C 
ATOM     19  C   UNL     1      10.751   7.788  -1.513  0.00  0.00    +0.055 C 
ENDROOT
BRANCH  17   7
ATOM      3  O   UNL     1      10.268   8.669   2.442  0.00  0.00    -0.253 OA
ATOM      7  N   UNL     1       9.805   7.223   0.698  0.00  0.00    -0.295 N 
ATOM      9  N   UNL     1       9.926   6.379   2.833  0.00  0.00    -0.269 N 
ATOM     22  C   UNL     1      10.025   7.531   2.047  0.00  0.00    +0.304 C 
ATOM     40  H   UNL     1       9.679   6.249   0.442  0.00  0.00    +0.151 HD
ATOM     42  H   UNL     1       9.719   5.511   2.345  0.00  0.00    +0.156 HD
BRANCH   9  28
ATOM     28  C   UNL     1      10.080   6.269   4.234  0.00  0.00    +0.035 A 
ATOM     32  C   UNL     1      11.343   6.413   4.810  0.00  0.00    +0.027 A 
ATOM     33  C   UNL     1       8.970   6.018   5.040  0.00  0.00    +0.027 A 
ATOM     36  C   UNL     1      11.495   6.305   6.192  0.00  0.00    +0.047 A 
ATOM     37  C   UNL     1       9.122   5.912   6.423  0.00  0.00    +0.047 A 
ATOM     38  C   UNL     1      10.385   6.055   6.998  0.00  0.00    +0.120 A 
BRANCH  38   5
ATOM      5  O   UNL     1      10.533   5.952   8.348  0.00  0.00    -0.495 OA
ATOM     39  C   UNL     1       9.549   5.197   9.053  0.00  0.00    +0.277 C 
ENDBRANCH  38   5
ENDBRANCH   9  28
ENDBRANCH  17   7
BRANCH  15  20
ATOM      2  O   UNL     1       9.192   5.043  -1.266  0.00  0.00    -0.274 OA
ATOM      8  N   UNL     1      10.730   4.858  -3.004  0.00  0.00    -0.302 N 
ATOM     20  C   UNL     1       9.864   5.540  -2.166  0.00  0.00    +0.234 C 
ATOM     41  H   UNL     1      11.169   5.361  -3.770  0.00  0.00    +0.150 HD
BRANCH   8  21
ATOM     21  C   UNL     1      10.957   3.433  -2.916  0.00  0.00    +0.163 C 
BRANCH  21  24
ATOM      4  O   UNL     1       9.028   2.064  -3.472  0.00  0.00    -0.274 OA
ATOM     10  N   UNL     1      10.189   3.071  -5.180  0.00  0.00    -0.328 N 
ATOM     24  C   UNL     1       9.961   2.764  -3.854  0.00  0.00    +0.231 C 
ATOM     43  H   UNL     1      10.950   3.671  -5.478  0.00  0.00    +0.145 HD
ATOM     44  H   UNL     1       9.588   2.701  -5.908  0.00  0.00    +0.145 HD
ENDBRANCH  21  24
BRANCH  21  23
ATOM     23  C   UNL     1      12.392   3.049  -3.295  0.00  0.00    +0.069 C 
BRANCH  23  25
ATOM     11  N   UNL     1      15.148   5.059  -1.925  0.00  0.00    -0.360 N 
ATOM     25  C   UNL     1      13.429   3.769  -2.481  0.00  0.00    -0.020 A 
ATOM     26  C   UNL     1      13.584   3.717  -1.068  0.00  0.00    +0.003 A 
ATOM     27  C   UNL     1      14.405   4.602  -2.979  0.00  0.00    +0.087 A 
ATOM     29  C   UNL     1      14.669   4.535  -0.744  0.00  0.00    +0.047 A 
ATOM     30  C   UNL     1      12.903   3.053  -0.029  0.00  0.00    +0.010 A 
ATOM     31  C   UNL     1      15.109   4.721   0.571  0.00  0.00    +0.026 A 
ATOM     34  C   UNL     1      13.331   3.228   1.291  0.00  0.00    +0.001 A 
ATOM     35  C   UNL     1      14.418   4.051   1.585  0.00  0.00    +0.002 A 
ATOM     45  H   UNL     1      15.934   5.689  -1.999  0.00  0.00    +0.165 HD
ENDBRANCH  23  25
ENDBRANCH  21  23
ENDBRANCH   8  21
ENDBRANCH  15  20
BRANCH  16  12
ATOM     12  C   UNL     1       6.165   8.023  -2.736  0.00  0.00    +0.075 C 
ATOM     13  C   UNL     1       5.018   7.941  -3.700  0.00  0.00    +0.013 C 
ATOM     14  C   UNL     1       4.943   7.226  -2.383  0.00  0.00    +0.013 C 
ENDBRANCH  16  12
TORSDOF 9
ENDMDL
MODEL 6
REMARK VINA RESULT:      -6.1      3.371      8.473
REMARK  Name = 7127958
REMARK  10 active torsions:
REMARK  status: ('A' for Active; 'I' for Inactive)
REMARK    1  A    between atoms: O_5  and  C_38
REMARK    2  A    between atoms: O_5  and  C_39
REMARK    3  A    between atoms: N_7  and  C_17
REMARK    4  A    between atoms: N_8  and  C_21
REMARK    5  A    between atoms: N_9  and  C_28
REMARK    6  A    between atoms: C_12  and  C_16
REMARK    7  A    between atoms: C_15  and  C_20
REMARK    8  A    between atoms: C_21  and  C_23
REMARK    9  A    between atoms: C_21  and  C_24
REMARK   10  A    between atoms: C_23  and  C_25
REMARK                            x       y       z     vdW  Elec       q    Type
REMARK                         _______ _______ _______ _____ _____    ______ ____
ROOT
ATOM      1  O   UNL     1      15.795   6.865   4.242  0.00  0.00    -0.275 OA
ATOM      6  N   UNL     1      14.554   8.245   5.632  0.00  0.00    -0.288 N 
ATOM     15  C   UNL     1      13.415   7.353   5.787  0.00  0.00    +0.164 C 
ATOM     16  C   UNL     1      15.689   7.881   4.921  0.00  0.00    +0.219 C 
ATOM     17  C   UNL     1      12.965   9.429   6.944  0.00  0.00    +0.094 C 
ATOM     18  C   UNL     1      14.406   9.449   6.447  0.00  0.00    +0.131 C 
ATOM     19  C   UNL     1      12.602   7.940   6.938  0.00  0.00    +0.055 C 
ENDROOT
BRANCH  17   7
ATOM      3  O   UNL     1      10.246  10.154   7.484  0.00  0.00    -0.253 OA
ATOM      7  N   UNL     1      12.098  10.209   6.098  0.00  0.00    -0.295 N 
ATOM      9  N   UNL     1      10.181  11.287   5.428  0.00  0.00    -0.269 N 
ATOM     22  C   UNL     1      10.775  10.522   6.437  0.00  0.00    +0.304 C 
ATOM     40  H   UNL     1      12.440  10.490   5.185  0.00  0.00    +0.151 HD
ATOM     42  H   UNL     1      10.760  11.504   4.621  0.00  0.00    +0.156 HD
BRANCH   9  28
ATOM     28  C   UNL     1       8.864  11.801   5.389  0.00  0.00    +0.035 A 
ATOM     32  C   UNL     1       8.506  12.864   6.219  0.00  0.00    +0.027 A 
ATOM     33  C   UNL     1       7.925  11.247   4.520  0.00  0.00    +0.027 A 
ATOM     36  C   UNL     1       7.207  13.371   6.180  0.00  0.00    +0.047 A 
ATOM     37  C   UNL     1       6.626  11.756   4.480  0.00  0.00    +0.047 A 
ATOM     38  C   UNL     1       6.268  12.817   5.310  0.00  0.00    +0.120 A 
BRANCH  38   5
ATOM      5  O   UNL     1       5.002  13.314   5.270  0.00  0.00    -0.495 OA
ATOM     39  C   UNL     1       3.946  12.432   5.644  0.00  0.00    +0.277 C 
ENDBRANCH  38   5
ENDBRANCH   9  28
ENDBRANCH  17   7
BRANCH  15  20
ATOM      2  O   UNL     1      12.550   8.337   3.791  0.00  0.00    -0.274 OA
ATOM      8  N   UNL     1      12.033   6.118   4.270  0.00  0.00    -0.302 N 
ATOM     20  C   UNL     1      12.634   7.342   4.507  0.00  0.00    +0.234 C 
ATOM     41  H   UNL     1      12.243   5.340   4.890  0.00  0.00    +0.150 HD
BRANCH   8  21
ATOM     21  C   UNL     1      11.206   5.853   3.115  0.00  0.00    +0.163 C 
BRANCH  21  24
ATOM      4  O   UNL     1      11.399   3.479   2.637  0.00  0.00    -0.274 OA
ATOM     10  N   UNL     1      12.748   4.943   1.491  0.00  0.00    -0.328 N 
ATOM     24  C   UNL     1      11.782   4.625   2.424  0.00  0.00    +0.231 C 
ATOM     43  H   UNL     1      13.037   5.898   1.309  0.00  0.00    +0.145 HD
ATOM     44  H   UNL     1      13.204   4.218   0.949  0.00  0.00    +0.145 HD
ENDBRANCH  21  24
BRANCH  21  23
ATOM     23  C   UNL     1       9.739   5.617   3.492  0.00  0.00    +0.069 C 
BRANCH  23  25
ATOM     11  N   UNL     1       8.521   7.955   6.055  0.00  0.00    -0.360 N 
ATOM     25  C   UNL     1       9.319   6.367   4.725  0.00  0.00    -0.020 A 
ATOM     26  C   UNL     1       9.423   5.914   6.069  0.00  0.00    +0.003 A 
ATOM     27  C   UNL     1       8.761   7.625   4.749  0.00  0.00    +0.087 A 
ATOM     29  C   UNL     1       8.915   6.929   6.884  0.00  0.00    +0.047 A 
ATOM     30  C   UNL     1       9.900   4.734   6.674  0.00  0.00    +0.010 A 
ATOM     31  C   UNL     1       8.862   6.822   8.278  0.00  0.00    +0.026 A 
ATOM     34  C   UNL     1       9.853   4.613   8.067  0.00  0.00    +0.001 A 
ATOM     35  C   UNL     1       9.341   5.643   8.856  0.00  0.00    +0.002 A 
ATOM     45  H   UNL     1       8.113   8.825   6.367  0.00  0.00    +0.165 HD
ENDBRANCH  23  25
ENDBRANCH  21  23
ENDBRANCH   8  21
ENDBRANCH  15  20
BRANCH  16  12
ATOM     12  C   UNL     1      16.845   8.826   4.991  0.00  0.00    +0.075 C 
ATOM     13  C   UNL     1      18.049   8.571   4.132  0.00  0.00    +0.013 C 
ATOM     14  C   UNL     1      17.133   9.717   3.817  0.00  0.00    +0.013 C 
ENDBRANCH  16  12
TORSDOF 9
ENDMDL
MODEL 7
REMARK VINA RESULT:      -6.1      1.230      2.001
REMARK  Name = 7127958
REMARK  10 active torsions:
REMARK  status: ('A' for Active; 'I' for Inactive)
REMARK    1  A    between atoms: O_5  and  C_38
REMARK    2  A    between atoms: O_5  and  C_39
REMARK    3  A    between atoms: N_7  and  C_17
REMARK    4  A    between atoms: N_8  and  C_21
REMARK    5  A    between atoms: N_9  and  C_28
REMARK    6  A    between atoms: C_12  and  C_16
REMARK    7  A    between atoms: C_15  and  C_20
REMARK    8  A    between atoms: C_21  and  C_23
REMARK    9  A    between atoms: C_21  and  C_24
REMARK   10  A    between atoms: C_23  and  C_25
REMARK                            x       y       z     vdW  Elec       q    Type
REMARK                         _______ _______ _______ _____ _____    ______ ____
ROOT
ATOM      1  O   UNL     1       8.656   7.129   7.821  0.00  0.00    -0.275 OA
ATOM      6  N   UNL     1      10.835   7.174   7.030  0.00  0.00    -0.288 N 
ATOM     15  C   UNL     1      10.677   8.329   6.158  0.00  0.00    +0.164 C 
ATOM     16  C   UNL     1       9.812   6.719   7.849  0.00  0.00    +0.219 C 
ATOM     17  C   UNL     1      12.916   7.446   5.916  0.00  0.00    +0.094 C 
ATOM     18  C   UNL     1      12.217   6.700   7.046  0.00  0.00    +0.131 C 
ATOM     19  C   UNL     1      12.098   8.733   5.772  0.00  0.00    +0.055 C 
ENDROOT
BRANCH  17   7
ATOM      3  O   UNL     1      15.067   7.281   4.030  0.00  0.00    -0.253 OA
ATOM      7  N   UNL     1      12.939   6.672   4.700  0.00  0.00    -0.295 N 
ATOM      9  N   UNL     1      13.771   5.811   2.738  0.00  0.00    -0.269 N 
ATOM     22  C   UNL     1      14.035   6.645   3.828  0.00  0.00    +0.304 C 
ATOM     40  H   UNL     1      12.097   6.175   4.429  0.00  0.00    +0.151 HD
ATOM     42  H   UNL     1      12.861   5.357   2.721  0.00  0.00    +0.156 HD
BRANCH   9  28
ATOM     28  C   UNL     1      14.618   5.518   1.643  0.00  0.00    +0.035 A 
ATOM     32  C   UNL     1      15.081   6.549   0.825  0.00  0.00    +0.027 A 
ATOM     33  C   UNL     1      14.991   4.200   1.385  0.00  0.00    +0.027 A 
ATOM     36  C   UNL     1      15.917   6.259  -0.253  0.00  0.00    +0.047 A 
ATOM     37  C   UNL     1      15.828   3.910   0.307  0.00  0.00    +0.047 A 
ATOM     38  C   UNL     1      16.291   4.941  -0.512  0.00  0.00    +0.120 A 
BRANCH  38   5
ATOM      5  O   UNL     1      17.109   4.659  -1.563  0.00  0.00    -0.495 OA
ATOM     39  C   UNL     1      16.603   4.926  -2.869  0.00  0.00    +0.277 C 
ENDBRANCH  38   5
ENDBRANCH   9  28
ENDBRANCH  17   7
BRANCH  15  20
ATOM      2  O   UNL     1       9.689   6.742   4.674  0.00  0.00    -0.274 OA
ATOM      8  N   UNL     1       9.406   9.014   4.248  0.00  0.00    -0.302 N 
ATOM     20  C   UNL     1       9.872   7.923   4.961  0.00  0.00    +0.234 C 
ATOM     41  H   UNL     1       9.547   9.945   4.629  0.00  0.00    +0.150 HD
BRANCH   8  21
ATOM     21  C   UNL     1       8.622   8.892   3.039  0.00  0.00    +0.163 C 
BRANCH  21  24
ATOM      4  O   UNL     1       6.775  10.357   2.450  0.00  0.00    -0.274 OA
ATOM     10  N   UNL     1       6.763   9.351   4.515  0.00  0.00    -0.328 N 
ATOM     24  C   UNL     1       7.312   9.629   3.280  0.00  0.00    +0.231 C 
ATOM     43  H   UNL     1       7.207   8.727   5.181  0.00  0.00    +0.145 HD
ATOM     44  H   UNL     1       5.882   9.766   4.797  0.00  0.00    +0.145 HD
ENDBRANCH  21  24
BRANCH  21  23
ATOM     23  C   UNL     1       9.346   9.470   1.818  0.00  0.00    +0.069 C 
BRANCH  23  25
ATOM     11  N   UNL     1       8.724   7.862  -1.429  0.00  0.00    -0.360 N 
ATOM     25  C   UNL     1       9.242   8.594   0.602  0.00  0.00    -0.020 A 
ATOM     26  C   UNL     1       9.791   7.292   0.446  0.00  0.00    +0.003 A 
ATOM     27  C   UNL     1       8.593   8.917  -0.568  0.00  0.00    +0.087 A 
ATOM     29  C   UNL     1       9.453   6.854  -0.837  0.00  0.00    +0.047 A 
ATOM     30  C   UNL     1      10.548   6.439   1.275  0.00  0.00    +0.010 A 
ATOM     31  C   UNL     1       9.833   5.602  -1.333  0.00  0.00    +0.026 A 
ATOM     34  C   UNL     1      10.935   5.184   0.792  0.00  0.00    +0.001 A 
ATOM     35  C   UNL     1      10.582   4.774  -0.493  0.00  0.00    +0.002 A 
ATOM     45  H   UNL     1       8.345   7.826  -2.364  0.00  0.00    +0.165 HD
ENDBRANCH  23  25
ENDBRANCH  21  23
ENDBRANCH   8  21
ENDBRANCH  15  20
BRANCH  16  12
ATOM     12  C   UNL     1      10.169   5.634   8.815  0.00  0.00    +0.075 C 
ATOM     13  C   UNL     1       9.078   4.975   9.607  0.00  0.00    +0.013 C 
ATOM     14  C   UNL     1       9.767   4.221   8.507  0.00  0.00    +0.013 C 
ENDBRANCH  16  12
TORSDOF 9
ENDMDL
MODEL 8
REMARK VINA RESULT:      -6.0      3.988      6.776
REMARK  Name = 7127958
REMARK  10 active torsions:
REMARK  status: ('A' for Active; 'I' for Inactive)
REMARK    1  A    between atoms: O_5  and  C_38
REMARK    2  A    between atoms: O_5  and  C_39
REMARK    3  A    between atoms: N_7  and  C_17
REMARK    4  A    between atoms: N_8  and  C_21
REMARK    5  A    between atoms: N_9  and  C_28
REMARK    6  A    between atoms: C_12  and  C_16
REMARK    7  A    between atoms: C_15  and  C_20
REMARK    8  A    between atoms: C_21  and  C_23
REMARK    9  A    between atoms: C_21  and  C_24
REMARK   10  A    between atoms: C_23  and  C_25
REMARK                            x       y       z     vdW  Elec       q    Type
REMARK                         _______ _______ _______ _____ _____    ______ ____
ROOT
ATOM      1  O   UNL     1      11.251  10.780   6.950  0.00  0.00    -0.275 OA
ATOM      6  N   UNL     1      11.097   8.538   6.381  0.00  0.00    -0.288 N 
ATOM     15  C   UNL     1      12.378   8.131   6.938  0.00  0.00    +0.164 C 
ATOM     16  C   UNL     1      10.612   9.832   6.506  0.00  0.00    +0.219 C 
ATOM     17  C   UNL     1      11.343   6.235   5.850  0.00  0.00    +0.094 C 
ATOM     18  C   UNL     1      10.354   7.394   5.855  0.00  0.00    +0.131 C 
ATOM     19  C   UNL     1      12.340   6.605   6.953  0.00  0.00    +0.055 C 
ENDROOT
BRANCH  17   7
ATOM      3  O   UNL     1      10.378   4.696   3.634  0.00  0.00    -0.253 OA
ATOM      7  N   UNL     1      11.978   6.081   4.565  0.00  0.00    -0.295 N 
ATOM      9  N   UNL     1      12.272   5.345   2.408  0.00  0.00    -0.269 N 
ATOM     22  C   UNL     1      11.438   5.308   3.530  0.00  0.00    +0.304 C 
ATOM     40  H   UNL     1      12.893   6.499   4.426  0.00  0.00    +0.151 HD
ATOM     42  H   UNL     1      13.119   5.901   2.488  0.00  0.00    +0.156 HD
BRANCH   9  28
ATOM     28  C   UNL     1      12.082   4.700   1.163  0.00  0.00    +0.035 A 
ATOM     32  C   UNL     1      13.014   3.764   0.714  0.00  0.00    +0.027 A 
ATOM     33  C   UNL     1      10.962   4.997   0.388  0.00  0.00    +0.027 A 
ATOM     36  C   UNL     1      12.826   3.127  -0.512  0.00  0.00    +0.047 A 
ATOM     37  C   UNL     1      10.773   4.359  -0.839  0.00  0.00    +0.047 A 
ATOM     38  C   UNL     1      11.706   3.424  -1.288  0.00  0.00    +0.120 A 
BRANCH  38   5
ATOM      5  O   UNL     1      11.522   2.800  -2.484  0.00  0.00    -0.495 OA
ATOM     39  C   UNL     1      12.595   2.862  -3.421  0.00  0.00    +0.277 C 
ENDBRANCH  38   5
ENDBRANCH   9  28
ENDBRANCH  17   7
BRANCH  15  20
ATOM      2  O   UNL     1      13.645   8.218   4.916  0.00  0.00    -0.274 OA
ATOM      8  N   UNL     1      14.240   9.616   6.681  0.00  0.00    -0.302 N 
ATOM     20  C   UNL     1      13.473   8.648   6.054  0.00  0.00    +0.234 C 
ATOM     41  H   UNL     1      13.951   9.954   7.595  0.00  0.00    +0.150 HD
BRANCH   8  21
ATOM     21  C   UNL     1      15.372  10.258   6.052  0.00  0.00    +0.163 C 
BRANCH  21  24
ATOM      4  O   UNL     1      16.063  12.585   5.942  0.00  0.00    -0.274 OA
ATOM     10  N   UNL     1      14.109  12.070   7.035  0.00  0.00    -0.328 N 
ATOM     24  C   UNL     1      15.253  11.749   6.334  0.00  0.00    +0.231 C 
ATOM     43  H   UNL     1      13.436  11.370   7.331  0.00  0.00    +0.145 HD
ATOM     44  H   UNL     1      13.901  13.032   7.276  0.00  0.00    +0.145 HD
ENDBRANCH  21  24
BRANCH  21  23
ATOM     23  C   UNL     1      16.708   9.718   6.573  0.00  0.00    +0.069 C 
BRANCH  23  25
ATOM     11  N   UNL     1      18.030   7.947   3.634  0.00  0.00    -0.360 N 
ATOM     25  C   UNL     1      17.485   8.963   5.532  0.00  0.00    -0.020 A 
ATOM     26  C   UNL     1      18.812   8.467   5.658  0.00  0.00    +0.003 A 
ATOM     27  C   UNL     1      17.031   8.628   4.276  0.00  0.00    +0.087 A 
ATOM     29  C   UNL     1      19.130   7.834   4.454  0.00  0.00    +0.047 A 
ATOM     30  C   UNL     1      19.778   8.496   6.684  0.00  0.00    +0.010 A 
ATOM     31  C   UNL     1      20.370   7.226   4.225  0.00  0.00    +0.026 A 
ATOM     34  C   UNL     1      21.022   7.892   6.470  0.00  0.00    +0.001 A 
ATOM     35  C   UNL     1      21.311   7.267   5.257  0.00  0.00    +0.002 A 
ATOM     45  H   UNL     1      17.971   7.581   2.695  0.00  0.00    +0.165 HD
ENDBRANCH  23  25
ENDBRANCH  21  23
ENDBRANCH   8  21
ENDBRANCH  15  20
BRANCH  16  12
ATOM     12  C   UNL     1       9.210  10.062   6.038  0.00  0.00    +0.075 C 
ATOM     13  C   UNL     1       8.727  11.470   5.848  0.00  0.00    +0.013 C 
ATOM     14  C   UNL     1       8.980  10.596   4.654  0.00  0.00    +0.013 C 
ENDBRANCH  16  12
TORSDOF 9
ENDMDL
MODEL 9
REMARK VINA RESULT:      -5.9      2.159      3.922
REMARK  Name = 7127958
REMARK  10 active torsions:
REMARK  status: ('A' for Active; 'I' for Inactive)
REMARK    1  A    between atoms: O_5  and  C_38
REMARK    2  A    between atoms: O_5  and  C_39
REMARK    3  A    between atoms: N_7  and  C_17
REMARK    4  A    between atoms: N_8  and  C_21
REMARK    5  A    between atoms: N_9  and  C_28
REMARK    6  A    between atoms: C_12  and  C_16
REMARK    7  A    between atoms: C_15  and  C_20
REMARK    8  A    between atoms: C_21  and  C_23
REMARK    9  A    between atoms: C_21  and  C_24
REMARK   10  A    between atoms: C_23  and  C_25
REMARK                            x       y       z     vdW  Elec       q    Type
REMARK                         _______ _______ _______ _____ _____    ______ ____
ROOT
ATOM      1  O   UNL     1       8.539   7.267   8.292  0.00  0.00    -0.275 OA
ATOM      6  N   UNL     1      10.396   6.951   6.939  0.00  0.00    -0.288 N 
ATOM     15  C   UNL     1      10.169   8.093   6.066  0.00  0.00    +0.164 C 
ATOM     16  C   UNL     1       9.586   6.683   8.034  0.00  0.00    +0.219 C 
ATOM     17  C   UNL     1      12.102   6.866   5.288  0.00  0.00    +0.094 C 
ATOM     18  C   UNL     1      11.646   6.268   6.614  0.00  0.00    +0.131 C 
ATOM     19  C   UNL     1      11.468   8.261   5.283  0.00  0.00    +0.055 C 
ENDROOT
BRANCH  17   7
ATOM      3  O   UNL     1      13.431   6.609   2.762  0.00  0.00    -0.253 OA
ATOM      7  N   UNL     1      11.676   6.066   4.167  0.00  0.00    -0.295 N 
ATOM      9  N   UNL     1      11.736   5.144   2.063  0.00  0.00    -0.269 N 
ATOM     22  C   UNL     1      12.386   5.994   2.962  0.00  0.00    +0.304 C 
ATOM     40  H   UNL     1      10.785   5.584   4.230  0.00  0.00    +0.151 HD
ATOM     42  H   UNL     1      10.874   4.712   2.386  0.00  0.00    +0.156 HD
BRANCH   9  28
ATOM     28  C   UNL     1      12.129   4.807   0.746  0.00  0.00    +0.035 A 
ATOM     32  C   UNL     1      11.942   5.720  -0.293  0.00  0.00    +0.027 A 
ATOM     33  C   UNL     1      12.706   3.564   0.488  0.00  0.00    +0.027 A 
ATOM     36  C   UNL     1      12.331   5.388  -1.590  0.00  0.00    +0.047 A 
ATOM     37  C   UNL     1      13.097   3.233  -0.810  0.00  0.00    +0.047 A 
ATOM     38  C   UNL     1      12.909   4.145  -1.848  0.00  0.00    +0.120 A 
BRANCH  38   5
ATOM      5  O   UNL     1      13.291   3.822  -3.114  0.00  0.00    -0.495 OA
ATOM     39  C   UNL     1      12.581   2.765  -3.757  0.00  0.00    +0.277 C 
ENDBRANCH  38   5
ENDBRANCH   9  28
ENDBRANCH  17   7
BRANCH  15  20
ATOM      2  O   UNL     1       8.625   6.635   4.975  0.00  0.00    -0.274 OA
ATOM      8  N   UNL     1       8.486   8.925   4.579  0.00  0.00    -0.302 N 
ATOM     20  C   UNL     1       9.013   7.786   5.162  0.00  0.00    +0.234 C 
ATOM     41  H   UNL     1       8.833   9.833   4.876  0.00  0.00    +0.150 HD
BRANCH   8  21
ATOM     21  C   UNL     1       7.379   8.898   3.650  0.00  0.00    +0.163 C 
BRANCH  21  24
ATOM      4  O   UNL     1       6.765  10.948   4.801  0.00  0.00    -0.274 OA
ATOM     10  N   UNL     1       5.265  10.025   3.326  0.00  0.00    -0.328 N 
ATOM     24  C   UNL     1       6.460  10.056   4.015  0.00  0.00    +0.231 C 
ATOM     43  H   UNL     1       5.038   9.294   2.660  0.00  0.00    +0.145 HD
ATOM     44  H   UNL     1       4.567  10.747   3.465  0.00  0.00    +0.145 HD
ENDBRANCH  21  24
BRANCH  21  23
ATOM     23  C   UNL     1       7.842   9.020   2.193  0.00  0.00    +0.069 C 
BRANCH  23  25
ATOM     11  N   UNL     1      11.484   9.148   1.710  0.00  0.00    -0.360 N 
ATOM     25  C   UNL     1       9.302   9.350   2.064  0.00  0.00    -0.020 A 
ATOM     26  C   UNL     1       9.905  10.621   2.270  0.00  0.00    +0.003 A 
ATOM     27  C   UNL     1      10.298   8.465   1.721  0.00  0.00    +0.087 A 
ATOM     29  C   UNL     1      11.275  10.468   2.042  0.00  0.00    +0.047 A 
ATOM     30  C   UNL     1       9.416  11.894   2.629  0.00  0.00    +0.010 A 
ATOM     31  C   UNL     1      12.183  11.526   2.156  0.00  0.00    +0.026 A 
ATOM     34  C   UNL     1      10.313  12.962   2.747  0.00  0.00    +0.001 A 
ATOM     35  C   UNL     1      11.675  12.778   2.513  0.00  0.00    +0.002 A 
ATOM     45  H   UNL     1      12.384   8.744   1.491  0.00  0.00    +0.165 HD
ENDBRANCH  23  25
ENDBRANCH  21  23
ENDBRANCH   8  21
ENDBRANCH  15  20
BRANCH  16  12
ATOM     12  C   UNL     1      10.039   5.582   8.939  0.00  0.00    +0.075 C 
ATOM     13  C   UNL     1       9.047   4.947   9.869  0.00  0.00    +0.013 C 
ATOM     14  C   UNL     1       9.559   4.182   8.683  0.00  0.00    +0.013 C 
ENDBRANCH  16  12
TORSDOF 9
ENDMDL
MODEL 10
REMARK VINA RESULT:      -5.9     24.933     29.402
REMARK  Name = 7127958
REMARK  10 active torsions:
REMARK  status: ('A' for Active; 'I' for Inactive)
REMARK    1  A    between atoms: O_5  and  C_38
REMARK    2  A    between atoms: O_5  and  C_39
REMARK    3  A    between atoms: N_7  and  C_17
REMARK    4  A    between atoms: N_8  and  C_21
REMARK    5  A    between atoms: N_9  and  C_28
REMARK    6  A    between atoms: C_12  and  C_16
REMARK    7  A    between atoms: C_15  and  C_20
REMARK    8  A    between atoms: C_21  and  C_23
REMARK    9  A    between atoms: C_21  and  C_24
REMARK   10  A    between atoms: C_23  and  C_25
REMARK                            x       y       z     vdW  Elec       q    Type
REMARK                         _______ _______ _______ _____ _____    ______ ____
ROOT
ATOM      1  O   UNL     1      -3.714 -11.967   9.955  0.00  0.00    -0.275 OA
ATOM      6  N   UNL     1      -5.613 -10.977  10.844  0.00  0.00    -0.288 N 
ATOM     15  C   UNL     1      -4.930 -10.138  11.817  0.00  0.00    +0.164 C 
ATOM     16  C   UNL     1      -4.925 -11.773   9.938  0.00  0.00    +0.219 C 
ATOM     17  C   UNL     1      -7.320  -9.871  12.072  0.00  0.00    +0.094 C 
ATOM     18  C   UNL     1      -7.054 -10.732  10.843  0.00  0.00    +0.131 C 
ATOM     19  C   UNL     1      -5.988  -9.152  12.306  0.00  0.00    +0.055 C 
ENDROOT
BRANCH  17   7
ATOM      3  O   UNL     1      -8.993  -9.042  14.246  0.00  0.00    -0.253 OA
ATOM      7  N   UNL     1      -7.720 -10.668  13.205  0.00  0.00    -0.295 N 
ATOM      9  N   UNL     1      -8.759 -11.178  15.190  0.00  0.00    -0.269 N 
ATOM     22  C   UNL     1      -8.544 -10.185  14.230  0.00  0.00    +0.304 C 
ATOM     40  H   UNL     1      -7.332 -11.601  13.299  0.00  0.00    +0.151 HD
ATOM     42  H   UNL     1      -8.310 -12.076  15.027  0.00  0.00    +0.156 HD
BRANCH   9  28
ATOM     28  C   UNL     1      -9.531 -11.090  16.373  0.00  0.00    +0.035 A 
ATOM     32  C   UNL     1     -10.320 -12.169  16.773  0.00  0.00    +0.027 A 
ATOM     33  C   UNL     1      -9.500  -9.926  17.140  0.00  0.00    +0.027 A 
ATOM     36  C   UNL     1     -11.079 -12.081  17.939  0.00  0.00    +0.047 A 
ATOM     37  C   UNL     1     -10.259  -9.839  18.307  0.00  0.00    +0.047 A 
ATOM     38  C   UNL     1     -11.048 -10.917  18.706  0.00  0.00    +0.120 A 
BRANCH  38   5
ATOM      5  O   UNL     1     -11.788 -10.833  19.846  0.00  0.00    -0.495 OA
ATOM     39  C   UNL     1     -12.493 -12.005  20.250  0.00  0.00    +0.277 C 
ENDBRANCH  38   5
ENDBRANCH   9  28
ENDBRANCH  17   7
BRANCH  15  20
ATOM      2  O   UNL     1      -4.721 -12.196  13.010  0.00  0.00    -0.274 OA
ATOM      8  N   UNL     1      -3.637 -10.304  13.826  0.00  0.00    -0.302 N 
ATOM     20  C   UNL     1      -4.426 -11.006  12.931  0.00  0.00    +0.234 C 
ATOM     41  H   UNL     1      -3.389  -9.341  13.612  0.00  0.00    +0.150 HD
BRANCH   8  21
ATOM     21  C   UNL     1      -3.046 -10.905  15.000  0.00  0.00    +0.163 C 
BRANCH  21  24
ATOM      4  O   UNL     1      -1.148  -9.529  14.361  0.00  0.00    -0.274 OA
ATOM     10  N   UNL     1      -0.890 -11.023  16.087  0.00  0.00    -0.328 N 
ATOM     24  C   UNL     1      -1.609 -10.410  15.081  0.00  0.00    +0.231 C 
ATOM     43  H   UNL     1      -1.292 -11.733  16.691  0.00  0.00    +0.145 HD
ATOM     44  H   UNL     1       0.078 -10.775  16.259  0.00  0.00    +0.145 HD
ENDBRANCH  21  24
BRANCH  21  23
ATOM     23  C   UNL     1      -3.809 -10.548  16.281  0.00  0.00    +0.069 C 
BRANCH  23  25
ATOM     11  N   UNL     1      -5.829 -13.566  16.849  0.00  0.00    -0.360 N 
ATOM     25  C   UNL     1      -4.751 -11.629  16.728  0.00  0.00    -0.020 A 
ATOM     26  C   UNL     1      -5.679 -11.554  17.803  0.00  0.00    +0.003 A 
ATOM     27  C   UNL     1      -4.867 -12.878  16.161  0.00  0.00    +0.087 A 
ATOM     29  C   UNL     1      -6.343 -12.783  17.858  0.00  0.00    +0.047 A 
ATOM     30  C   UNL     1      -6.020 -10.557  18.739  0.00  0.00    +0.010 A 
ATOM     31  C   UNL     1      -7.334 -13.063  18.805  0.00  0.00    +0.026 A 
ATOM     34  C   UNL     1      -7.009 -10.824  19.692  0.00  0.00    +0.001 A 
ATOM     35  C   UNL     1      -7.655 -12.059  19.723  0.00  0.00    +0.002 A 
ATOM     45  H   UNL     1      -6.121 -14.512  16.648  0.00  0.00    +0.165 HD
ENDBRANCH  23  25
ENDBRANCH  21  23
ENDBRANCH   8  21
ENDBRANCH  15  20
BRANCH  16  12
ATOM     12  C   UNL     1      -5.749 -12.445   8.888  0.00  0.00    +0.075 C 
ATOM     13  C   UNL     1      -5.102 -13.459   7.990  0.00  0.00    +0.013 C 
ATOM     14  C   UNL     1      -6.079 -13.902   9.039  0.00  0.00    +0.013 C 
ENDBRANCH  16  12
TORSDOF 9
ENDMDL
