MODEL 1
REMARK VINA RESULT:      -6.2      0.000      0.000
REMARK  Name = 38028073
REMARK  10 active torsions:
REMARK  status: ('A' for Active; 'I' for Inactive)
REMARK    1  A    between atoms: S_2  and  N_7
REMARK    2  A    between atoms: S_2  and  C_26
REMARK    3  A    between atoms: N_7  and  C_16
REMARK    4  A    between atoms: C_9  and  C_13
REMARK    5  A    between atoms: C_10  and  C_16
REMARK    6  A    between atoms: C_12  and  C_17
REMARK    7  A    between atoms: C_13  and  C_18
REMARK    8  A    between atoms: C_13  and  C_19
REMARK    9  A    between atoms: C_14  and  C_20
REMARK   10  A    between atoms: C_17  and  C_21
REMARK                            x       y       z     vdW  Elec       q    Type
REMARK                         _______ _______ _______ _____ _____    ______ ____
ROOT
ATOM      9  C   UNL     1      -5.927 -11.279  14.875  0.00  0.00    +0.000 C 
ATOM     10  C   UNL     1      -4.576 -11.608  15.559  0.00  0.00    +0.030 C 
ATOM     11  C   UNL     1      -6.572 -10.048  15.529  0.00  0.00    +0.012 C 
ATOM     12  C   UNL     1      -6.824 -10.252  17.035  0.00  0.00    +0.023 C 
ATOM     14  C   UNL     1      -5.612 -10.833  17.735  0.00  0.00    -0.073 C 
ATOM     15  C   UNL     1      -4.611 -11.423  17.057  0.00  0.00    -0.023 C 
ATOM     20  C   UNL     1      -5.555 -10.679  19.229  0.00  0.00    +0.039 C 
ENDROOT
BRANCH   9  13
ATOM     13  C   UNL     1      -5.761 -11.039  13.371  0.00  0.00    -0.013 C 
ATOM     18  C   UNL     1      -6.677 -11.966  12.580  0.00  0.00    +0.007 C 
ATOM     19  C   UNL     1      -6.042  -9.580  13.030  0.00  0.00    +0.007 C 
ENDBRANCH   9  13
BRANCH  10  16
ATOM     16  C   UNL     1      -4.124 -13.036  15.230  0.00  0.00    +0.113 C 
BRANCH  16   7
ATOM      7  N   UNL     1      -2.679 -13.033  14.958  0.00  0.00    -0.189 NA
ATOM     32  H   UNL     1      -2.134 -12.287  15.408  0.00  0.00    +0.148 HD
BRANCH   7   2
ATOM      2  S   UNL     1      -2.082 -13.657  13.489  0.00  0.00    +0.058 S 
ATOM      5  O   UNL     1      -2.820 -14.858  13.146  0.00  0.00    -0.153 OA
ATOM      6  O   UNL     1      -0.633 -13.681  13.537  0.00  0.00    -0.153 OA
BRANCH   2  26
ATOM      1 CL   UNL     1      -3.712  -9.154   9.430  0.00  0.00    -0.084 Cl
ATOM     26  C   UNL     1      -2.541 -12.389  12.346  0.00  0.00    +0.105 A 
ATOM     27  C   UNL     1      -3.314 -12.704  11.229  0.00  0.00    +0.030 A 
ATOM     28  C   UNL     1      -2.131 -11.074  12.563  0.00  0.00    +0.030 A 
ATOM     29  C   UNL     1      -3.676 -11.705  10.327  0.00  0.00    +0.022 A 
ATOM     30  C   UNL     1      -2.493 -10.073  11.661  0.00  0.00    +0.022 A 
ATOM     31  C   UNL     1      -3.266 -10.389  10.543  0.00  0.00    +0.041 A 
ENDBRANCH   2  26
ENDBRANCH   7   2
ENDBRANCH  16   7
ENDBRANCH  10  16
BRANCH  12  17
ATOM     17  C   UNL     1      -8.065 -11.121  17.275  0.00  0.00    +0.103 C 
BRANCH  17  21
ATOM      3  O   UNL     1      -9.385  -9.202  17.715  0.00  0.00    -0.276 OA
ATOM      4  O   UNL     1     -11.325 -12.460  20.890  0.00  0.00    -0.377 OA
ATOM      8  N   UNL     1      -9.644 -10.995  19.166  0.00  0.00    -0.297 N 
ATOM     21  C   UNL     1      -9.088 -10.346  18.066  0.00  0.00    +0.216 C 
ATOM     22  C   UNL     1     -10.648 -10.317  19.986  0.00  0.00    +0.136 C 
ATOM     23  C   UNL     1      -9.225 -12.302  19.685  0.00  0.00    +0.136 C 
ATOM     24  C   UNL     1     -11.808 -11.255  20.289  0.00  0.00    +0.179 C 
ATOM     25  C   UNL     1     -10.444 -13.158  20.007  0.00  0.00    +0.179 C 
ENDBRANCH  17  21
ENDBRANCH  12  17
TORSDOF 7
ENDMDL
MODEL 2
REMARK VINA RESULT:      -6.2     29.776     32.069
REMARK  Name = 38028073
REMARK  10 active torsions:
REMARK  status: ('A' for Active; 'I' for Inactive)
REMARK    1  A    between atoms: S_2  and  N_7
REMARK    2  A    between atoms: S_2  and  C_26
REMARK    3  A    between atoms: N_7  and  C_16
REMARK    4  A    between atoms: C_9  and  C_13
REMARK    5  A    between atoms: C_10  and  C_16
REMARK    6  A    between atoms: C_12  and  C_17
REMARK    7  A    between atoms: C_13  and  C_18
REMARK    8  A    between atoms: C_13  and  C_19
REMARK    9  A    between atoms: C_14  and  C_20
REMARK   10  A    between atoms: C_17  and  C_21
REMARK                            x       y       z     vdW  Elec       q    Type
REMARK                         _______ _______ _______ _____ _____    ______ ____
ROOT
ATOM      9  C   UNL     1      20.222   5.984  21.808  0.00  0.00    +0.000 C 
ATOM     10  C   UNL     1      20.643   7.233  22.623  0.00  0.00    +0.030 C 
ATOM     11  C   UNL     1      19.587   6.404  20.474  0.00  0.00    +0.012 C 
ATOM     12  C   UNL     1      18.348   7.297  20.673  0.00  0.00    +0.023 C 
ATOM     14  C   UNL     1      18.606   8.403  21.677  0.00  0.00    -0.073 C 
ATOM     15  C   UNL     1      19.645   8.362  22.531  0.00  0.00    -0.023 C 
ATOM     20  C   UNL     1      17.670   9.578  21.646  0.00  0.00    +0.039 C 
ENDROOT
BRANCH   9  13
ATOM     13  C   UNL     1      21.407   5.049  21.546  0.00  0.00    -0.013 C 
ATOM     18  C   UNL     1      20.948   3.806  20.792  0.00  0.00    +0.007 C 
ATOM     19  C   UNL     1      22.500   5.778  20.772  0.00  0.00    +0.007 C 
ENDBRANCH   9  13
BRANCH  10  16
ATOM     16  C   UNL     1      20.879   6.877  24.096  0.00  0.00    +0.113 C 
BRANCH  16   7
ATOM      7  N   UNL     1      22.325   6.770  24.339  0.00  0.00    -0.189 NA
ATOM     32  H   UNL     1      22.938   7.053  23.565  0.00  0.00    +0.148 HD
BRANCH   7   2
ATOM      2  S   UNL     1      22.928   5.602  25.423  0.00  0.00    +0.058 S 
ATOM      5  O   UNL     1      21.836   5.090  26.228  0.00  0.00    -0.153 OA
ATOM      6  O   UNL     1      24.124   6.117  26.060  0.00  0.00    -0.153 OA
BRANCH   2  26
ATOM      1 CL   UNL     1      24.749   1.045  21.508  0.00  0.00    -0.084 Cl
ATOM     26  C   UNL     1      23.441   4.319  24.320  0.00  0.00    +0.105 A 
ATOM     27  C   UNL     1      22.745   3.111  24.285  0.00  0.00    +0.030 A 
ATOM     28  C   UNL     1      24.541   4.515  23.486  0.00  0.00    +0.030 A 
ATOM     29  C   UNL     1      23.149   2.098  23.416  0.00  0.00    +0.022 A 
ATOM     30  C   UNL     1      24.946   3.503  22.616  0.00  0.00    +0.022 A 
ATOM     31  C   UNL     1      24.250   2.294  22.581  0.00  0.00    +0.041 A 
ENDBRANCH   2  26
ENDBRANCH   7   2
ENDBRANCH  16   7
ENDBRANCH  10  16
BRANCH  12  17
ATOM     17  C   UNL     1      17.126   6.464  21.076  0.00  0.00    +0.103 C 
BRANCH  17  21
ATOM      3  O   UNL     1      16.439   5.782  18.912  0.00  0.00    -0.276 OA
ATOM      4  O   UNL     1      12.259   7.749  20.680  0.00  0.00    -0.377 OA
ATOM      8  N   UNL     1      14.939   7.082  20.116  0.00  0.00    -0.297 N 
ATOM     21  C   UNL     1      16.145   6.408  19.933  0.00  0.00    +0.216 C 
ATOM     22  C   UNL     1      13.928   7.076  19.059  0.00  0.00    +0.136 C 
ATOM     23  C   UNL     1      14.607   7.939  21.260  0.00  0.00    +0.136 C 
ATOM     24  C   UNL     1      12.549   6.806  19.644  0.00  0.00    +0.179 C 
ATOM     25  C   UNL     1      13.197   7.638  21.753  0.00  0.00    +0.179 C 
ENDBRANCH  17  21
ENDBRANCH  12  17
TORSDOF 7
ENDMDL
MODEL 3
REMARK VINA RESULT:      -6.1     29.051     31.567
REMARK  Name = 38028073
REMARK  10 active torsions:
REMARK  status: ('A' for Active; 'I' for Inactive)
REMARK    1  A    between atoms: S_2  and  N_7
REMARK    2  A    between atoms: S_2  and  C_26
REMARK    3  A    between atoms: N_7  and  C_16
REMARK    4  A    between atoms: C_9  and  C_13
REMARK    5  A    between atoms: C_10  and  C_16
REMARK    6  A    between atoms: C_12  and  C_17
REMARK    7  A    between atoms: C_13  and  C_18
REMARK    8  A    between atoms: C_13  and  C_19
REMARK    9  A    between atoms: C_14  and  C_20
REMARK   10  A    between atoms: C_17  and  C_21
REMARK                            x       y       z     vdW  Elec       q    Type
REMARK                         _______ _______ _______ _____ _____    ______ ____
ROOT
ATOM      9  C   UNL     1      16.967   7.495  20.671  0.00  0.00    +0.000 C 
ATOM     10  C   UNL     1      15.608   7.193  21.350  0.00  0.00    +0.030 C 
ATOM     11  C   UNL     1      17.787   8.474  21.524  0.00  0.00    +0.012 C 
ATOM     12  C   UNL     1      17.049   9.806  21.754  0.00  0.00    +0.023 C 
ATOM     14  C   UNL     1      15.609   9.588  22.171  0.00  0.00    -0.073 C 
ATOM     15  C   UNL     1      14.986   8.409  21.994  0.00  0.00    -0.023 C 
ATOM     20  C   UNL     1      14.914  10.742  22.837  0.00  0.00    +0.039 C 
ENDROOT
BRANCH   9  13
ATOM     13  C   UNL     1      17.776   6.217  20.424  0.00  0.00    -0.013 C 
ATOM     18  C   UNL     1      17.669   5.793  18.964  0.00  0.00    +0.007 C 
ATOM     19  C   UNL     1      19.233   6.426  20.821  0.00  0.00    +0.007 C 
ENDBRANCH   9  13
BRANCH  10  16
ATOM     16  C   UNL     1      14.616   6.579  20.354  0.00  0.00    +0.113 C 
BRANCH  16   7
ATOM      7  N   UNL     1      14.444   7.497  19.218  0.00  0.00    -0.189 NA
ATOM     32  H   UNL     1      15.162   8.224  19.109  0.00  0.00    +0.148 HD
BRANCH   7   2
ATOM      2  S   UNL     1      12.885   7.847  18.628  0.00  0.00    +0.058 S 
ATOM      5  O   UNL     1      12.042   6.676  18.781  0.00  0.00    -0.153 OA
ATOM      6  O   UNL     1      13.000   8.498  17.337  0.00  0.00    -0.153 OA
BRANCH   2  26
ATOM      1 CL   UNL     1      10.918  12.194  22.708  0.00  0.00    -0.084 Cl
ATOM     26  C   UNL     1      12.331   9.071  19.777  0.00  0.00    +0.105 A 
ATOM     27  C   UNL     1      12.794  10.382  19.675  0.00  0.00    +0.030 A 
ATOM     28  C   UNL     1      11.430   8.725  20.784  0.00  0.00    +0.030 A 
ATOM     29  C   UNL     1      12.358  11.348  20.582  0.00  0.00    +0.022 A 
ATOM     30  C   UNL     1      10.993   9.691  21.691  0.00  0.00    +0.022 A 
ATOM     31  C   UNL     1      11.457  11.002  21.589  0.00  0.00    +0.041 A 
ENDBRANCH   2  26
ENDBRANCH   7   2
ENDBRANCH  16   7
ENDBRANCH  10  16
BRANCH  12  17
ATOM     17  C   UNL     1      17.131  10.704  20.514  0.00  0.00    +0.103 C 
BRANCH  17  21
ATOM      3  O   UNL     1      16.924  12.972  21.173  0.00  0.00    -0.276 OA
ATOM      4  O   UNL     1      21.793  12.257  21.678  0.00  0.00    -0.377 OA
ATOM      8  N   UNL     1      19.083  12.161  20.906  0.00  0.00    -0.297 N 
ATOM     21  C   UNL     1      17.694  12.050  20.893  0.00  0.00    +0.216 C 
ATOM     22  C   UNL     1      19.714  13.431  21.268  0.00  0.00    +0.136 C 
ATOM     23  C   UNL     1      20.024  11.128  20.459  0.00  0.00    +0.136 C 
ATOM     24  C   UNL     1      20.866  13.195  22.233  0.00  0.00    +0.179 C 
ATOM     25  C   UNL     1      21.169  10.990  21.455  0.00  0.00    +0.179 C 
ENDBRANCH  17  21
ENDBRANCH  12  17
TORSDOF 7
ENDMDL
MODEL 4
REMARK VINA RESULT:      -6.1     20.522     24.000
REMARK  Name = 38028073
REMARK  10 active torsions:
REMARK  status: ('A' for Active; 'I' for Inactive)
REMARK    1  A    between atoms: S_2  and  N_7
REMARK    2  A    between atoms: S_2  and  C_26
REMARK    3  A    between atoms: N_7  and  C_16
REMARK    4  A    between atoms: C_9  and  C_13
REMARK    5  A    between atoms: C_10  and  C_16
REMARK    6  A    between atoms: C_12  and  C_17
REMARK    7  A    between atoms: C_13  and  C_18
REMARK    8  A    between atoms: C_13  and  C_19
REMARK    9  A    between atoms: C_14  and  C_20
REMARK   10  A    between atoms: C_17  and  C_21
REMARK                            x       y       z     vdW  Elec       q    Type
REMARK                         _______ _______ _______ _____ _____    ______ ____
ROOT
ATOM      9  C   UNL     1     -13.571   7.387  21.070  0.00  0.00    +0.000 C 
ATOM     10  C   UNL     1     -13.484   8.710  21.872  0.00  0.00    +0.030 C 
ATOM     11  C   UNL     1     -12.205   7.040  20.459  0.00  0.00    +0.012 C 
ATOM     12  C   UNL     1     -11.687   8.147  19.522  0.00  0.00    +0.023 C 
ATOM     14  C   UNL     1     -11.819   9.522  20.146  0.00  0.00    -0.073 C 
ATOM     15  C   UNL     1     -12.617   9.751  21.205  0.00  0.00    -0.023 C 
ATOM     20  C   UNL     1     -10.978  10.618  19.555  0.00  0.00    +0.039 C 
ENDROOT
BRANCH   9  13
ATOM     13  C   UNL     1     -14.061   6.225  21.939  0.00  0.00    -0.013 C 
ATOM     18  C   UNL     1     -15.279   5.563  21.304  0.00  0.00    +0.007 C 
ATOM     19  C   UNL     1     -12.943   5.210  22.151  0.00  0.00    +0.007 C 
ENDBRANCH   9  13
BRANCH  10  16
ATOM     16  C   UNL     1     -14.879   9.294  22.128  0.00  0.00    +0.113 C 
BRANCH  16   7
ATOM      7  N   UNL     1     -14.778  10.759  22.213  0.00  0.00    -0.189 NA
ATOM     32  H   UNL     1     -14.102  11.205  21.583  0.00  0.00    +0.148 HD
BRANCH   7   2
ATOM      2  S   UNL     1     -15.123  11.557  23.679  0.00  0.00    +0.058 S 
ATOM      5  O   UNL     1     -16.275  10.935  24.302  0.00  0.00    -0.153 OA
ATOM      6  O   UNL     1     -15.099  12.990  23.456  0.00  0.00    -0.153 OA
BRANCH   2  26
ATOM      1 CL   UNL     1     -10.064  10.149  27.119  0.00  0.00    -0.084 Cl
ATOM     26  C   UNL     1     -13.698  11.160  24.648  0.00  0.00    +0.105 A 
ATOM     27  C   UNL     1     -13.845  10.484  25.858  0.00  0.00    +0.030 A 
ATOM     28  C   UNL     1     -12.428  11.523  24.200  0.00  0.00    +0.030 A 
ATOM     29  C   UNL     1     -12.722  10.171  26.623  0.00  0.00    +0.022 A 
ATOM     30  C   UNL     1     -11.304  11.211  24.965  0.00  0.00    +0.022 A 
ATOM     31  C   UNL     1     -11.451  10.534  26.176  0.00  0.00    +0.041 A 
ENDBRANCH   2  26
ENDBRANCH   7   2
ENDBRANCH  16   7
ENDBRANCH  10  16
BRANCH  12  17
ATOM     17  C   UNL     1     -12.390   8.093  18.161  0.00  0.00    +0.103 C 
BRANCH  17  21
ATOM      3  O   UNL     1     -10.174   8.191  17.324  0.00  0.00    -0.276 OA
ATOM      4  O   UNL     1     -12.788   8.030  13.127  0.00  0.00    -0.377 OA
ATOM      8  N   UNL     1     -11.883   8.419  15.768  0.00  0.00    -0.297 N 
ATOM     21  C   UNL     1     -11.377   8.239  17.054  0.00  0.00    +0.216 C 
ATOM     22  C   UNL     1     -10.969   8.565  14.635  0.00  0.00    +0.136 C 
ATOM     23  C   UNL     1     -13.297   8.607  15.428  0.00  0.00    +0.136 C 
ATOM     24  C   UNL     1     -11.434   7.711  13.465  0.00  0.00    +0.179 C 
ATOM     25  C   UNL     1     -13.668   7.755  14.220  0.00  0.00    +0.179 C 
ENDBRANCH  17  21
ENDBRANCH  12  17
TORSDOF 7
ENDMDL
MODEL 5
REMARK VINA RESULT:      -6.1     25.456     28.625
REMARK  Name = 38028073
REMARK  10 active torsions:
REMARK  status: ('A' for Active; 'I' for Inactive)
REMARK    1  A    between atoms: S_2  and  N_7
REMARK    2  A    between atoms: S_2  and  C_26
REMARK    3  A    between atoms: N_7  and  C_16
REMARK    4  A    between atoms: C_9  and  C_13
REMARK    5  A    between atoms: C_10  and  C_16
REMARK    6  A    between atoms: C_12  and  C_17
REMARK    7  A    between atoms: C_13  and  C_18
REMARK    8  A    between atoms: C_13  and  C_19
REMARK    9  A    between atoms: C_14  and  C_20
REMARK   10  A    between atoms: C_17  and  C_21
REMARK                            x       y       z     vdW  Elec       q    Type
REMARK                         _______ _______ _______ _____ _____    ______ ____
ROOT
ATOM      9  C   UNL     1       9.730   8.269   2.254  0.00  0.00    +0.000 C 
ATOM     10  C   UNL     1       8.822   8.253   3.510  0.00  0.00    +0.030 C 
ATOM     11  C   UNL     1       9.807   6.868   1.631  0.00  0.00    +0.012 C 
ATOM     12  C   UNL     1      10.357   5.821   2.617  0.00  0.00    +0.023 C 
ATOM     14  C   UNL     1       9.691   5.921   3.975  0.00  0.00    -0.073 C 
ATOM     15  C   UNL     1       8.999   7.011   4.351  0.00  0.00    -0.023 C 
ATOM     20  C   UNL     1       9.802   4.722   4.874  0.00  0.00    +0.039 C 
ENDROOT
BRANCH   9  13
ATOM     13  C   UNL     1       9.237   9.275   1.208  0.00  0.00    -0.013 C 
ATOM     18  C   UNL     1       9.950   9.052  -0.121  0.00  0.00    +0.007 C 
ATOM     19  C   UNL     1       7.726   9.168   1.037  0.00  0.00    +0.007 C 
ENDBRANCH   9  13
BRANCH  10  16
ATOM     16  C   UNL     1       9.057   9.496   4.377  0.00  0.00    +0.113 C 
BRANCH  16   7
ATOM      7  N   UNL     1      10.419   9.447   4.929  0.00  0.00    -0.189 NA
ATOM     32  H   UNL     1      11.078   8.815   4.458  0.00  0.00    +0.148 HD
BRANCH   7   2
ATOM      2  S   UNL     1      10.685   9.758   6.583  0.00  0.00    +0.058 S 
ATOM      5  O   UNL     1       9.681  10.689   7.061  0.00  0.00    -0.153 OA
ATOM      6  O   UNL     1      12.094  10.033   6.794  0.00  0.00    -0.153 OA
BRANCH   2  26
ATOM      1 CL   UNL     1       9.504   4.150   9.145  0.00  0.00    -0.084 Cl
ATOM     26  C   UNL     1      10.353   8.179   7.304  0.00  0.00    +0.105 A 
ATOM     27  C   UNL     1       9.104   7.919   7.868  0.00  0.00    +0.030 A 
ATOM     28  C   UNL     1      11.339   7.193   7.309  0.00  0.00    +0.030 A 
ATOM     29  C   UNL     1       8.841   6.674   8.438  0.00  0.00    +0.022 A 
ATOM     30  C   UNL     1      11.077   5.947   7.878  0.00  0.00    +0.022 A 
ATOM     31  C   UNL     1       9.827   5.687   8.442  0.00  0.00    +0.041 A 
ENDBRANCH   2  26
ENDBRANCH   7   2
ENDBRANCH  16   7
ENDBRANCH  10  16
BRANCH  12  17
ATOM     17  C   UNL     1      11.882   5.928   2.744  0.00  0.00    +0.103 C 
BRANCH  17  21
ATOM      3  O   UNL     1      11.886   3.644   2.109  0.00  0.00    -0.276 OA
ATOM      4  O   UNL     1      16.180   5.188   0.200  0.00  0.00    -0.377 OA
ATOM      8  N   UNL     1      13.850   4.827   1.745  0.00  0.00    -0.297 N 
ATOM     21  C   UNL     1      12.531   4.693   2.175  0.00  0.00    +0.216 C 
ATOM     22  C   UNL     1      14.555   3.679   1.175  0.00  0.00    +0.136 C 
ATOM     23  C   UNL     1      14.687   6.019   1.923  0.00  0.00    +0.136 C 
ATOM     24  C   UNL     1      15.308   4.090  -0.083  0.00  0.00    +0.179 C 
ATOM     25  C   UNL     1      15.440   6.332   0.636  0.00  0.00    +0.179 C 
ENDBRANCH  17  21
ENDBRANCH  12  17
TORSDOF 7
ENDMDL
MODEL 6
REMARK VINA RESULT:      -5.9      2.383      3.768
REMARK  Name = 38028073
REMARK  10 active torsions:
REMARK  status: ('A' for Active; 'I' for Inactive)
REMARK    1  A    between atoms: S_2  and  N_7
REMARK    2  A    between atoms: S_2  and  C_26
REMARK    3  A    between atoms: N_7  and  C_16
REMARK    4  A    between atoms: C_9  and  C_13
REMARK    5  A    between atoms: C_10  and  C_16
REMARK    6  A    between atoms: C_12  and  C_17
REMARK    7  A    between atoms: C_13  and  C_18
REMARK    8  A    between atoms: C_13  and  C_19
REMARK    9  A    between atoms: C_14  and  C_20
REMARK   10  A    between atoms: C_17  and  C_21
REMARK                            x       y       z     vdW  Elec       q    Type
REMARK                         _______ _______ _______ _____ _____    ______ ____
ROOT
ATOM      9  C   UNL     1      -5.561 -10.823  17.302  0.00  0.00    +0.000 C 
ATOM     10  C   UNL     1      -4.588 -11.810  16.611  0.00  0.00    +0.030 C 
ATOM     11  C   UNL     1      -7.014 -11.291  17.127  0.00  0.00    +0.012 C 
ATOM     12  C   UNL     1      -7.413 -11.412  15.644  0.00  0.00    +0.023 C 
ATOM     14  C   UNL     1      -6.363 -12.149  14.837  0.00  0.00    -0.073 C 
ATOM     15  C   UNL     1      -5.109 -12.328  15.291  0.00  0.00    -0.023 C 
ATOM     20  C   UNL     1      -6.799 -12.714  13.514  0.00  0.00    +0.039 C 
ENDROOT
BRANCH   9  13
ATOM     13  C   UNL     1      -5.245 -10.660  18.792  0.00  0.00    -0.013 C 
ATOM     18  C   UNL     1      -6.508 -10.301  19.568  0.00  0.00    +0.007 C 
ATOM     19  C   UNL     1      -4.615 -11.934  19.344  0.00  0.00    +0.007 C 
ENDBRANCH   9  13
BRANCH  10  16
ATOM     16  C   UNL     1      -3.210 -11.172  16.401  0.00  0.00    +0.113 C 
BRANCH  16   7
ATOM      7  N   UNL     1      -3.219 -10.410  15.143  0.00  0.00    -0.189 NA
ATOM     32  H   UNL     1      -4.143 -10.170  14.764  0.00  0.00    +0.148 HD
BRANCH   7   2
ATOM      2  S   UNL     1      -1.940 -10.577  14.031  0.00  0.00    +0.058 S 
ATOM      5  O   UNL     1      -1.503 -11.960  14.008  0.00  0.00    -0.153 OA
ATOM      6  O   UNL     1      -0.978  -9.513  14.249  0.00  0.00    -0.153 OA
BRANCH   2  26
ATOM      1 CL   UNL     1      -4.815  -9.364   8.583  0.00  0.00    -0.084 Cl
ATOM     26  C   UNL     1      -2.749 -10.236  12.497  0.00  0.00    +0.105 A 
ATOM     27  C   UNL     1      -4.089 -10.580  12.325  0.00  0.00    +0.030 A 
ATOM     28  C   UNL     1      -2.048  -9.621  11.460  0.00  0.00    +0.030 A 
ATOM     29  C   UNL     1      -4.729 -10.311  11.115  0.00  0.00    +0.022 A 
ATOM     30  C   UNL     1      -2.686  -9.351  10.249  0.00  0.00    +0.022 A 
ATOM     31  C   UNL     1      -4.027  -9.696  10.077  0.00  0.00    +0.041 A 
ENDBRANCH   2  26
ENDBRANCH   7   2
ENDBRANCH  16   7
ENDBRANCH  10  16
BRANCH  12  17
ATOM     17  C   UNL     1      -7.706 -10.035  15.036  0.00  0.00    +0.103 C 
BRANCH  17  21
ATOM      3  O   UNL     1      -9.530 -10.460  13.583  0.00  0.00    -0.276 OA
ATOM      4  O   UNL     1     -11.857  -8.649  17.554  0.00  0.00    -0.377 OA
ATOM      8  N   UNL     1     -10.004  -9.284  15.527  0.00  0.00    -0.297 N 
ATOM     21  C   UNL     1      -9.159  -9.949  14.642  0.00  0.00    +0.216 C 
ATOM     22  C   UNL     1     -11.430  -9.158  15.225  0.00  0.00    +0.136 C 
ATOM     23  C   UNL     1      -9.578  -8.557  16.729  0.00  0.00    +0.136 C 
ATOM     24  C   UNL     1     -12.264  -9.473  16.458  0.00  0.00    +0.179 C 
ATOM     25  C   UNL     1     -10.492  -8.892  17.901  0.00  0.00    +0.179 C 
ENDBRANCH  17  21
ENDBRANCH  12  17
TORSDOF 7
ENDMDL
MODEL 7
REMARK VINA RESULT:      -5.8      2.693      6.656
REMARK  Name = 38028073
REMARK  10 active torsions:
REMARK  status: ('A' for Active; 'I' for Inactive)
REMARK    1  A    between atoms: S_2  and  N_7
REMARK    2  A    between atoms: S_2  and  C_26
REMARK    3  A    between atoms: N_7  and  C_16
REMARK    4  A    between atoms: C_9  and  C_13
REMARK    5  A    between atoms: C_10  and  C_16
REMARK    6  A    between atoms: C_12  and  C_17
REMARK    7  A    between atoms: C_13  and  C_18
REMARK    8  A    between atoms: C_13  and  C_19
REMARK    9  A    between atoms: C_14  and  C_20
REMARK   10  A    between atoms: C_17  and  C_21
REMARK                            x       y       z     vdW  Elec       q    Type
REMARK                         _______ _______ _______ _____ _____    ______ ____
ROOT
ATOM      9  C   UNL     1      -7.235 -11.873  17.805  0.00  0.00    +0.000 C 
ATOM     10  C   UNL     1      -6.734 -10.408  17.850  0.00  0.00    +0.030 C 
ATOM     11  C   UNL     1      -6.101 -12.839  18.179  0.00  0.00    +0.012 C 
ATOM     12  C   UNL     1      -4.889 -12.709  17.238  0.00  0.00    +0.023 C 
ATOM     14  C   UNL     1      -4.499 -11.260  17.019  0.00  0.00    -0.073 C 
ATOM     15  C   UNL     1      -5.332 -10.245  17.311  0.00  0.00    -0.023 C 
ATOM     20  C   UNL     1      -3.112 -11.003  16.499  0.00  0.00    +0.039 C 
ENDROOT
BRANCH   9  13
ATOM     13  C   UNL     1      -8.433 -12.094  18.734  0.00  0.00    -0.013 C 
ATOM     18  C   UNL     1      -9.569 -12.781  17.984  0.00  0.00    +0.007 C 
ATOM     19  C   UNL     1      -8.017 -12.911  19.952  0.00  0.00    +0.007 C 
ENDBRANCH   9  13
BRANCH  10  16
ATOM     16  C   UNL     1      -7.685  -9.475  17.091  0.00  0.00    +0.113 C 
BRANCH  16   7
ATOM      7  N   UNL     1      -7.132  -9.208  15.754  0.00  0.00    -0.189 NA
ATOM     32  H   UNL     1      -6.701  -8.286  15.617  0.00  0.00    +0.148 HD
BRANCH   7   2
ATOM      2  S   UNL     1      -7.798  -9.969  14.384  0.00  0.00    +0.058 S 
ATOM      5  O   UNL     1      -8.923  -9.189  13.904  0.00  0.00    -0.153 OA
ATOM      6  O   UNL     1      -7.956 -11.385  14.656  0.00  0.00    -0.153 OA
BRANCH   2  26
ATOM      1 CL   UNL     1      -3.136  -9.411  10.217  0.00  0.00    -0.084 Cl
ATOM     26  C   UNL     1      -6.485  -9.812  13.211  0.00  0.00    +0.105 A 
ATOM     27  C   UNL     1      -5.277 -10.474  13.424  0.00  0.00    +0.030 A 
ATOM     28  C   UNL     1      -6.659  -9.027  12.071  0.00  0.00    +0.030 A 
ATOM     29  C   UNL     1      -4.241 -10.350  12.499  0.00  0.00    +0.022 A 
ATOM     30  C   UNL     1      -5.623  -8.902  11.145  0.00  0.00    +0.022 A 
ATOM     31  C   UNL     1      -4.414  -9.564  11.359  0.00  0.00    +0.041 A 
ENDBRANCH   2  26
ENDBRANCH   7   2
ENDBRANCH  16   7
ENDBRANCH  10  16
BRANCH  12  17
ATOM     17  C   UNL     1      -5.148 -13.415  15.901  0.00  0.00    +0.103 C 
BRANCH  17  21
ATOM      3  O   UNL     1      -4.512 -15.588  16.604  0.00  0.00    -0.276 OA
ATOM      4  O   UNL     1      -1.927 -15.131  12.412  0.00  0.00    -0.377 OA
ATOM      8  N   UNL     1      -3.342 -14.693  14.811  0.00  0.00    -0.297 N 
ATOM     21  C   UNL     1      -4.310 -14.665  15.812  0.00  0.00    +0.216 C 
ATOM     22  C   UNL     1      -2.487 -15.869  14.650  0.00  0.00    +0.136 C 
ATOM     23  C   UNL     1      -2.989 -13.569  13.935  0.00  0.00    +0.136 C 
ATOM     24  C   UNL     1      -2.379 -16.250  13.181  0.00  0.00    +0.179 C 
ATOM     25  C   UNL     1      -2.854 -14.045  12.494  0.00  0.00    +0.179 C 
ENDBRANCH  17  21
ENDBRANCH  12  17
TORSDOF 7
ENDMDL
MODEL 8
REMARK VINA RESULT:      -5.6      3.629      7.229
REMARK  Name = 38028073
REMARK  10 active torsions:
REMARK  status: ('A' for Active; 'I' for Inactive)
REMARK    1  A    between atoms: S_2  and  N_7
REMARK    2  A    between atoms: S_2  and  C_26
REMARK    3  A    between atoms: N_7  and  C_16
REMARK    4  A    between atoms: C_9  and  C_13
REMARK    5  A    between atoms: C_10  and  C_16
REMARK    6  A    between atoms: C_12  and  C_17
REMARK    7  A    between atoms: C_13  and  C_18
REMARK    8  A    between atoms: C_13  and  C_19
REMARK    9  A    between atoms: C_14  and  C_20
REMARK   10  A    between atoms: C_17  and  C_21
REMARK                            x       y       z     vdW  Elec       q    Type
REMARK                         _______ _______ _______ _____ _____    ______ ____
ROOT
ATOM      9  C   UNL     1      -6.457 -12.705  14.746  0.00  0.00    +0.000 C 
ATOM     10  C   UNL     1      -5.661 -13.808  15.489  0.00  0.00    +0.030 C 
ATOM     11  C   UNL     1      -6.011 -12.620  13.279  0.00  0.00    +0.012 C 
ATOM     12  C   UNL     1      -4.509 -12.313  13.142  0.00  0.00    +0.023 C 
ATOM     14  C   UNL     1      -3.670 -13.187  14.053  0.00  0.00    -0.073 C 
ATOM     15  C   UNL     1      -4.205 -13.857  15.089  0.00  0.00    -0.023 C 
ATOM     20  C   UNL     1      -2.209 -13.308  13.720  0.00  0.00    +0.039 C 
ENDROOT
BRANCH   9  13
ATOM     13  C   UNL     1      -7.968 -12.949  14.817  0.00  0.00    -0.013 C 
ATOM     18  C   UNL     1      -8.727 -11.733  14.295  0.00  0.00    +0.007 C 
ATOM     19  C   UNL     1      -8.343 -14.199  14.030  0.00  0.00    +0.007 C 
ENDBRANCH   9  13
BRANCH  10  16
ATOM     16  C   UNL     1      -5.768 -13.637  17.009  0.00  0.00    +0.113 C 
BRANCH  16   7
ATOM      7  N   UNL     1      -4.431 -13.364  17.558  0.00  0.00    -0.189 NA
ATOM     32  H   UNL     1      -3.949 -14.157  17.997  0.00  0.00    +0.148 HD
BRANCH   7   2
ATOM      2  S   UNL     1      -4.038 -11.805  18.122  0.00  0.00    +0.058 S 
ATOM      5  O   UNL     1      -3.026 -11.225  17.260  0.00  0.00    -0.153 OA
ATOM      6  O   UNL     1      -3.831 -11.857  19.557  0.00  0.00    -0.153 OA
BRANCH   2  26
ATOM      1 CL   UNL     1      -9.413  -8.707  17.155  0.00  0.00    -0.084 Cl
ATOM     26  C   UNL     1      -5.552 -10.932  17.850  0.00  0.00    +0.105 A 
ATOM     27  C   UNL     1      -5.673 -10.071  16.760  0.00  0.00    +0.030 A 
ATOM     28  C   UNL     1      -6.623 -11.106  18.725  0.00  0.00    +0.030 A 
ATOM     29  C   UNL     1      -6.867  -9.382  16.545  0.00  0.00    +0.022 A 
ATOM     30  C   UNL     1      -7.818 -10.418  18.510  0.00  0.00    +0.022 A 
ATOM     31  C   UNL     1      -7.939  -9.556  17.420  0.00  0.00    +0.041 A 
ENDBRANCH   2  26
ENDBRANCH   7   2
ENDBRANCH  16   7
ENDBRANCH  10  16
BRANCH  12  17
ATOM     17  C   UNL     1      -4.223 -10.827  13.391  0.00  0.00    +0.103 C 
BRANCH  17  21
ATOM      3  O   UNL     1      -2.766 -10.283  11.602  0.00  0.00    -0.276 OA
ATOM      4  O   UNL     1      -7.063  -8.494   9.930  0.00  0.00    -0.377 OA
ATOM      8  N   UNL     1      -4.905  -9.387  11.508  0.00  0.00    -0.297 N 
ATOM     21  C   UNL     1      -3.890 -10.145  12.089  0.00  0.00    +0.216 C 
ATOM     22  C   UNL     1      -4.670  -8.695  10.241  0.00  0.00    +0.136 C 
ATOM     23  C   UNL     1      -6.208  -9.098  12.119  0.00  0.00    +0.136 C 
ATOM     24  C   UNL     1      -5.846  -8.900   9.297  0.00  0.00    +0.179 C 
ATOM     25  C   UNL     1      -7.322  -9.280  11.096  0.00  0.00    +0.179 C 
ENDBRANCH  17  21
ENDBRANCH  12  17
TORSDOF 7
ENDMDL
MODEL 9
REMARK VINA RESULT:      -5.6     25.280     28.391
REMARK  Name = 38028073
REMARK  10 active torsions:
REMARK  status: ('A' for Active; 'I' for Inactive)
REMARK    1  A    between atoms: S_2  and  N_7
REMARK    2  A    between atoms: S_2  and  C_26
REMARK    3  A    between atoms: N_7  and  C_16
REMARK    4  A    between atoms: C_9  and  C_13
REMARK    5  A    between atoms: C_10  and  C_16
REMARK    6  A    between atoms: C_12  and  C_17
REMARK    7  A    between atoms: C_13  and  C_18
REMARK    8  A    between atoms: C_13  and  C_19
REMARK    9  A    between atoms: C_14  and  C_20
REMARK   10  A    between atoms: C_17  and  C_21
REMARK                            x       y       z     vdW  Elec       q    Type
REMARK                         _______ _______ _______ _____ _____    ______ ____
ROOT
ATOM      9  C   UNL     1       8.757   8.744   4.880  0.00  0.00    +0.000 C 
ATOM     10  C   UNL     1       8.446   9.225   6.319  0.00  0.00    +0.030 C 
ATOM     11  C   UNL     1       8.379   7.265   4.716  0.00  0.00    +0.012 C 
ATOM     12  C   UNL     1       9.130   6.357   5.707  0.00  0.00    +0.023 C 
ATOM     14  C   UNL     1       9.095   6.912   7.117  0.00  0.00    -0.073 C 
ATOM     15  C   UNL     1       8.774   8.193   7.372  0.00  0.00    -0.023 C 
ATOM     20  C   UNL     1       9.393   5.948   8.231  0.00  0.00    +0.039 C 
ENDROOT
BRANCH   9  13
ATOM     13  C   UNL     1       8.028   9.586   3.828  0.00  0.00    -0.013 C 
ATOM     18  C   UNL     1       8.010   8.863   2.486  0.00  0.00    +0.007 C 
ATOM     19  C   UNL     1       6.610   9.903   4.290  0.00  0.00    +0.007 C 
ENDBRANCH   9  13
BRANCH  10  16
ATOM     16  C   UNL     1       9.183  10.531   6.637  0.00  0.00    +0.113 C 
BRANCH  16   7
ATOM      7  N   UNL     1      10.005  10.339   7.842  0.00  0.00    -0.189 NA
ATOM     32  H   UNL     1       9.518   9.978   8.671  0.00  0.00    +0.148 HD
BRANCH   7   2
ATOM      2  S   UNL     1      11.378  11.312   8.107  0.00  0.00    +0.058 S 
ATOM      5  O   UNL     1      11.647  11.382   9.531  0.00  0.00    -0.153 OA
ATOM      6  O   UNL     1      11.256  12.529   7.328  0.00  0.00    -0.153 OA
BRANCH   2  26
ATOM      1 CL   UNL     1      15.910   7.876   5.448  0.00  0.00    -0.084 Cl
ATOM     26  C   UNL     1      12.654  10.344   7.358  0.00  0.00    +0.105 A 
ATOM     27  C   UNL     1      13.872  10.935   7.025  0.00  0.00    +0.030 A 
ATOM     28  C   UNL     1      12.443   8.990   7.103  0.00  0.00    +0.030 A 
ATOM     29  C   UNL     1      14.879  10.173   6.433  0.00  0.00    +0.022 A 
ATOM     30  C   UNL     1      13.450   8.226   6.512  0.00  0.00    +0.022 A 
ATOM     31  C   UNL     1      14.668   8.818   6.177  0.00  0.00    +0.041 A 
ENDBRANCH   2  26
ENDBRANCH   7   2
ENDBRANCH  16   7
ENDBRANCH  10  16
BRANCH  12  17
ATOM     17  C   UNL     1      10.574   6.114   5.249  0.00  0.00    +0.103 C 
BRANCH  17  21
ATOM      3  O   UNL     1      10.131   3.819   4.851  0.00  0.00    -0.276 OA
ATOM      4  O   UNL     1      11.903   5.239   0.457  0.00  0.00    -0.377 OA
ATOM      8  N   UNL     1      11.296   4.954   3.195  0.00  0.00    -0.297 N 
ATOM     21  C   UNL     1      10.643   4.856   4.422  0.00  0.00    +0.216 C 
ATOM     22  C   UNL     1      11.405   3.782   2.327  0.00  0.00    +0.136 C 
ATOM     23  C   UNL     1      12.024   6.132   2.710  0.00  0.00    +0.136 C 
ATOM     24  C   UNL     1      11.076   4.153   0.888  0.00  0.00    +0.179 C 
ATOM     25  C   UNL     1      11.675   6.405   1.252  0.00  0.00    +0.179 C 
ENDBRANCH  17  21
ENDBRANCH  12  17
TORSDOF 7
ENDMDL
MODEL 10
REMARK VINA RESULT:      -5.5      7.352      9.116
REMARK  Name = 38028073
REMARK  10 active torsions:
REMARK  status: ('A' for Active; 'I' for Inactive)
REMARK    1  A    between atoms: S_2  and  N_7
REMARK    2  A    between atoms: S_2  and  C_26
REMARK    3  A    between atoms: N_7  and  C_16
REMARK    4  A    between atoms: C_9  and  C_13
REMARK    5  A    between atoms: C_10  and  C_16
REMARK    6  A    between atoms: C_12  and  C_17
REMARK    7  A    between atoms: C_13  and  C_18
REMARK    8  A    between atoms: C_13  and  C_19
REMARK    9  A    between atoms: C_14  and  C_20
REMARK   10  A    between atoms: C_17  and  C_21
REMARK                            x       y       z     vdW  Elec       q    Type
REMARK                         _______ _______ _______ _____ _____    ______ ____
ROOT
ATOM      9  C   UNL     1     -10.146  -8.298   7.915  0.00  0.00    +0.000 C 
ATOM     10  C   UNL     1      -8.788  -7.557   7.843  0.00  0.00    +0.030 C 
ATOM     11  C   UNL     1     -11.282  -7.384   7.432  0.00  0.00    +0.012 C 
ATOM     12  C   UNL     1     -11.386  -6.093   8.265  0.00  0.00    +0.023 C 
ATOM     14  C   UNL     1     -10.032  -5.441   8.465  0.00  0.00    -0.073 C 
ATOM     15  C   UNL     1      -8.882  -6.108   8.258  0.00  0.00    -0.023 C 
ATOM     20  C   UNL     1     -10.031  -3.992   8.864  0.00  0.00    +0.039 C 
ENDROOT
BRANCH   9  13
ATOM     13  C   UNL     1     -10.134  -9.591   7.092  0.00  0.00    -0.013 C 
ATOM     18  C   UNL     1     -11.540 -10.172   6.995  0.00  0.00    +0.007 C 
ATOM     19  C   UNL     1      -9.558  -9.332   5.705  0.00  0.00    +0.007 C 
ENDBRANCH   9  13
BRANCH  10  16
ATOM     16  C   UNL     1      -7.726  -8.264   8.693  0.00  0.00    +0.113 C 
BRANCH  16   7
ATOM      7  N   UNL     1      -6.570  -8.591   7.844  0.00  0.00    -0.189 NA
ATOM     32  H   UNL     1      -6.401  -7.967   7.045  0.00  0.00    +0.148 HD
BRANCH   7   2
ATOM      2  S   UNL     1      -6.044 -10.205   7.696  0.00  0.00    +0.058 S 
ATOM      5  O   UNL     1      -5.382 -10.377   6.417  0.00  0.00    -0.153 OA
ATOM      6  O   UNL     1      -7.123 -11.093   8.084  0.00  0.00    -0.153 OA
BRANCH   2  26
ATOM      1 CL   UNL     1      -1.681 -10.545  12.197  0.00  0.00    -0.084 Cl
ATOM     26  C   UNL     1      -4.816 -10.301   8.964  0.00  0.00    +0.105 A 
ATOM     27  C   UNL     1      -4.075  -9.169   9.303  0.00  0.00    +0.030 A 
ATOM     28  C   UNL     1      -4.588 -11.508   9.624  0.00  0.00    +0.030 A 
ATOM     29  C   UNL     1      -3.105  -9.244  10.302  0.00  0.00    +0.022 A 
ATOM     30  C   UNL     1      -3.619 -11.583  10.624  0.00  0.00    +0.022 A 
ATOM     31  C   UNL     1      -2.877 -10.451  10.964  0.00  0.00    +0.041 A 
ENDBRANCH   2  26
ENDBRANCH   7   2
ENDBRANCH  16   7
ENDBRANCH  10  16
BRANCH  12  17
ATOM     17  C   UNL     1     -12.072  -6.357   9.611  0.00  0.00    +0.103 C 
BRANCH  17  21
ATOM      3  O   UNL     1     -14.220  -5.642   8.907  0.00  0.00    -0.276 OA
ATOM      4  O   UNL     1     -13.814  -3.341  13.266  0.00  0.00    -0.377 OA
ATOM      8  N   UNL     1     -13.346  -4.604  10.790  0.00  0.00    -0.297 N 
ATOM     21  C   UNL     1     -13.311  -5.506   9.729  0.00  0.00    +0.216 C 
ATOM     22  C   UNL     1     -14.512  -3.743  10.982  0.00  0.00    +0.136 C 
ATOM     23  C   UNL     1     -12.236  -4.327  11.709  0.00  0.00    +0.136 C 
ATOM     24  C   UNL     1     -14.923  -3.723  12.448  0.00  0.00    +0.179 C 
ATOM     25  C   UNL     1     -12.740  -4.277  13.146  0.00  0.00    +0.179 C 
ENDBRANCH  17  21
ENDBRANCH  12  17
TORSDOF 7
ENDMDL
