MODEL 1
REMARK VINA RESULT:      -6.3      0.000      0.000
REMARK  Name = 26742478
REMARK  9 active torsions:
REMARK  status: ('A' for Active; 'I' for Inactive)
REMARK    1  A    between atoms: N_3  and  C_14
REMARK    2  A    between atoms: N_6  and  C_30
REMARK    3  A    between atoms: N_6  and  C_31
REMARK    4  A    between atoms: N_6  and  C_32
REMARK    5  A    between atoms: C_8  and  C_15
REMARK    6  A    between atoms: C_9  and  C_14
REMARK    7  A    between atoms: C_16  and  C_18
REMARK    8  A    between atoms: C_22  and  C_24
REMARK    9  A    between atoms: C_23  and  C_25
REMARK                            x       y       z     vdW  Elec       q    Type
REMARK                         _______ _______ _______ _____ _____    ______ ____
ROOT
ATOM      2  N   UNL     1      -7.527 -11.564  17.883  0.00  0.00    -0.297 NA
ATOM      7  C   UNL     1      -5.000 -11.466  18.509  0.00  0.00    +0.002 C 
ATOM      8  C   UNL     1      -5.303 -10.516  17.317  0.00  0.00    +0.055 C 
ATOM      9  C   UNL     1      -6.973 -12.940  17.978  0.00  0.00    +0.074 C 
ATOM     10  C   UNL     1      -5.438 -12.899  18.143  0.00  0.00    +0.024 C 
ATOM     11  C   UNL     1      -5.893 -11.005  19.682  0.00  0.00    +0.019 C 
ATOM     12  C   UNL     1      -6.770 -10.779  16.875  0.00  0.00    +0.094 C 
ATOM     13  C   UNL     1      -7.352 -10.911  19.203  0.00  0.00    +0.085 C 
ENDROOT
BRANCH   8  15
ATOM      4  N   UNL     1      -3.021 -10.544  16.435  0.00  0.00    -0.237 NA
ATOM      5  N   UNL     1      -2.557 -10.501  14.071  0.00  0.00    -0.232 NA
ATOM     15  C   UNL     1      -4.337 -10.511  16.141  0.00  0.00    +0.050 A 
ATOM     17  C   UNL     1      -4.834 -10.473  14.853  0.00  0.00    +0.052 A 
ATOM     22  C   UNL     1      -3.887 -10.470  13.849  0.00  0.00    +0.075 A 
ATOM     23  C   UNL     1      -2.199 -10.536  15.369  0.00  0.00    +0.127 A 
ATOM     25  C   UNL     1      -0.735 -10.570  15.656  0.00  0.00    +0.088 C 
BRANCH  22  24
ATOM     24  C   UNL     1      -4.277 -10.431  12.459  0.00  0.00    +0.001 A 
ATOM     26  C   UNL     1      -3.339 -10.701  11.464  0.00  0.00    +0.012 A 
ATOM     27  C   UNL     1      -5.592 -10.120  12.113  0.00  0.00    +0.012 A 
ATOM     28  C   UNL     1      -3.716 -10.662  10.121  0.00  0.00    +0.024 A 
ATOM     29  C   UNL     1      -5.969 -10.082  10.770  0.00  0.00    +0.024 A 
ATOM     30  C   UNL     1      -5.031 -10.353   9.774  0.00  0.00    +0.029 A 
BRANCH  30   6
ATOM      6  N   UNL     1      -5.413 -10.312   8.417  0.00  0.00    -0.336 N 
ATOM     31  C   UNL     1      -4.791 -11.200   7.454  0.00  0.00    +0.129 C 
ATOM     32  C   UNL     1      -6.437  -9.390   7.969  0.00  0.00    +0.129 C 
ENDBRANCH  30   6
ENDBRANCH  22  24
ENDBRANCH   8  15
BRANCH   9  14
ATOM     14  C   UNL     1      -7.397 -13.821  16.801  0.00  0.00    +0.123 C 
BRANCH  14   3
ATOM      1  O   UNL     1      -6.842 -13.262  14.040  0.00  0.00    -0.276 OA
ATOM      3  N   UNL     1      -6.258 -14.252  16.050  0.00  0.00    -0.314 N 
ATOM     18  C   UNL     1      -6.053 -13.942  14.705  0.00  0.00    +0.216 C 
ATOM     33  H   UNL     1      -5.563 -14.821  16.526  0.00  0.00    +0.149 HD
BRANCH  18  16
ATOM     16  C   UNL     1      -4.757 -14.532  14.121  0.00  0.00    +0.075 C 
ATOM     19  C   UNL     1      -4.328 -14.054  12.718  0.00  0.00    +0.013 C 
ATOM     20  C   UNL     1      -3.420 -13.961  14.640  0.00  0.00    +0.013 C 
ATOM     21  C   UNL     1      -2.870 -14.158  13.211  0.00  0.00    +0.001 C 
ENDBRANCH  18  16
ENDBRANCH  14   3
ENDBRANCH   9  14
TORSDOF 6
ENDMDL
MODEL 2
REMARK VINA RESULT:      -6.2     26.014     29.642
REMARK  Name = 26742478
REMARK  9 active torsions:
REMARK  status: ('A' for Active; 'I' for Inactive)
REMARK    1  A    between atoms: N_3  and  C_14
REMARK    2  A    between atoms: N_6  and  C_30
REMARK    3  A    between atoms: N_6  and  C_31
REMARK    4  A    between atoms: N_6  and  C_32
REMARK    5  A    between atoms: C_8  and  C_15
REMARK    6  A    between atoms: C_9  and  C_14
REMARK    7  A    between atoms: C_16  and  C_18
REMARK    8  A    between atoms: C_22  and  C_24
REMARK    9  A    between atoms: C_23  and  C_25
REMARK                            x       y       z     vdW  Elec       q    Type
REMARK                         _______ _______ _______ _____ _____    ______ ____
ROOT
ATOM      2  N   UNL     1      11.136   8.471  21.174  0.00  0.00    -0.297 NA
ATOM      7  C   UNL     1      12.909   6.606  20.767  0.00  0.00    +0.002 C 
ATOM      8  C   UNL     1      13.496   7.727  21.667  0.00  0.00    +0.055 C 
ATOM      9  C   UNL     1      11.234   8.171  19.722  0.00  0.00    +0.074 C 
ATOM     10  C   UNL     1      12.419   7.222  19.439  0.00  0.00    +0.024 C 
ATOM     11  C   UNL     1      11.665   6.055  21.497  0.00  0.00    +0.019 C 
ATOM     12  C   UNL     1      12.462   8.888  21.697  0.00  0.00    +0.094 C 
ATOM     13  C   UNL     1      10.736   7.224  21.870  0.00  0.00    +0.085 C 
ENDROOT
BRANCH   8  15
ATOM      4  N   UNL     1      15.050   9.535  21.117  0.00  0.00    -0.237 NA
ATOM      5  N   UNL     1      17.413   9.156  20.837  0.00  0.00    -0.232 NA
ATOM     15  C   UNL     1      14.907   8.218  21.374  0.00  0.00    +0.050 A 
ATOM     17  C   UNL     1      15.955   7.320  21.380  0.00  0.00    +0.052 A 
ATOM     22  C   UNL     1      17.198   7.852  21.103  0.00  0.00    +0.075 A 
ATOM     23  C   UNL     1      16.311   9.930  20.861  0.00  0.00    +0.127 A 
ATOM     25  C   UNL     1      16.509  11.380  20.571  0.00  0.00    +0.088 C 
BRANCH  22  24
ATOM     24  C   UNL     1      18.375   7.017  21.077  0.00  0.00    +0.001 A 
ATOM     26  C   UNL     1      18.499   6.015  20.115  0.00  0.00    +0.012 A 
ATOM     27  C   UNL     1      19.388   7.211  22.016  0.00  0.00    +0.012 A 
ATOM     28  C   UNL     1      19.638   5.209  20.090  0.00  0.00    +0.024 A 
ATOM     29  C   UNL     1      20.526   6.404  21.992  0.00  0.00    +0.024 A 
ATOM     30  C   UNL     1      20.651   5.403  21.029  0.00  0.00    +0.029 A 
BRANCH  30   6
ATOM      6  N   UNL     1      21.801   4.587  21.006  0.00  0.00    -0.336 N 
ATOM     31  C   UNL     1      23.047   5.092  20.464  0.00  0.00    +0.129 C 
ATOM     32  C   UNL     1      21.755   3.237  21.531  0.00  0.00    +0.129 C 
ENDBRANCH  30   6
ENDBRANCH  22  24
ENDBRANCH   8  15
BRANCH   9  14
ATOM     14  C   UNL     1      11.303   9.439  18.868  0.00  0.00    +0.123 C 
BRANCH  14   3
ATOM      1  O   UNL     1      13.362  11.438  18.778  0.00  0.00    -0.276 OA
ATOM      3  N   UNL     1      12.469   9.433  18.039  0.00  0.00    -0.314 N 
ATOM     18  C   UNL     1      13.432  10.443  18.048  0.00  0.00    +0.216 C 
ATOM     33  H   UNL     1      12.596   8.649  17.405  0.00  0.00    +0.149 HD
BRANCH  18  16
ATOM     16  C   UNL     1      14.587  10.210  17.057  0.00  0.00    +0.075 C 
ATOM     19  C   UNL     1      14.276   9.400  15.782  0.00  0.00    +0.013 C 
ATOM     20  C   UNL     1      14.972  11.381  16.127  0.00  0.00    +0.013 C 
ATOM     21  C   UNL     1      15.270  10.321  15.045  0.00  0.00    +0.001 C 
ENDBRANCH  18  16
ENDBRANCH  14   3
ENDBRANCH   9  14
TORSDOF 6
ENDMDL
MODEL 3
REMARK VINA RESULT:      -6.1     26.497     29.586
REMARK  Name = 26742478
REMARK  9 active torsions:
REMARK  status: ('A' for Active; 'I' for Inactive)
REMARK    1  A    between atoms: N_3  and  C_14
REMARK    2  A    between atoms: N_6  and  C_30
REMARK    3  A    between atoms: N_6  and  C_31
REMARK    4  A    between atoms: N_6  and  C_32
REMARK    5  A    between atoms: C_8  and  C_15
REMARK    6  A    between atoms: C_9  and  C_14
REMARK    7  A    between atoms: C_16  and  C_18
REMARK    8  A    between atoms: C_22  and  C_24
REMARK    9  A    between atoms: C_23  and  C_25
REMARK                            x       y       z     vdW  Elec       q    Type
REMARK                         _______ _______ _______ _____ _____    ______ ____
ROOT
ATOM      2  N   UNL     1      11.583   7.255  20.399  0.00  0.00    -0.297 NA
ATOM      7  C   UNL     1      12.021   9.144  22.138  0.00  0.00    +0.002 C 
ATOM      8  C   UNL     1      11.555   9.748  20.785  0.00  0.00    +0.055 C 
ATOM      9  C   UNL     1      12.916   7.067  21.029  0.00  0.00    +0.074 C 
ATOM     10  C   UNL     1      13.281   8.284  21.907  0.00  0.00    +0.024 C 
ATOM     11  C   UNL     1      10.902   8.190  22.609  0.00  0.00    +0.019 C 
ATOM     12  C   UNL     1      11.511   8.589  19.750  0.00  0.00    +0.094 C 
ATOM     13  C   UNL     1      10.562   7.208  21.474  0.00  0.00    +0.085 C 
ENDROOT
BRANCH   8  15
ATOM      4  N   UNL     1      12.065  12.139  20.886  0.00  0.00    -0.237 NA
ATOM      5  N   UNL     1      13.582  13.195  19.340  0.00  0.00    -0.232 NA
ATOM     15  C   UNL     1      12.292  10.969  20.253  0.00  0.00    +0.050 A 
ATOM     17  C   UNL     1      13.138  10.835  19.171  0.00  0.00    +0.052 A 
ATOM     22  C   UNL     1      13.763  11.993  18.755  0.00  0.00    +0.075 A 
ATOM     23  C   UNL     1      12.732  13.196  20.385  0.00  0.00    +0.127 A 
ATOM     25  C   UNL     1      12.506  14.507  21.059  0.00  0.00    +0.088 C 
BRANCH  22  24
ATOM     24  C   UNL     1      14.671  11.987  17.633  0.00  0.00    +0.001 A 
ATOM     26  C   UNL     1      14.407  11.182  16.526  0.00  0.00    +0.012 A 
ATOM     27  C   UNL     1      15.815  12.785  17.658  0.00  0.00    +0.012 A 
ATOM     28  C   UNL     1      15.285  11.176  15.442  0.00  0.00    +0.024 A 
ATOM     29  C   UNL     1      16.694  12.779  16.574  0.00  0.00    +0.024 A 
ATOM     30  C   UNL     1      16.428  11.974  15.466  0.00  0.00    +0.029 A 
BRANCH  30   6
ATOM      6  N   UNL     1      17.318  11.968  14.371  0.00  0.00    -0.336 N 
ATOM     31  C   UNL     1      18.726  11.688  14.573  0.00  0.00    +0.129 C 
ATOM     32  C   UNL     1      16.835  12.231  13.031  0.00  0.00    +0.129 C 
ENDBRANCH  30   6
ENDBRANCH  22  24
ENDBRANCH   8  15
BRANCH   9  14
ATOM     14  C   UNL     1      14.007   6.757  20.002  0.00  0.00    +0.123 C 
BRANCH  14   3
ATOM      1  O   UNL     1      16.457   5.796  18.854  0.00  0.00    -0.276 OA
ATOM      3  N   UNL     1      15.300   6.757  20.614  0.00  0.00    -0.314 N 
ATOM     18  C   UNL     1      16.452   6.272  19.994  0.00  0.00    +0.216 C 
ATOM     33  H   UNL     1      15.378   7.128  21.557  0.00  0.00    +0.149 HD
BRANCH  18  16
ATOM     16  C   UNL     1      17.718   6.373  20.865  0.00  0.00    +0.075 C 
ATOM     19  C   UNL     1      19.061   5.988  20.213  0.00  0.00    +0.013 C 
ATOM     20  C   UNL     1      18.316   7.779  21.087  0.00  0.00    +0.013 C 
ATOM     21  C   UNL     1      19.705   7.107  21.057  0.00  0.00    +0.001 C 
ENDBRANCH  18  16
ENDBRANCH  14   3
ENDBRANCH   9  14
TORSDOF 6
ENDMDL
MODEL 4
REMARK VINA RESULT:      -5.8     23.883     26.638
REMARK  Name = 26742478
REMARK  9 active torsions:
REMARK  status: ('A' for Active; 'I' for Inactive)
REMARK    1  A    between atoms: N_3  and  C_14
REMARK    2  A    between atoms: N_6  and  C_30
REMARK    3  A    between atoms: N_6  and  C_31
REMARK    4  A    between atoms: N_6  and  C_32
REMARK    5  A    between atoms: C_8  and  C_15
REMARK    6  A    between atoms: C_9  and  C_14
REMARK    7  A    between atoms: C_16  and  C_18
REMARK    8  A    between atoms: C_22  and  C_24
REMARK    9  A    between atoms: C_23  and  C_25
REMARK                            x       y       z     vdW  Elec       q    Type
REMARK                         _______ _______ _______ _____ _____    ______ ____
ROOT
ATOM      2  N   UNL     1       9.863   6.941   7.621  0.00  0.00    -0.297 NA
ATOM      7  C   UNL     1       9.865   5.059   5.820  0.00  0.00    +0.002 C 
ATOM      8  C   UNL     1      11.138   5.940   5.688  0.00  0.00    +0.055 C 
ATOM      9  C   UNL     1       8.559   6.918   6.909  0.00  0.00    +0.074 C 
ATOM     10  C   UNL     1       8.612   5.953   5.705  0.00  0.00    +0.024 C 
ATOM     11  C   UNL     1       9.875   4.475   7.250  0.00  0.00    +0.019 C 
ATOM     12  C   UNL     1      10.968   7.149   6.651  0.00  0.00    +0.094 C 
ATOM     13  C   UNL     1      10.054   5.618   8.263  0.00  0.00    +0.085 C 
ENDROOT
BRANCH   8  15
ATOM      4  N   UNL     1      12.058   7.621   4.167  0.00  0.00    -0.237 NA
ATOM      5  N   UNL     1      12.362   7.197   1.815  0.00  0.00    -0.232 NA
ATOM     15  C   UNL     1      11.571   6.369   4.293  0.00  0.00    +0.050 A 
ATOM     17  C   UNL     1      11.451   5.484   3.241  0.00  0.00    +0.052 A 
ATOM     22  C   UNL     1      11.867   5.958   2.013  0.00  0.00    +0.075 A 
ATOM     23  C   UNL     1      12.429   7.965   2.919  0.00  0.00    +0.127 A 
ATOM     25  C   UNL     1      12.971   9.343   2.741  0.00  0.00    +0.088 C 
BRANCH  22  24
ATOM     24  C   UNL     1      11.791   5.131   0.832  0.00  0.00    +0.001 A 
ATOM     26  C   UNL     1      10.802   5.366  -0.122  0.00  0.00    +0.012 A 
ATOM     27  C   UNL     1      12.707   4.095   0.646  0.00  0.00    +0.012 A 
ATOM     28  C   UNL     1      10.729   4.566  -1.263  0.00  0.00    +0.024 A 
ATOM     29  C   UNL     1      12.635   3.296  -0.494  0.00  0.00    +0.024 A 
ATOM     30  C   UNL     1      11.645   3.531  -1.449  0.00  0.00    +0.029 A 
BRANCH  30   6
ATOM      6  N   UNL     1      11.571   2.721  -2.601  0.00  0.00    -0.336 N 
ATOM     31  C   UNL     1      12.617   2.777  -3.604  0.00  0.00    +0.129 C 
ATOM     32  C   UNL     1      10.455   1.817  -2.794  0.00  0.00    +0.129 C 
ENDBRANCH  30   6
ENDBRANCH  22  24
ENDBRANCH   8  15
BRANCH   9  14
ATOM     14  C   UNL     1       8.093   8.316   6.499  0.00  0.00    +0.123 C 
BRANCH  14   3
ATOM      1  O   UNL     1       9.680   9.938   4.739  0.00  0.00    -0.276 OA
ATOM      3  N   UNL     1       7.967   8.416   5.078  0.00  0.00    -0.314 N 
ATOM     18  C   UNL     1       8.777   9.228   4.283  0.00  0.00    +0.216 C 
ATOM     33  H   UNL     1       7.242   7.865   4.626  0.00  0.00    +0.149 HD
BRANCH  18  16
ATOM     16  C   UNL     1       8.436   9.168   2.782  0.00  0.00    +0.075 C 
ATOM     19  C   UNL     1       9.375   9.912   1.811  0.00  0.00    +0.013 C 
ATOM     20  C   UNL     1       8.798   7.874   2.023  0.00  0.00    +0.013 C 
ATOM     21  C   UNL     1       9.115   8.770   0.806  0.00  0.00    +0.001 C 
ENDBRANCH  18  16
ENDBRANCH  14   3
ENDBRANCH   9  14
TORSDOF 6
ENDMDL
MODEL 5
REMARK VINA RESULT:      -5.8     23.872     26.626
REMARK  Name = 26742478
REMARK  9 active torsions:
REMARK  status: ('A' for Active; 'I' for Inactive)
REMARK    1  A    between atoms: N_3  and  C_14
REMARK    2  A    between atoms: N_6  and  C_30
REMARK    3  A    between atoms: N_6  and  C_31
REMARK    4  A    between atoms: N_6  and  C_32
REMARK    5  A    between atoms: C_8  and  C_15
REMARK    6  A    between atoms: C_9  and  C_14
REMARK    7  A    between atoms: C_16  and  C_18
REMARK    8  A    between atoms: C_22  and  C_24
REMARK    9  A    between atoms: C_23  and  C_25
REMARK                            x       y       z     vdW  Elec       q    Type
REMARK                         _______ _______ _______ _____ _____    ______ ____
ROOT
ATOM      2  N   UNL     1      10.631   5.248   7.930  0.00  0.00    -0.297 NA
ATOM      7  C   UNL     1       9.259   7.364   7.280  0.00  0.00    +0.002 C 
ATOM      8  C   UNL     1       9.059   6.241   6.225  0.00  0.00    +0.055 C 
ATOM      9  C   UNL     1      11.498   6.453   7.987  0.00  0.00    +0.074 C 
ATOM     10  C   UNL     1      10.763   7.682   7.409  0.00  0.00    +0.024 C 
ATOM     11  C   UNL     1       8.799   6.786   8.636  0.00  0.00    +0.019 C 
ATOM     12  C   UNL     1      10.056   5.099   6.569  0.00  0.00    +0.094 C 
ATOM     13  C   UNL     1       9.513   5.447   8.885  0.00  0.00    +0.085 C 
ENDROOT
BRANCH   8  15
ATOM      4  N   UNL     1       8.373   7.693   4.379  0.00  0.00    -0.237 NA
ATOM      5  N   UNL     1       9.147   7.354   2.123  0.00  0.00    -0.232 NA
ATOM     15  C   UNL     1       9.105   6.623   4.752  0.00  0.00    +0.050 A 
ATOM     17  C   UNL     1       9.873   5.878   3.880  0.00  0.00    +0.052 A 
ATOM     22  C   UNL     1       9.855   6.295   2.564  0.00  0.00    +0.075 A 
ATOM     23  C   UNL     1       8.438   7.999   3.070  0.00  0.00    +0.127 A 
ATOM     25  C   UNL     1       7.641   9.176   2.620  0.00  0.00    +0.088 C 
BRANCH  22  24
ATOM     24  C   UNL     1      10.614   5.599   1.553  0.00  0.00    +0.001 A 
ATOM     26  C   UNL     1      11.488   4.575   1.918  0.00  0.00    +0.012 A 
ATOM     27  C   UNL     1      10.475   5.952   0.211  0.00  0.00    +0.012 A 
ATOM     28  C   UNL     1      12.222   3.903   0.940  0.00  0.00    +0.024 A 
ATOM     29  C   UNL     1      11.209   5.279  -0.767  0.00  0.00    +0.024 A 
ATOM     30  C   UNL     1      12.083   4.255  -0.402  0.00  0.00    +0.029 A 
BRANCH  30   6
ATOM      6  N   UNL     1      12.825   3.577  -1.391  0.00  0.00    -0.336 N 
ATOM     31  C   UNL     1      14.161   4.020  -1.738  0.00  0.00    +0.129 C 
ATOM     32  C   UNL     1      12.266   2.423  -2.067  0.00  0.00    +0.129 C 
ENDBRANCH  30   6
ENDBRANCH  22  24
ENDBRANCH   8  15
BRANCH   9  14
ATOM     14  C   UNL     1      12.853   6.229   7.312  0.00  0.00    +0.123 C 
BRANCH  14   3
ATOM      1  O   UNL     1      15.127   7.609   6.232  0.00  0.00    -0.276 OA
ATOM      3  N   UNL     1      12.922   6.923   6.063  0.00  0.00    -0.314 N 
ATOM     18  C   UNL     1      14.066   7.574   5.600  0.00  0.00    +0.216 C 
ATOM     33  H   UNL     1      12.086   6.944   5.485  0.00  0.00    +0.149 HD
BRANCH  18  16
ATOM     16  C   UNL     1      13.883   8.255   4.231  0.00  0.00    +0.075 C 
ATOM     19  C   UNL     1      13.840   7.346   2.986  0.00  0.00    +0.013 C 
ATOM     20  C   UNL     1      12.459   8.714   3.851  0.00  0.00    +0.013 C 
ATOM     21  C   UNL     1      12.807   8.329   2.397  0.00  0.00    +0.001 C 
ENDBRANCH  18  16
ENDBRANCH  14   3
ENDBRANCH   9  14
TORSDOF 6
ENDMDL
MODEL 6
REMARK VINA RESULT:      -5.6      2.009      7.094
REMARK  Name = 26742478
REMARK  9 active torsions:
REMARK  status: ('A' for Active; 'I' for Inactive)
REMARK    1  A    between atoms: N_3  and  C_14
REMARK    2  A    between atoms: N_6  and  C_30
REMARK    3  A    between atoms: N_6  and  C_31
REMARK    4  A    between atoms: N_6  and  C_32
REMARK    5  A    between atoms: C_8  and  C_15
REMARK    6  A    between atoms: C_9  and  C_14
REMARK    7  A    between atoms: C_16  and  C_18
REMARK    8  A    between atoms: C_22  and  C_24
REMARK    9  A    between atoms: C_23  and  C_25
REMARK                            x       y       z     vdW  Elec       q    Type
REMARK                         _______ _______ _______ _____ _____    ______ ____
ROOT
ATOM      2  N   UNL     1      -5.332 -11.539  10.333  0.00  0.00    -0.297 NA
ATOM      7  C   UNL     1      -4.196  -9.426  11.349  0.00  0.00    +0.002 C 
ATOM      8  C   UNL     1      -3.632 -10.716  12.006  0.00  0.00    +0.055 C 
ATOM      9  C   UNL     1      -6.366 -10.552  10.742  0.00  0.00    +0.074 C 
ATOM     10  C   UNL     1      -5.729  -9.388  11.530  0.00  0.00    +0.024 C 
ATOM     11  C   UNL     1      -3.923  -9.543   9.833  0.00  0.00    +0.019 C 
ATOM     12  C   UNL     1      -4.493 -11.908  11.501  0.00  0.00    +0.094 C 
ATOM     13  C   UNL     1      -4.460 -10.891   9.324  0.00  0.00    +0.085 C 
ENDROOT
BRANCH   8  15
ATOM      4  N   UNL     1      -2.215 -10.472  13.986  0.00  0.00    -0.237 NA
ATOM      5  N   UNL     1      -3.073 -10.749  16.220  0.00  0.00    -0.232 NA
ATOM     15  C   UNL     1      -3.454 -10.732  13.518  0.00  0.00    +0.050 A 
ATOM     17  C   UNL     1      -4.538 -11.005  14.328  0.00  0.00    +0.052 A 
ATOM     22  C   UNL     1      -4.285 -11.000  15.684  0.00  0.00    +0.075 A 
ATOM     23  C   UNL     1      -2.097 -10.497  15.327  0.00  0.00    +0.127 A 
ATOM     25  C   UNL     1      -0.742 -10.217  15.881  0.00  0.00    +0.088 C 
BRANCH  22  24
ATOM     24  C   UNL     1      -5.334 -11.272  16.638  0.00  0.00    +0.001 A 
ATOM     26  C   UNL     1      -6.295 -12.243  16.359  0.00  0.00    +0.012 A 
ATOM     27  C   UNL     1      -5.387 -10.563  17.838  0.00  0.00    +0.012 A 
ATOM     28  C   UNL     1      -7.309 -12.506  17.280  0.00  0.00    +0.024 A 
ATOM     29  C   UNL     1      -6.400 -10.826  18.760  0.00  0.00    +0.024 A 
ATOM     30  C   UNL     1      -7.362 -11.798  18.480  0.00  0.00    +0.029 A 
BRANCH  30   6
ATOM      6  N   UNL     1      -8.387 -12.062  19.412  0.00  0.00    -0.336 N 
ATOM     31  C   UNL     1      -8.450 -13.343  20.089  0.00  0.00    +0.129 C 
ATOM     32  C   UNL     1      -9.385 -11.056  19.712  0.00  0.00    +0.129 C 
ENDBRANCH  30   6
ENDBRANCH  22  24
ENDBRANCH   8  15
BRANCH   9  14
ATOM     14  C   UNL     1      -7.518 -11.201  11.513  0.00  0.00    +0.123 C 
BRANCH  14   3
ATOM      1  O   UNL     1      -9.768 -11.622  13.245  0.00  0.00    -0.276 OA
ATOM      3  N   UNL     1      -7.910 -10.388  12.622  0.00  0.00    -0.314 N 
ATOM     18  C   UNL     1      -9.021 -10.654  13.424  0.00  0.00    +0.216 C 
ATOM     33  H   UNL     1      -7.348  -9.568  12.833  0.00  0.00    +0.149 HD
BRANCH  18  16
ATOM     16  C   UNL     1      -9.238  -9.625  14.549  0.00  0.00    +0.075 C 
ATOM     19  C   UNL     1      -9.884 -10.128  15.856  0.00  0.00    +0.013 C 
ATOM     20  C   UNL     1      -8.010  -9.230  15.397  0.00  0.00    +0.013 C 
ATOM     21  C   UNL     1      -8.970  -9.132  16.601  0.00  0.00    +0.001 C 
ENDBRANCH  18  16
ENDBRANCH  14   3
ENDBRANCH   9  14
TORSDOF 6
ENDMDL
MODEL 7
REMARK VINA RESULT:      -5.6     23.750     26.344
REMARK  Name = 26742478
REMARK  9 active torsions:
REMARK  status: ('A' for Active; 'I' for Inactive)
REMARK    1  A    between atoms: N_3  and  C_14
REMARK    2  A    between atoms: N_6  and  C_30
REMARK    3  A    between atoms: N_6  and  C_31
REMARK    4  A    between atoms: N_6  and  C_32
REMARK    5  A    between atoms: C_8  and  C_15
REMARK    6  A    between atoms: C_9  and  C_14
REMARK    7  A    between atoms: C_16  and  C_18
REMARK    8  A    between atoms: C_22  and  C_24
REMARK    9  A    between atoms: C_23  and  C_25
REMARK                            x       y       z     vdW  Elec       q    Type
REMARK                         _______ _______ _______ _____ _____    ______ ____
ROOT
ATOM      2  N   UNL     1       9.465   5.133   6.070  0.00  0.00    -0.297 NA
ATOM      7  C   UNL     1      10.532   7.380   6.845  0.00  0.00    +0.002 C 
ATOM      8  C   UNL     1       9.013   7.562   6.579  0.00  0.00    +0.055 C 
ATOM      9  C   UNL     1      10.685   5.420   5.269  0.00  0.00    +0.074 C 
ATOM     10  C   UNL     1      11.213   6.840   5.570  0.00  0.00    +0.024 C 
ATOM     11  C   UNL     1      10.665   6.286   7.928  0.00  0.00    +0.019 C 
ATOM     12  C   UNL     1       8.494   6.248   5.932  0.00  0.00    +0.094 C 
ATOM     13  C   UNL     1       9.867   5.044   7.494  0.00  0.00    +0.085 C 
ENDROOT
BRANCH   8  15
ATOM      4  N   UNL     1       8.968   9.992   6.296  0.00  0.00    -0.237 NA
ATOM      5  N   UNL     1       7.782  11.053   4.486  0.00  0.00    -0.232 NA
ATOM     15  C   UNL     1       8.562   8.799   5.814  0.00  0.00    +0.050 A 
ATOM     17  C   UNL     1       7.776   8.654   4.689  0.00  0.00    +0.052 A 
ATOM     22  C   UNL     1       7.413   9.828   4.060  0.00  0.00    +0.075 A 
ATOM     23  C   UNL     1       8.547  11.062   5.594  0.00  0.00    +0.127 A 
ATOM     25  C   UNL     1       8.975  12.399   6.098  0.00  0.00    +0.088 C 
BRANCH  22  24
ATOM     24  C   UNL     1       6.591   9.812   2.873  0.00  0.00    +0.001 A 
ATOM     26  C   UNL     1       5.223  10.067   2.969  0.00  0.00    +0.012 A 
ATOM     27  C   UNL     1       7.165   9.541   1.631  0.00  0.00    +0.012 A 
ATOM     28  C   UNL     1       4.429  10.051   1.822  0.00  0.00    +0.024 A 
ATOM     29  C   UNL     1       6.371   9.525   0.484  0.00  0.00    +0.024 A 
ATOM     30  C   UNL     1       5.002   9.780   0.580  0.00  0.00    +0.029 A 
BRANCH  30   6
ATOM      6  N   UNL     1       4.200   9.763  -0.580  0.00  0.00    -0.336 N 
ATOM     31  C   UNL     1       4.606   8.995  -1.741  0.00  0.00    +0.129 C 
ATOM     32  C   UNL     1       2.956  10.506  -0.624  0.00  0.00    +0.129 C 
ENDBRANCH  30   6
ENDBRANCH  22  24
ENDBRANCH   8  15
BRANCH   9  14
ATOM     14  C   UNL     1      10.464   5.199   3.772  0.00  0.00    +0.123 C 
BRANCH  14   3
ATOM      1  O   UNL     1      10.602   3.884   1.223  0.00  0.00    -0.276 OA
ATOM      3  N   UNL     1      11.625   4.625   3.164  0.00  0.00    -0.314 N 
ATOM     18  C   UNL     1      11.618   3.999   1.917  0.00  0.00    +0.216 C 
ATOM     33  H   UNL     1      12.502   4.675   3.675  0.00  0.00    +0.149 HD
BRANCH  18  16
ATOM     16  C   UNL     1      12.993   3.454   1.487  0.00  0.00    +0.075 C 
ATOM     19  C   UNL     1      13.314   3.448  -0.022  0.00  0.00    +0.013 C 
ATOM     20  C   UNL     1      14.213   4.383   1.665  0.00  0.00    +0.013 C 
ATOM     21  C   UNL     1      14.773   3.769   0.365  0.00  0.00    +0.001 C 
ENDBRANCH  18  16
ENDBRANCH  14   3
ENDBRANCH   9  14
TORSDOF 6
ENDMDL
MODEL 8
REMARK VINA RESULT:      -5.5      2.188      3.735
REMARK  Name = 26742478
REMARK  9 active torsions:
REMARK  status: ('A' for Active; 'I' for Inactive)
REMARK    1  A    between atoms: N_3  and  C_14
REMARK    2  A    between atoms: N_6  and  C_30
REMARK    3  A    between atoms: N_6  and  C_31
REMARK    4  A    between atoms: N_6  and  C_32
REMARK    5  A    between atoms: C_8  and  C_15
REMARK    6  A    between atoms: C_9  and  C_14
REMARK    7  A    between atoms: C_16  and  C_18
REMARK    8  A    between atoms: C_22  and  C_24
REMARK    9  A    between atoms: C_23  and  C_25
REMARK                            x       y       z     vdW  Elec       q    Type
REMARK                         _______ _______ _______ _____ _____    ______ ____
ROOT
ATOM      2  N   UNL     1      -6.551 -12.751  18.440  0.00  0.00    -0.297 NA
ATOM      7  C   UNL     1      -6.402 -10.167  18.145  0.00  0.00    +0.002 C 
ATOM      8  C   UNL     1      -7.721 -10.710  17.529  0.00  0.00    +0.055 C 
ATOM      9  C   UNL     1      -5.232 -12.381  17.864  0.00  0.00    +0.074 C 
ATOM     10  C   UNL     1      -5.201 -10.883  17.491  0.00  0.00    +0.024 C 
ATOM     11  C   UNL     1      -6.410 -10.567  19.636  0.00  0.00    +0.019 C 
ATOM     12  C   UNL     1      -7.644 -12.262  17.561  0.00  0.00    +0.094 C 
ATOM     13  C   UNL     1      -6.679 -12.077  19.755  0.00  0.00    +0.085 C 
ENDROOT
BRANCH   8  15
ATOM      4  N   UNL     1      -9.289  -9.464  16.124  0.00  0.00    -0.237 NA
ATOM      5  N   UNL     1      -8.964  -9.210  13.750  0.00  0.00    -0.232 NA
ATOM     15  C   UNL     1      -8.147 -10.181  16.167  0.00  0.00    +0.050 A 
ATOM     17  C   UNL     1      -7.370 -10.451  15.059  0.00  0.00    +0.052 A 
ATOM     22  C   UNL     1      -7.832  -9.934  13.865  0.00  0.00    +0.075 A 
ATOM     23  C   UNL     1      -9.634  -9.016  14.902  0.00  0.00    +0.127 A 
ATOM     25  C   UNL     1     -10.892  -8.220  14.815  0.00  0.00    +0.088 C 
BRANCH  22  24
ATOM     24  C   UNL     1      -7.110 -10.147  12.633  0.00  0.00    +0.001 A 
ATOM     26  C   UNL     1      -6.384  -9.103  12.061  0.00  0.00    +0.012 A 
ATOM     27  C   UNL     1      -7.142 -11.396  12.014  0.00  0.00    +0.012 A 
ATOM     28  C   UNL     1      -5.687  -9.309  10.870  0.00  0.00    +0.024 A 
ATOM     29  C   UNL     1      -6.445 -11.603  10.823  0.00  0.00    +0.024 A 
ATOM     30  C   UNL     1      -5.718 -10.558  10.251  0.00  0.00    +0.029 A 
BRANCH  30   6
ATOM      6  N   UNL     1      -5.015 -10.767   9.046  0.00  0.00    -0.336 N 
ATOM     31  C   UNL     1      -4.956  -9.724   8.041  0.00  0.00    +0.129 C 
ATOM     32  C   UNL     1      -4.334 -12.023   8.801  0.00  0.00    +0.129 C 
ENDBRANCH  30   6
ENDBRANCH  22  24
ENDBRANCH   8  15
BRANCH   9  14
ATOM     14  C   UNL     1      -4.840 -13.272  16.684  0.00  0.00    +0.123 C 
BRANCH  14   3
ATOM      1  O   UNL     1      -3.018 -13.846  14.541  0.00  0.00    -0.276 OA
ATOM      3  N   UNL     1      -4.630 -12.491  15.503  0.00  0.00    -0.314 N 
ATOM     18  C   UNL     1      -3.724 -12.833  14.499  0.00  0.00    +0.216 C 
ATOM     33  H   UNL     1      -5.171 -11.637  15.396  0.00  0.00    +0.149 HD
BRANCH  18  16
ATOM     16  C   UNL     1      -3.676 -11.825  13.335  0.00  0.00    +0.075 C 
ATOM     19  C   UNL     1      -2.885 -10.520  13.559  0.00  0.00    +0.013 C 
ATOM     20  C   UNL     1      -2.703 -12.127  12.175  0.00  0.00    +0.013 C 
ATOM     21  C   UNL     1      -2.475 -10.603  12.074  0.00  0.00    +0.001 C 
ENDBRANCH  18  16
ENDBRANCH  14   3
ENDBRANCH   9  14
TORSDOF 6
ENDMDL
MODEL 9
REMARK VINA RESULT:      -5.4     26.807     30.414
REMARK  Name = 26742478
REMARK  9 active torsions:
REMARK  status: ('A' for Active; 'I' for Inactive)
REMARK    1  A    between atoms: N_3  and  C_14
REMARK    2  A    between atoms: N_6  and  C_30
REMARK    3  A    between atoms: N_6  and  C_31
REMARK    4  A    between atoms: N_6  and  C_32
REMARK    5  A    between atoms: C_8  and  C_15
REMARK    6  A    between atoms: C_9  and  C_14
REMARK    7  A    between atoms: C_16  and  C_18
REMARK    8  A    between atoms: C_22  and  C_24
REMARK    9  A    between atoms: C_23  and  C_25
REMARK                            x       y       z     vdW  Elec       q    Type
REMARK                         _______ _______ _______ _____ _____    ______ ____
ROOT
ATOM      2  N   UNL     1      13.752  12.027  21.055  0.00  0.00    -0.297 NA
ATOM      7  C   UNL     1      15.432  10.796  22.620  0.00  0.00    +0.002 C 
ATOM      8  C   UNL     1      15.842  10.616  21.133  0.00  0.00    +0.055 C 
ATOM      9  C   UNL     1      13.014  11.172  22.023  0.00  0.00    +0.074 C 
ATOM     10  C   UNL     1      13.991  10.281  22.819  0.00  0.00    +0.024 C 
ATOM     11  C   UNL     1      15.411  12.316  22.895  0.00  0.00    +0.019 C 
ATOM     12  C   UNL     1      14.693  11.198  20.261  0.00  0.00    +0.094 C 
ATOM     13  C   UNL     1      14.544  13.011  21.831  0.00  0.00    +0.085 C 
ENDROOT
BRANCH   8  15
ATOM      4  N   UNL     1      15.474   8.613  19.776  0.00  0.00    -0.237 NA
ATOM      5  N   UNL     1      16.995   6.745  19.806  0.00  0.00    -0.232 NA
ATOM     15  C   UNL     1      16.273   9.232  20.670  0.00  0.00    +0.050 A 
ATOM     17  C   UNL     1      17.434   8.678  21.171  0.00  0.00    +0.052 A 
ATOM     22  C   UNL     1      17.748   7.420  20.698  0.00  0.00    +0.075 A 
ATOM     23  C   UNL     1      15.887   7.391  19.393  0.00  0.00    +0.127 A 
ATOM     25  C   UNL     1      15.027   6.676  18.406  0.00  0.00    +0.088 C 
BRANCH  22  24
ATOM     24  C   UNL     1      18.936   6.732  21.145  0.00  0.00    +0.001 A 
ATOM     26  C   UNL     1      19.494   5.723  20.361  0.00  0.00    +0.012 A 
ATOM     27  C   UNL     1      19.523   7.075  22.363  0.00  0.00    +0.012 A 
ATOM     28  C   UNL     1      20.641   5.057  20.794  0.00  0.00    +0.024 A 
ATOM     29  C   UNL     1      20.670   6.410  22.796  0.00  0.00    +0.024 A 
ATOM     30  C   UNL     1      21.229   5.400  22.011  0.00  0.00    +0.029 A 
BRANCH  30   6
ATOM      6  N   UNL     1      22.388   4.728  22.450  0.00  0.00    -0.336 N 
ATOM     31  C   UNL     1      23.480   5.466  23.055  0.00  0.00    +0.129 C 
ATOM     32  C   UNL     1      22.501   3.290  22.311  0.00  0.00    +0.129 C 
ENDBRANCH  30   6
ENDBRANCH  22  24
ENDBRANCH   8  15
BRANCH   9  14
ATOM     14  C   UNL     1      11.911  10.351  21.351  0.00  0.00    +0.123 C 
BRANCH  14   3
ATOM      1  O   UNL     1      10.593   8.428  19.675  0.00  0.00    -0.276 OA
ATOM      3  N   UNL     1      12.303   9.948  20.037  0.00  0.00    -0.314 N 
ATOM     18  C   UNL     1      11.612   9.003  19.277  0.00  0.00    +0.216 C 
ATOM     33  H   UNL     1      13.136  10.373  19.639  0.00  0.00    +0.149 HD
BRANCH  18  16
ATOM     16  C   UNL     1      12.240   8.734  17.897  0.00  0.00    +0.075 C 
ATOM     19  C   UNL     1      11.317   8.831  16.665  0.00  0.00    +0.013 C 
ATOM     20  C   UNL     1      13.078   9.866  17.265  0.00  0.00    +0.013 C 
ATOM     21  C   UNL     1      12.528   9.404  15.899  0.00  0.00    +0.001 C 
ENDBRANCH  18  16
ENDBRANCH  14   3
ENDBRANCH   9  14
TORSDOF 6
ENDMDL
MODEL 10
REMARK VINA RESULT:      -5.3     23.839     26.693
REMARK  Name = 26742478
REMARK  9 active torsions:
REMARK  status: ('A' for Active; 'I' for Inactive)
REMARK    1  A    between atoms: N_3  and  C_14
REMARK    2  A    between atoms: N_6  and  C_30
REMARK    3  A    between atoms: N_6  and  C_31
REMARK    4  A    between atoms: N_6  and  C_32
REMARK    5  A    between atoms: C_8  and  C_15
REMARK    6  A    between atoms: C_9  and  C_14
REMARK    7  A    between atoms: C_16  and  C_18
REMARK    8  A    between atoms: C_22  and  C_24
REMARK    9  A    between atoms: C_23  and  C_25
REMARK                            x       y       z     vdW  Elec       q    Type
REMARK                         _______ _______ _______ _____ _____    ______ ____
ROOT
ATOM      2  N   UNL     1      12.811   9.683   5.717  0.00  0.00    -0.297 NA
ATOM      7  C   UNL     1      13.956   7.353   5.493  0.00  0.00    +0.002 C 
ATOM      8  C   UNL     1      13.071   7.646   4.251  0.00  0.00    +0.055 C 
ATOM      9  C   UNL     1      12.601   8.892   6.958  0.00  0.00    +0.074 C 
ATOM     10  C   UNL     1      13.091   7.440   6.768  0.00  0.00    +0.024 C 
ATOM     11  C   UNL     1      14.997   8.491   5.575  0.00  0.00    +0.019 C 
ATOM     12  C   UNL     1      12.270   8.946   4.547  0.00  0.00    +0.094 C 
ATOM     13  C   UNL     1      14.273   9.847   5.525  0.00  0.00    +0.085 C 
ENDROOT
BRANCH   8  15
ATOM      4  N   UNL     1      11.322   5.971   4.602  0.00  0.00    -0.237 NA
ATOM      5  N   UNL     1      10.564   4.518   2.836  0.00  0.00    -0.232 NA
ATOM     15  C   UNL     1      12.181   6.529   3.724  0.00  0.00    +0.050 A 
ATOM     17  C   UNL     1      12.289   6.139   2.404  0.00  0.00    +0.052 A 
ATOM     22  C   UNL     1      11.446   5.119   2.012  0.00  0.00    +0.075 A 
ATOM     23  C   UNL     1      10.554   4.986   4.099  0.00  0.00    +0.127 A 
ATOM     25  C   UNL     1       9.592   4.344   5.040  0.00  0.00    +0.088 C 
BRANCH  22  24
ATOM     24  C   UNL     1      11.461   4.619   0.658  0.00  0.00    +0.001 A 
ATOM     26  C   UNL     1      12.457   3.731   0.254  0.00  0.00    +0.012 A 
ATOM     27  C   UNL     1      10.481   5.027  -0.247  0.00  0.00    +0.012 A 
ATOM     28  C   UNL     1      12.472   3.248  -1.055  0.00  0.00    +0.024 A 
ATOM     29  C   UNL     1      10.496   4.545  -1.556  0.00  0.00    +0.024 A 
ATOM     30  C   UNL     1      11.492   3.655  -1.960  0.00  0.00    +0.029 A 
BRANCH  30   6
ATOM      6  N   UNL     1      11.506   3.169  -3.284  0.00  0.00    -0.336 N 
ATOM     31  C   UNL     1      12.764   2.945  -3.968  0.00  0.00    +0.129 C 
ATOM     32  C   UNL     1      10.265   2.879  -3.974  0.00  0.00    +0.129 C 
ENDBRANCH  30   6
ENDBRANCH  22  24
ENDBRANCH   8  15
BRANCH   9  14
ATOM     14  C   UNL     1      11.152   8.946   7.445  0.00  0.00    +0.123 C 
BRANCH  14   3
ATOM      1  O   UNL     1       8.413   8.089   7.515  0.00  0.00    -0.276 OA
ATOM      3  N   UNL     1      10.670   7.637   7.762  0.00  0.00    -0.314 N 
ATOM     18  C   UNL     1       9.319   7.291   7.777  0.00  0.00    +0.216 C 
ATOM     33  H   UNL     1      11.355   6.923   7.994  0.00  0.00    +0.149 HD
BRANCH  18  16
ATOM     16  C   UNL     1       9.057   5.822   8.159  0.00  0.00    +0.075 C 
ATOM     19  C   UNL     1      10.276   4.880   8.234  0.00  0.00    +0.013 C 
ATOM     20  C   UNL     1       8.818   5.508   9.651  0.00  0.00    +0.013 C 
ATOM     21  C   UNL     1       9.566   4.179   9.411  0.00  0.00    +0.001 C 
ENDBRANCH  18  16
ENDBRANCH  14   3
ENDBRANCH   9  14
TORSDOF 6
ENDMDL
