MODEL 1
REMARK VINA RESULT:      -7.4      0.000      0.000
REMARK  Name = 71693884
REMARK  9 active torsions:
REMARK  status: ('A' for Active; 'I' for Inactive)
REMARK    1  A    between atoms: O_1  and  C_9
REMARK    2  A    between atoms: O_2  and  C_11
REMARK    3  A    between atoms: O_4  and  C_19
REMARK    4  A    between atoms: O_4  and  C_25
REMARK    5  A    between atoms: O_5  and  C_20
REMARK    6  A    between atoms: O_5  and  C_26
REMARK    7  A    between atoms: N_6  and  C_8
REMARK    8  A    between atoms: C_7  and  C_12
REMARK    9  A    between atoms: C_15  and  C_18
REMARK                            x       y       z     vdW  Elec       q    Type
REMARK                         _______ _______ _______ _____ _____    ______ ____
ROOT
ATOM      7  C   UNL     1      13.026   9.119  20.161  0.00  0.00    +0.044 C 
ATOM      8  C   UNL     1      13.241   7.604  20.373  0.00  0.00    +0.112 C 
ATOM      9  C   UNL     1      12.396   7.293  21.609  0.00  0.00    +0.164 C 
ATOM     10  C   UNL     1      11.681   9.456  20.856  0.00  0.00    +0.044 C 
ATOM     11  C   UNL     1      11.141   8.130  21.387  0.00  0.00    +0.145 C 
ENDROOT
BRANCH   7  12
ATOM     12  C   UNL     1      13.095   9.529  18.706  0.00  0.00    -0.042 A 
ATOM     13  C   UNL     1      12.265   8.915  17.768  0.00  0.00    +0.007 A 
ATOM     14  C   UNL     1      13.992  10.518  18.302  0.00  0.00    +0.007 A 
ATOM     16  C   UNL     1      12.331   9.292  16.427  0.00  0.00    +0.046 A 
ATOM     17  C   UNL     1      14.057  10.895  16.961  0.00  0.00    +0.046 A 
ATOM     19  C   UNL     1      13.228  10.281  16.023  0.00  0.00    +0.120 A 
BRANCH  19   4
ATOM      4  O   UNL     1      13.293  10.647  14.713  0.00  0.00    -0.495 OA
ATOM     25  C   UNL     1      13.938  11.884  14.416  0.00  0.00    +0.277 C 
ENDBRANCH  19   4
ENDBRANCH   7  12
BRANCH   8   6
ATOM      3  O   UNL     1      15.184   7.028  18.339  0.00  0.00    -0.270 OA
ATOM      6  N   UNL     1      14.630   7.278  20.577  0.00  0.00    -0.305 N 
ATOM     15  C   UNL     1      15.498   7.014  19.526  0.00  0.00    +0.248 C 
ATOM     27  H   UNL     1      14.987   7.339  21.525  0.00  0.00    +0.149 HD
BRANCH  15  18
ATOM     18  C   UNL     1      16.893   6.669  19.903  0.00  0.00    +0.078 A 
ATOM     20  C   UNL     1      17.572   7.398  20.879  0.00  0.00    +0.132 A 
ATOM     21  C   UNL     1      17.523   5.599  19.267  0.00  0.00    +0.017 A 
ATOM     22  C   UNL     1      18.882   7.058  21.218  0.00  0.00    +0.046 A 
ATOM     23  C   UNL     1      18.832   5.259  19.606  0.00  0.00    +0.001 A 
ATOM     24  C   UNL     1      19.511   5.988  20.581  0.00  0.00    +0.004 A 
BRANCH  20   5
ATOM      5  O   UNL     1      16.974   8.447  21.510  0.00  0.00    -0.494 OA
ATOM     26  C   UNL     1      17.530   9.740  21.282  0.00  0.00    +0.277 C 
ENDBRANCH  20   5
ENDBRANCH  15  18
ENDBRANCH   8   6
BRANCH   9   1
ATOM      1  O   UNL     1      12.082   5.918  21.712  0.00  0.00    -0.387 OA
ATOM     28  H   UNL     1      12.889   5.454  21.997  0.00  0.00    +0.210 HD
ENDBRANCH   9   1
BRANCH  11   2
ATOM      2  O   UNL     1      10.307   7.545  20.392  0.00  0.00    -0.389 OA
ATOM     29  H   UNL     1      10.555   6.607  20.319  0.00  0.00    +0.210 HD
ENDBRANCH  11   2
TORSDOF 7
ENDMDL
MODEL 2
REMARK VINA RESULT:      -7.1      2.633      6.250
REMARK  Name = 71693884
REMARK  9 active torsions:
REMARK  status: ('A' for Active; 'I' for Inactive)
REMARK    1  A    between atoms: O_1  and  C_9
REMARK    2  A    between atoms: O_2  and  C_11
REMARK    3  A    between atoms: O_4  and  C_19
REMARK    4  A    between atoms: O_4  and  C_25
REMARK    5  A    between atoms: O_5  and  C_20
REMARK    6  A    between atoms: O_5  and  C_26
REMARK    7  A    between atoms: N_6  and  C_8
REMARK    8  A    between atoms: C_7  and  C_12
REMARK    9  A    between atoms: C_15  and  C_18
REMARK                            x       y       z     vdW  Elec       q    Type
REMARK                         _______ _______ _______ _____ _____    ______ ____
ROOT
ATOM      7  C   UNL     1      14.084   9.037  18.986  0.00  0.00    +0.044 C 
ATOM      8  C   UNL     1      12.837   8.823  19.872  0.00  0.00    +0.112 C 
ATOM      9  C   UNL     1      11.672   8.995  18.897  0.00  0.00    +0.164 C 
ATOM     10  C   UNL     1      13.630   8.727  17.536  0.00  0.00    +0.044 C 
ATOM     11  C   UNL     1      12.170   8.291  17.639  0.00  0.00    +0.145 C 
ENDROOT
BRANCH   7  12
ATOM     12  C   UNL     1      15.283   8.237  19.448  0.00  0.00    -0.042 A 
ATOM     13  C   UNL     1      15.497   6.951  18.953  0.00  0.00    +0.007 A 
ATOM     14  C   UNL     1      16.173   8.785  20.373  0.00  0.00    +0.007 A 
ATOM     16  C   UNL     1      16.600   6.213  19.381  0.00  0.00    +0.046 A 
ATOM     17  C   UNL     1      17.277   8.048  20.800  0.00  0.00    +0.046 A 
ATOM     19  C   UNL     1      17.490   6.762  20.305  0.00  0.00    +0.120 A 
BRANCH  19   4
ATOM      4  O   UNL     1      18.567   6.040  20.724  0.00  0.00    -0.495 OA
ATOM     25  C   UNL     1      19.419   6.650  21.691  0.00  0.00    +0.277 C 
ENDBRANCH  19   4
ENDBRANCH   7  12
BRANCH   8   6
ATOM      3  O   UNL     1      11.486   8.475  22.382  0.00  0.00    -0.270 OA
ATOM      6  N   UNL     1      12.775   9.772  20.956  0.00  0.00    -0.305 N 
ATOM     15  C   UNL     1      12.094   9.514  22.138  0.00  0.00    +0.248 C 
ATOM     27  H   UNL     1      13.331  10.616  20.866  0.00  0.00    +0.149 HD
BRANCH  15  18
ATOM     18  C   UNL     1      12.102  10.604  23.146  0.00  0.00    +0.078 A 
ATOM     20  C   UNL     1      13.294  11.222  23.523  0.00  0.00    +0.132 A 
ATOM     21  C   UNL     1      10.895  11.008  23.718  0.00  0.00    +0.017 A 
ATOM     22  C   UNL     1      13.279  12.244  24.473  0.00  0.00    +0.046 A 
ATOM     23  C   UNL     1      10.881  12.030  24.667  0.00  0.00    +0.001 A 
ATOM     24  C   UNL     1      12.073  12.647  25.045  0.00  0.00    +0.004 A 
BRANCH  20   5
ATOM      5  O   UNL     1      14.483  10.840  22.978  0.00  0.00    -0.494 OA
ATOM     26  C   UNL     1      15.355  11.877  22.536  0.00  0.00    +0.277 C 
ENDBRANCH  20   5
ENDBRANCH  15  18
ENDBRANCH   8   6
BRANCH   9   1
ATOM      1  O   UNL     1      10.480   8.403  19.376  0.00  0.00    -0.387 OA
ATOM     28  H   UNL     1      10.087   7.901  18.641  0.00  0.00    +0.210 HD
ENDBRANCH   9   1
BRANCH  11   2
ATOM      2  O   UNL     1      12.126   6.876  17.796  0.00  0.00    -0.389 OA
ATOM     29  H   UNL     1      12.087   6.689  18.750  0.00  0.00    +0.210 HD
ENDBRANCH  11   2
TORSDOF 7
ENDMDL
MODEL 3
REMARK VINA RESULT:      -7.0      2.442      3.379
REMARK  Name = 71693884
REMARK  9 active torsions:
REMARK  status: ('A' for Active; 'I' for Inactive)
REMARK    1  A    between atoms: O_1  and  C_9
REMARK    2  A    between atoms: O_2  and  C_11
REMARK    3  A    between atoms: O_4  and  C_19
REMARK    4  A    between atoms: O_4  and  C_25
REMARK    5  A    between atoms: O_5  and  C_20
REMARK    6  A    between atoms: O_5  and  C_26
REMARK    7  A    between atoms: N_6  and  C_8
REMARK    8  A    between atoms: C_7  and  C_12
REMARK    9  A    between atoms: C_15  and  C_18
REMARK                            x       y       z     vdW  Elec       q    Type
REMARK                         _______ _______ _______ _____ _____    ______ ____
ROOT
ATOM      7  C   UNL     1      12.594   8.800  22.111  0.00  0.00    +0.044 C 
ATOM      8  C   UNL     1      13.012   7.936  20.900  0.00  0.00    +0.112 C 
ATOM      9  C   UNL     1      12.098   6.714  21.001  0.00  0.00    +0.164 C 
ATOM     10  C   UNL     1      11.148   8.363  22.463  0.00  0.00    +0.044 C 
ATOM     11  C   UNL     1      10.762   7.317  21.419  0.00  0.00    +0.145 C 
ENDROOT
BRANCH   7  12
ATOM     12  C   UNL     1      12.753  10.285  21.862  0.00  0.00    -0.042 A 
ATOM     13  C   UNL     1      12.896  11.161  22.938  0.00  0.00    +0.007 A 
ATOM     14  C   UNL     1      12.752  10.777  20.557  0.00  0.00    +0.007 A 
ATOM     16  C   UNL     1      13.041  12.528  22.709  0.00  0.00    +0.046 A 
ATOM     17  C   UNL     1      12.897  12.145  20.327  0.00  0.00    +0.046 A 
ATOM     19  C   UNL     1      13.040  13.021  21.403  0.00  0.00    +0.120 A 
BRANCH  19   4
ATOM      4  O   UNL     1      13.179  14.357  21.180  0.00  0.00    -0.495 OA
ATOM     25  C   UNL     1      13.044  15.220  22.307  0.00  0.00    +0.277 C 
ENDBRANCH  19   4
ENDBRANCH   7  12
BRANCH   8   6
ATOM      3  O   UNL     1      14.735   7.427  18.661  0.00  0.00    -0.270 OA
ATOM      6  N   UNL     1      14.405   7.571  20.951  0.00  0.00    -0.305 N 
ATOM     15  C   UNL     1      15.162   7.345  19.810  0.00  0.00    +0.248 C 
ATOM     27  H   UNL     1      14.852   7.574  21.862  0.00  0.00    +0.149 HD
BRANCH  15  18
ATOM     18  C   UNL     1      16.576   6.950  20.032  0.00  0.00    +0.078 A 
ATOM     20  C   UNL     1      17.367   7.620  20.965  0.00  0.00    +0.132 A 
ATOM     21  C   UNL     1      17.111   5.895  19.293  0.00  0.00    +0.017 A 
ATOM     22  C   UNL     1      18.694   7.235  21.158  0.00  0.00    +0.046 A 
ATOM     23  C   UNL     1      18.437   5.510  19.487  0.00  0.00    +0.001 A 
ATOM     24  C   UNL     1      19.229   6.180  20.418  0.00  0.00    +0.004 A 
BRANCH  20   5
ATOM      5  O   UNL     1      16.864   8.655  21.695  0.00  0.00    -0.494 OA
ATOM     26  C   UNL     1      17.385   9.953  21.421  0.00  0.00    +0.277 C 
ENDBRANCH  20   5
ENDBRANCH  15  18
ENDBRANCH   8   6
BRANCH   9   1
ATOM      1  O   UNL     1      11.986   6.025  19.771  0.00  0.00    -0.387 OA
ATOM     28  H   UNL     1      12.553   6.484  19.127  0.00  0.00    +0.210 HD
ENDBRANCH   9   1
BRANCH  11   2
ATOM      2  O   UNL     1      10.135   7.976  20.322  0.00  0.00    -0.389 OA
ATOM     29  H   UNL     1       9.976   7.308  19.633  0.00  0.00    +0.210 HD
ENDBRANCH  11   2
TORSDOF 7
ENDMDL
MODEL 4
REMARK VINA RESULT:      -6.2      3.410      5.920
REMARK  Name = 71693884
REMARK  9 active torsions:
REMARK  status: ('A' for Active; 'I' for Inactive)
REMARK    1  A    between atoms: O_1  and  C_9
REMARK    2  A    between atoms: O_2  and  C_11
REMARK    3  A    between atoms: O_4  and  C_19
REMARK    4  A    between atoms: O_4  and  C_25
REMARK    5  A    between atoms: O_5  and  C_20
REMARK    6  A    between atoms: O_5  and  C_26
REMARK    7  A    between atoms: N_6  and  C_8
REMARK    8  A    between atoms: C_7  and  C_12
REMARK    9  A    between atoms: C_15  and  C_18
REMARK                            x       y       z     vdW  Elec       q    Type
REMARK                         _______ _______ _______ _____ _____    ______ ____
ROOT
ATOM      7  C   UNL     1      13.138   8.881  21.055  0.00  0.00    +0.044 C 
ATOM      8  C   UNL     1      12.685   8.701  19.589  0.00  0.00    +0.112 C 
ATOM      9  C   UNL     1      12.834   7.199  19.351  0.00  0.00    +0.164 C 
ATOM     10  C   UNL     1      12.947   7.498  21.729  0.00  0.00    +0.044 C 
ATOM     11  C   UNL     1      12.339   6.592  20.660  0.00  0.00    +0.145 C 
ENDROOT
BRANCH   7  12
ATOM     12  C   UNL     1      12.431  10.020  21.758  0.00  0.00    -0.042 A 
ATOM     13  C   UNL     1      12.791  11.339  21.485  0.00  0.00    +0.007 A 
ATOM     14  C   UNL     1      11.421   9.750  22.682  0.00  0.00    +0.007 A 
ATOM     16  C   UNL     1      12.141  12.388  22.134  0.00  0.00    +0.046 A 
ATOM     17  C   UNL     1      10.771  10.799  23.331  0.00  0.00    +0.046 A 
ATOM     19  C   UNL     1      11.131  12.118  23.058  0.00  0.00    +0.120 A 
BRANCH  19   4
ATOM      4  O   UNL     1      10.498  13.143  23.693  0.00  0.00    -0.495 OA
ATOM     25  C   UNL     1      10.554  13.156  25.118  0.00  0.00    +0.277 C 
ENDBRANCH  19   4
ENDBRANCH   7  12
BRANCH   8   6
ATOM      3  O   UNL     1      11.994   9.449  16.904  0.00  0.00    -0.270 OA
ATOM      6  N   UNL     1      13.490   9.472  18.676  0.00  0.00    -0.305 N 
ATOM     15  C   UNL     1      13.070   9.787  17.390  0.00  0.00    +0.248 C 
ATOM     27  H   UNL     1      14.353   9.866  19.037  0.00  0.00    +0.149 HD
BRANCH  15  18
ATOM     18  C   UNL     1      14.027  10.566  16.564  0.00  0.00    +0.078 A 
ATOM     20  C   UNL     1      14.361  11.877  16.900  0.00  0.00    +0.132 A 
ATOM     21  C   UNL     1      14.594   9.968  15.438  0.00  0.00    +0.017 A 
ATOM     22  C   UNL     1      15.261  12.592  16.110  0.00  0.00    +0.046 A 
ATOM     23  C   UNL     1      15.495  10.683  14.649  0.00  0.00    +0.001 A 
ATOM     24  C   UNL     1      15.828  11.995  14.984  0.00  0.00    +0.004 A 
BRANCH  20   5
ATOM      5  O   UNL     1      13.815  12.479  17.995  0.00  0.00    -0.494 OA
ATOM     26  C   UNL     1      14.710  13.162  18.870  0.00  0.00    +0.277 C 
ENDBRANCH  20   5
ENDBRANCH  15  18
ENDBRANCH   8   6
BRANCH   9   1
ATOM      1  O   UNL     1      12.061   6.750  18.255  0.00  0.00    -0.387 OA
ATOM     28  H   UNL     1      12.614   6.823  17.458  0.00  0.00    +0.210 HD
ENDBRANCH   9   1
BRANCH  11   2
ATOM      2  O   UNL     1      10.920   6.665  20.751  0.00  0.00    -0.389 OA
ATOM     29  H   UNL     1      10.591   7.016  19.905  0.00  0.00    +0.210 HD
ENDBRANCH  11   2
TORSDOF 7
ENDMDL
MODEL 5
REMARK VINA RESULT:      -6.1     12.256     14.958
REMARK  Name = 71693884
REMARK  9 active torsions:
REMARK  status: ('A' for Active; 'I' for Inactive)
REMARK    1  A    between atoms: O_1  and  C_9
REMARK    2  A    between atoms: O_2  and  C_11
REMARK    3  A    between atoms: O_4  and  C_19
REMARK    4  A    between atoms: O_4  and  C_25
REMARK    5  A    between atoms: O_5  and  C_20
REMARK    6  A    between atoms: O_5  and  C_26
REMARK    7  A    between atoms: N_6  and  C_8
REMARK    8  A    between atoms: C_7  and  C_12
REMARK    9  A    between atoms: C_15  and  C_18
REMARK                            x       y       z     vdW  Elec       q    Type
REMARK                         _______ _______ _______ _____ _____    ______ ____
ROOT
ATOM      7  C   UNL     1      10.122   6.298   5.122  0.00  0.00    +0.044 C 
ATOM      8  C   UNL     1      11.338   6.187   6.067  0.00  0.00    +0.112 C 
ATOM      9  C   UNL     1      10.703   5.992   7.444  0.00  0.00    +0.164 C 
ATOM     10  C   UNL     1       8.950   5.593   5.854  0.00  0.00    +0.044 C 
ATOM     11  C   UNL     1       9.538   5.052   7.156  0.00  0.00    +0.145 C 
ENDROOT
BRANCH   7  12
ATOM     12  C   UNL     1      10.400   5.764   3.733  0.00  0.00    -0.042 A 
ATOM     13  C   UNL     1      10.888   4.467   3.570  0.00  0.00    +0.007 A 
ATOM     14  C   UNL     1      10.173   6.569   2.617  0.00  0.00    +0.007 A 
ATOM     16  C   UNL     1      11.146   3.976   2.290  0.00  0.00    +0.046 A 
ATOM     17  C   UNL     1      10.431   6.078   1.338  0.00  0.00    +0.046 A 
ATOM     19  C   UNL     1      10.918   4.782   1.174  0.00  0.00    +0.120 A 
BRANCH  19   4
ATOM      4  O   UNL     1      11.172   4.302  -0.075  0.00  0.00    -0.495 OA
ATOM     25  C   UNL     1      12.394   3.589  -0.259  0.00  0.00    +0.277 C 
ENDBRANCH  19   4
ENDBRANCH   7  12
BRANCH   8   6
ATOM      3  O   UNL     1      13.988   6.460   7.138  0.00  0.00    -0.270 OA
ATOM      6  N   UNL     1      12.169   7.364   6.021  0.00  0.00    -0.305 N 
ATOM     15  C   UNL     1      13.444   7.402   6.568  0.00  0.00    +0.248 C 
ATOM     27  H   UNL     1      11.824   8.154   5.484  0.00  0.00    +0.149 HD
BRANCH  15  18
ATOM     18  C   UNL     1      14.162   8.698   6.461  0.00  0.00    +0.078 A 
ATOM     20  C   UNL     1      13.536   9.893   6.813  0.00  0.00    +0.132 A 
ATOM     21  C   UNL     1      15.478   8.708   6.000  0.00  0.00    +0.017 A 
ATOM     22  C   UNL     1      14.227  11.100   6.704  0.00  0.00    +0.046 A 
ATOM     23  C   UNL     1      16.169   9.915   5.892  0.00  0.00    +0.001 A 
ATOM     24  C   UNL     1      15.544  11.111   6.243  0.00  0.00    +0.004 A 
BRANCH  20   5
ATOM      5  O   UNL     1      12.250   9.903   7.263  0.00  0.00    -0.494 OA
ATOM     26  C   UNL     1      11.930  10.843   8.286  0.00  0.00    +0.277 C 
ENDBRANCH  20   5
ENDBRANCH  15  18
ENDBRANCH   8   6
BRANCH   9   1
ATOM      1  O   UNL     1      11.603   5.421   8.374  0.00  0.00    -0.387 OA
ATOM     28  H   UNL     1      11.221   4.576   8.669  0.00  0.00    +0.210 HD
ENDBRANCH   9   1
BRANCH  11   2
ATOM      2  O   UNL     1       9.999   3.723   6.931  0.00  0.00    -0.389 OA
ATOM     29  H   UNL     1      10.701   3.768   6.259  0.00  0.00    +0.210 HD
ENDBRANCH  11   2
TORSDOF 7
ENDMDL
MODEL 6
REMARK VINA RESULT:      -6.0      2.370      3.183
REMARK  Name = 71693884
REMARK  9 active torsions:
REMARK  status: ('A' for Active; 'I' for Inactive)
REMARK    1  A    between atoms: O_1  and  C_9
REMARK    2  A    between atoms: O_2  and  C_11
REMARK    3  A    between atoms: O_4  and  C_19
REMARK    4  A    between atoms: O_4  and  C_25
REMARK    5  A    between atoms: O_5  and  C_20
REMARK    6  A    between atoms: O_5  and  C_26
REMARK    7  A    between atoms: N_6  and  C_8
REMARK    8  A    between atoms: C_7  and  C_12
REMARK    9  A    between atoms: C_15  and  C_18
REMARK                            x       y       z     vdW  Elec       q    Type
REMARK                         _______ _______ _______ _____ _____    ______ ____
ROOT
ATOM      7  C   UNL     1      14.219  10.978  20.687  0.00  0.00    +0.044 C 
ATOM      8  C   UNL     1      14.724  10.131  21.877  0.00  0.00    +0.112 C 
ATOM      9  C   UNL     1      14.812  11.141  23.021  0.00  0.00    +0.164 C 
ATOM     10  C   UNL     1      13.502  12.202  21.314  0.00  0.00    +0.044 C 
ATOM     11  C   UNL     1      13.563  11.994  22.826  0.00  0.00    +0.145 C 
ENDROOT
BRANCH   7  12
ATOM     12  C   UNL     1      13.368  10.186  19.717  0.00  0.00    -0.042 A 
ATOM     13  C   UNL     1      13.564  10.325  18.343  0.00  0.00    +0.007 A 
ATOM     14  C   UNL     1      12.384   9.322  20.197  0.00  0.00    +0.007 A 
ATOM     16  C   UNL     1      12.779   9.597  17.450  0.00  0.00    +0.046 A 
ATOM     17  C   UNL     1      11.599   8.594  19.304  0.00  0.00    +0.046 A 
ATOM     19  C   UNL     1      11.795   8.732  17.930  0.00  0.00    +0.120 A 
BRANCH  19   4
ATOM      4  O   UNL     1      11.027   8.023  17.057  0.00  0.00    -0.495 OA
ATOM     25  C   UNL     1      10.524   8.723  15.921  0.00  0.00    +0.277 C 
ENDBRANCH  19   4
ENDBRANCH   7  12
BRANCH   8   6
ATOM      3  O   UNL     1      15.281   7.319  21.733  0.00  0.00    -0.270 OA
ATOM      6  N   UNL     1      16.000   9.519  21.601  0.00  0.00    -0.305 N 
ATOM     15  C   UNL     1      16.173   8.143  21.551  0.00  0.00    +0.248 C 
ATOM     27  H   UNL     1      16.765  10.136  21.348  0.00  0.00    +0.149 HD
BRANCH  15  18
ATOM     18  C   UNL     1      17.555   7.669  21.282  0.00  0.00    +0.078 A 
ATOM     20  C   UNL     1      18.659   8.416  21.688  0.00  0.00    +0.132 A 
ATOM     21  C   UNL     1      17.739   6.459  20.612  0.00  0.00    +0.017 A 
ATOM     22  C   UNL     1      19.949   7.954  21.425  0.00  0.00    +0.046 A 
ATOM     23  C   UNL     1      19.028   5.997  20.349  0.00  0.00    +0.001 A 
ATOM     24  C   UNL     1      20.133   6.744  20.755  0.00  0.00    +0.004 A 
BRANCH  20   5
ATOM      5  O   UNL     1      18.500   9.602  22.342  0.00  0.00    -0.494 OA
ATOM     26  C   UNL     1      19.554  10.554  22.219  0.00  0.00    +0.277 C 
ENDBRANCH  20   5
ENDBRANCH  15  18
ENDBRANCH   8   6
BRANCH   9   1
ATOM      1  O   UNL     1      14.812  10.516  24.290  0.00  0.00    -0.387 OA
ATOM     28  H   UNL     1      15.614  10.805  24.758  0.00  0.00    +0.210 HD
ENDBRANCH   9   1
BRANCH  11   2
ATOM      2  O   UNL     1      12.396  11.288  23.238  0.00  0.00    -0.389 OA
ATOM     29  H   UNL     1      12.122  10.720  22.497  0.00  0.00    +0.210 HD
ENDBRANCH  11   2
TORSDOF 7
ENDMDL
MODEL 7
REMARK VINA RESULT:      -6.0     25.898     28.158
REMARK  Name = 71693884
REMARK  9 active torsions:
REMARK  status: ('A' for Active; 'I' for Inactive)
REMARK    1  A    between atoms: O_1  and  C_9
REMARK    2  A    between atoms: O_2  and  C_11
REMARK    3  A    between atoms: O_4  and  C_19
REMARK    4  A    between atoms: O_4  and  C_25
REMARK    5  A    between atoms: O_5  and  C_20
REMARK    6  A    between atoms: O_5  and  C_26
REMARK    7  A    between atoms: N_6  and  C_8
REMARK    8  A    between atoms: C_7  and  C_12
REMARK    9  A    between atoms: C_15  and  C_18
REMARK                            x       y       z     vdW  Elec       q    Type
REMARK                         _______ _______ _______ _____ _____    ______ ____
ROOT
ATOM      7  C   UNL     1      -5.947 -10.169  17.245  0.00  0.00    +0.044 C 
ATOM      8  C   UNL     1      -5.386 -11.305  16.361  0.00  0.00    +0.112 C 
ATOM      9  C   UNL     1      -4.497 -12.097  17.320  0.00  0.00    +0.164 C 
ATOM     10  C   UNL     1      -5.855 -10.684  18.705  0.00  0.00    +0.044 C 
ATOM     11  C   UNL     1      -5.307 -12.107  18.612  0.00  0.00    +0.145 C 
ENDROOT
BRANCH   7  12
ATOM     12  C   UNL     1      -7.332  -9.723  16.828  0.00  0.00    -0.042 A 
ATOM     13  C   UNL     1      -7.755  -9.902  15.511  0.00  0.00    +0.007 A 
ATOM     14  C   UNL     1      -8.184  -9.129  17.760  0.00  0.00    +0.007 A 
ATOM     16  C   UNL     1      -9.030  -9.489  15.126  0.00  0.00    +0.046 A 
ATOM     17  C   UNL     1      -9.459  -8.717  17.375  0.00  0.00    +0.046 A 
ATOM     19  C   UNL     1      -9.882  -8.895  16.058  0.00  0.00    +0.120 A 
BRANCH  19   4
ATOM      4  O   UNL     1     -11.127  -8.491  15.682  0.00  0.00    -0.495 OA
ATOM     25  C   UNL     1     -11.689  -7.384  16.384  0.00  0.00    +0.277 C 
ENDBRANCH  19   4
ENDBRANCH   7  12
BRANCH   8   6
ATOM      3  O   UNL     1      -4.977 -12.619  13.842  0.00  0.00    -0.270 OA
ATOM      6  N   UNL     1      -4.642 -10.797  15.236  0.00  0.00    -0.305 N 
ATOM     15  C   UNL     1      -4.499 -11.508  14.052  0.00  0.00    +0.248 C 
ATOM     27  H   UNL     1      -4.296  -9.845  15.300  0.00  0.00    +0.149 HD
BRANCH  15  18
ATOM     18  C   UNL     1      -3.681 -10.858  12.996  0.00  0.00    +0.078 A 
ATOM     20  C   UNL     1      -2.312 -10.661  13.172  0.00  0.00    +0.132 A 
ATOM     21  C   UNL     1      -4.299 -10.444  11.817  0.00  0.00    +0.017 A 
ATOM     22  C   UNL     1      -1.561 -10.047  12.169  0.00  0.00    +0.046 A 
ATOM     23  C   UNL     1      -3.549  -9.832  10.814  0.00  0.00    +0.001 A 
ATOM     24  C   UNL     1      -2.180  -9.633  10.990  0.00  0.00    +0.004 A 
BRANCH  20   5
ATOM      5  O   UNL     1      -1.689 -11.056  14.318  0.00  0.00    -0.494 OA
ATOM     26  C   UNL     1      -1.157 -10.030  15.153  0.00  0.00    +0.277 C 
ENDBRANCH  20   5
ENDBRANCH  15  18
ENDBRANCH   8   6
BRANCH   9   1
ATOM      1  O   UNL     1      -4.251 -13.412  16.861  0.00  0.00    -0.387 OA
ATOM     28  H   UNL     1      -5.057 -13.720  16.411  0.00  0.00    +0.210 HD
ENDBRANCH   9   1
BRANCH  11   2
ATOM      2  O   UNL     1      -6.402 -13.013  18.519  0.00  0.00    -0.389 OA
ATOM     29  H   UNL     1      -6.497 -13.262  17.584  0.00  0.00    +0.210 HD
ENDBRANCH  11   2
TORSDOF 7
ENDMDL
MODEL 8
REMARK VINA RESULT:      -6.0      2.902      6.706
REMARK  Name = 71693884
REMARK  9 active torsions:
REMARK  status: ('A' for Active; 'I' for Inactive)
REMARK    1  A    between atoms: O_1  and  C_9
REMARK    2  A    between atoms: O_2  and  C_11
REMARK    3  A    between atoms: O_4  and  C_19
REMARK    4  A    between atoms: O_4  and  C_25
REMARK    5  A    between atoms: O_5  and  C_20
REMARK    6  A    between atoms: O_5  and  C_26
REMARK    7  A    between atoms: N_6  and  C_8
REMARK    8  A    between atoms: C_7  and  C_12
REMARK    9  A    between atoms: C_15  and  C_18
REMARK                            x       y       z     vdW  Elec       q    Type
REMARK                         _______ _______ _______ _____ _____    ______ ____
ROOT
ATOM      7  C   UNL     1      13.335   8.202  19.897  0.00  0.00    +0.044 C 
ATOM      8  C   UNL     1      12.306   8.765  20.903  0.00  0.00    +0.112 C 
ATOM      9  C   UNL     1      11.068   7.899  20.667  0.00  0.00    +0.164 C 
ATOM     10  C   UNL     1      12.881   6.751  19.593  0.00  0.00    +0.044 C 
ATOM     11  C   UNL     1      11.654   6.506  20.470  0.00  0.00    +0.145 C 
ENDROOT
BRANCH   7  12
ATOM     12  C   UNL     1      14.764   8.318  20.384  0.00  0.00    -0.042 A 
ATOM     13  C   UNL     1      15.420   7.199  20.896  0.00  0.00    +0.007 A 
ATOM     14  C   UNL     1      15.423   9.547  20.324  0.00  0.00    +0.007 A 
ATOM     16  C   UNL     1      16.735   7.307  21.346  0.00  0.00    +0.046 A 
ATOM     17  C   UNL     1      16.739   9.655  20.774  0.00  0.00    +0.046 A 
ATOM     19  C   UNL     1      17.394   8.535  21.286  0.00  0.00    +0.120 A 
BRANCH  19   4
ATOM      4  O   UNL     1      18.678   8.641  21.728  0.00  0.00    -0.495 OA
ATOM     25  C   UNL     1      19.607   7.664  21.262  0.00  0.00    +0.277 C 
ENDBRANCH  19   4
ENDBRANCH   7  12
BRANCH   8   6
ATOM      3  O   UNL     1      12.457  10.877  22.841  0.00  0.00    -0.270 OA
ATOM      6  N   UNL     1      12.037  10.162  20.676  0.00  0.00    -0.305 N 
ATOM     15  C   UNL     1      12.137  11.116  21.679  0.00  0.00    +0.248 C 
ATOM     27  H   UNL     1      11.857  10.450  19.719  0.00  0.00    +0.149 HD
BRANCH  15  18
ATOM     18  C   UNL     1      11.800  12.509  21.291  0.00  0.00    +0.078 A 
ATOM     20  C   UNL     1      12.564  13.193  20.346  0.00  0.00    +0.132 A 
ATOM     21  C   UNL     1      10.703  13.133  21.885  0.00  0.00    +0.017 A 
ATOM     22  C   UNL     1      12.231  14.502  19.995  0.00  0.00    +0.046 A 
ATOM     23  C   UNL     1      10.370  14.441  21.534  0.00  0.00    +0.001 A 
ATOM     24  C   UNL     1      11.135  15.126  20.590  0.00  0.00    +0.004 A 
BRANCH  20   5
ATOM      5  O   UNL     1      13.640  12.602  19.756  0.00  0.00    -0.494 OA
ATOM     26  C   UNL     1      13.615  12.481  18.335  0.00  0.00    +0.277 C 
ENDBRANCH  20   5
ENDBRANCH  15  18
ENDBRANCH   8   6
BRANCH   9   1
ATOM      1  O   UNL     1      10.177   7.929  21.765  0.00  0.00    -0.387 OA
ATOM     28  H   UNL     1       9.986   8.863  21.962  0.00  0.00    +0.210 HD
ENDBRANCH   9   1
BRANCH  11   2
ATOM      2  O   UNL     1      12.082   5.953  21.711  0.00  0.00    -0.389 OA
ATOM     29  H   UNL     1      11.938   4.992  21.667  0.00  0.00    +0.210 HD
ENDBRANCH  11   2
TORSDOF 7
ENDMDL
MODEL 9
REMARK VINA RESULT:      -5.9     27.303     28.892
REMARK  Name = 71693884
REMARK  9 active torsions:
REMARK  status: ('A' for Active; 'I' for Inactive)
REMARK    1  A    between atoms: O_1  and  C_9
REMARK    2  A    between atoms: O_2  and  C_11
REMARK    3  A    between atoms: O_4  and  C_19
REMARK    4  A    between atoms: O_4  and  C_25
REMARK    5  A    between atoms: O_5  and  C_20
REMARK    6  A    between atoms: O_5  and  C_26
REMARK    7  A    between atoms: N_6  and  C_8
REMARK    8  A    between atoms: C_7  and  C_12
REMARK    9  A    between atoms: C_15  and  C_18
REMARK                            x       y       z     vdW  Elec       q    Type
REMARK                         _______ _______ _______ _____ _____    ______ ____
ROOT
ATOM      7  C   UNL     1      -5.751 -10.276  17.313  0.00  0.00    +0.044 C 
ATOM      8  C   UNL     1      -5.411 -11.255  16.167  0.00  0.00    +0.112 C 
ATOM      9  C   UNL     1      -4.192 -12.012  16.694  0.00  0.00    +0.164 C 
ATOM     10  C   UNL     1      -5.143 -10.900  18.596  0.00  0.00    +0.044 C 
ATOM     11  C   UNL     1      -4.532 -12.232  18.164  0.00  0.00    +0.145 C 
ENDROOT
BRANCH   7  12
ATOM     12  C   UNL     1      -7.230  -9.969  17.410  0.00  0.00    -0.042 A 
ATOM     13  C   UNL     1      -8.011 -10.598  18.380  0.00  0.00    +0.007 A 
ATOM     14  C   UNL     1      -7.814  -9.061  16.526  0.00  0.00    +0.007 A 
ATOM     16  C   UNL     1      -9.374 -10.316  18.469  0.00  0.00    +0.046 A 
ATOM     17  C   UNL     1      -9.177  -8.779  16.615  0.00  0.00    +0.046 A 
ATOM     19  C   UNL     1      -9.957  -9.407  17.585  0.00  0.00    +0.120 A 
BRANCH  19   4
ATOM      4  O   UNL     1     -11.288  -9.134  17.670  0.00  0.00    -0.495 OA
ATOM     25  C   UNL     1     -11.997  -9.698  18.772  0.00  0.00    +0.277 C 
ENDBRANCH  19   4
ENDBRANCH   7  12
BRANCH   8   6
ATOM      3  O   UNL     1      -5.478 -12.370  13.522  0.00  0.00    -0.270 OA
ATOM      6  N   UNL     1      -5.124 -10.565  14.934  0.00  0.00    -0.305 N 
ATOM     15  C   UNL     1      -5.183 -11.191  13.696  0.00  0.00    +0.248 C 
ATOM     27  H   UNL     1      -4.964  -9.565  14.989  0.00  0.00    +0.149 HD
BRANCH  15  18
ATOM     18  C   UNL     1      -4.833 -10.349  12.523  0.00  0.00    +0.078 A 
ATOM     20  C   UNL     1      -5.716  -9.381  12.048  0.00  0.00    +0.132 A 
ATOM     21  C   UNL     1      -3.601 -10.538  11.896  0.00  0.00    +0.017 A 
ATOM     22  C   UNL     1      -5.369  -8.602  10.944  0.00  0.00    +0.046 A 
ATOM     23  C   UNL     1      -3.254  -9.759  10.793  0.00  0.00    +0.001 A 
ATOM     24  C   UNL     1      -4.138  -8.791  10.316  0.00  0.00    +0.004 A 
BRANCH  20   5
ATOM      5  O   UNL     1      -6.925  -9.183  12.646  0.00  0.00    -0.494 OA
ATOM     26  C   UNL     1      -8.079  -9.625  11.934  0.00  0.00    +0.277 C 
ENDBRANCH  20   5
ENDBRANCH  15  18
ENDBRANCH   8   6
BRANCH   9   1
ATOM      1  O   UNL     1      -3.995 -13.243  16.025  0.00  0.00    -0.387 OA
ATOM     28  H   UNL     1      -4.083 -13.074  15.071  0.00  0.00    +0.210 HD
ENDBRANCH   9   1
BRANCH  11   2
ATOM      2  O   UNL     1      -5.513 -13.254  18.312  0.00  0.00    -0.389 OA
ATOM     29  H   UNL     1      -6.296 -12.849  18.725  0.00  0.00    +0.210 HD
ENDBRANCH  11   2
TORSDOF 7
ENDMDL
MODEL 10
REMARK VINA RESULT:      -5.9     19.115     22.099
REMARK  Name = 71693884
REMARK  9 active torsions:
REMARK  status: ('A' for Active; 'I' for Inactive)
REMARK    1  A    between atoms: O_1  and  C_9
REMARK    2  A    between atoms: O_2  and  C_11
REMARK    3  A    between atoms: O_4  and  C_19
REMARK    4  A    between atoms: O_4  and  C_25
REMARK    5  A    between atoms: O_5  and  C_20
REMARK    6  A    between atoms: O_5  and  C_26
REMARK    7  A    between atoms: N_6  and  C_8
REMARK    8  A    between atoms: C_7  and  C_12
REMARK    9  A    between atoms: C_15  and  C_18
REMARK                            x       y       z     vdW  Elec       q    Type
REMARK                         _______ _______ _______ _____ _____    ______ ____
ROOT
ATOM      7  C   UNL     1       9.953  -6.857  33.603  0.00  0.00    +0.044 C 
ATOM      8  C   UNL     1       8.555  -6.921  32.948  0.00  0.00    +0.112 C 
ATOM      9  C   UNL     1       7.647  -6.252  33.980  0.00  0.00    +0.164 C 
ATOM     10  C   UNL     1       9.889  -5.691  34.622  0.00  0.00    +0.044 C 
ATOM     11  C   UNL     1       8.493  -5.087  34.480  0.00  0.00    +0.145 C 
ENDROOT
BRANCH   7  12
ATOM     12  C   UNL     1      11.075  -6.743  32.593  0.00  0.00    -0.042 A 
ATOM     13  C   UNL     1      11.794  -5.553  32.482  0.00  0.00    +0.007 A 
ATOM     14  C   UNL     1      11.386  -7.826  31.771  0.00  0.00    +0.007 A 
ATOM     16  C   UNL     1      12.827  -5.448  31.550  0.00  0.00    +0.046 A 
ATOM     17  C   UNL     1      12.419  -7.720  30.840  0.00  0.00    +0.046 A 
ATOM     19  C   UNL     1      13.138  -6.531  30.728  0.00  0.00    +0.120 A 
BRANCH  19   4
ATOM      4  O   UNL     1      14.145  -6.427  29.818  0.00  0.00    -0.495 OA
ATOM     25  C   UNL     1      15.235  -5.569  30.151  0.00  0.00    +0.277 C 
ENDBRANCH  19   4
ENDBRANCH   7  12
BRANCH   8   6
ATOM      3  O   UNL     1       6.658  -7.774  30.968  0.00  0.00    -0.270 OA
ATOM      6  N   UNL     1       8.148  -8.276  32.672  0.00  0.00    -0.305 N 
ATOM     15  C   UNL     1       7.220  -8.593  31.690  0.00  0.00    +0.248 C 
ATOM     27  H   UNL     1       8.638  -9.017  33.164  0.00  0.00    +0.149 HD
BRANCH  15  18
ATOM     18  C   UNL     1       6.888 -10.034  31.547  0.00  0.00    +0.078 A 
ATOM     20  C   UNL     1       6.516 -10.796  32.654  0.00  0.00    +0.132 A 
ATOM     21  C   UNL     1       6.951 -10.623  30.284  0.00  0.00    +0.017 A 
ATOM     22  C   UNL     1       6.210 -12.148  32.499  0.00  0.00    +0.046 A 
ATOM     23  C   UNL     1       6.644 -11.974  30.130  0.00  0.00    +0.001 A 
ATOM     24  C   UNL     1       6.273 -12.737  31.237  0.00  0.00    +0.004 A 
BRANCH  20   5
ATOM      5  O   UNL     1       6.451 -10.239  33.897  0.00  0.00    -0.494 OA
ATOM     26  C   UNL     1       5.178 -10.237  34.538  0.00  0.00    +0.277 C 
ENDBRANCH  20   5
ENDBRANCH  15  18
ENDBRANCH   8   6
BRANCH   9   1
ATOM      1  O   UNL     1       6.434  -5.797  33.412  0.00  0.00    -0.387 OA
ATOM     28  H   UNL     1       6.591  -4.900  33.068  0.00  0.00    +0.210 HD
ENDBRANCH   9   1
BRANCH  11   2
ATOM      2  O   UNL     1       8.543  -4.042  33.514  0.00  0.00    -0.389 OA
ATOM     29  H   UNL     1       9.281  -4.237  32.911  0.00  0.00    +0.210 HD
ENDBRANCH  11   2
TORSDOF 7
ENDMDL
