MODEL 1
REMARK VINA RESULT:      -7.5      0.000      0.000
REMARK  Name = 75536179
REMARK  6 active torsions:
REMARK  status: ('A' for Active; 'I' for Inactive)
REMARK    1  A    between atoms: O_2  and  C_9
REMARK    2  A    between atoms: N_5  and  C_14
REMARK    3  A    between atoms: N_6  and  C_19
REMARK    4  A    between atoms: C_8  and  C_9
REMARK    5  A    between atoms: C_9  and  C_11
REMARK    6  A    between atoms: C_20  and  C_21
REMARK                            x       y       z     vdW  Elec       q    Type
REMARK                         _______ _______ _______ _____ _____    ______ ____
ROOT
ATOM     11  C   UNL     1      15.965   6.674  20.104  0.00  0.00    -0.017 A 
ATOM     15  C   UNL     1      16.638   7.180  21.217  0.00  0.00    +0.008 A 
ATOM     16  C   UNL     1      16.675   6.015  19.100  0.00  0.00    +0.008 A 
ATOM     17  C   UNL     1      18.020   7.029  21.324  0.00  0.00    +0.023 A 
ATOM     18  C   UNL     1      18.057   5.863  19.208  0.00  0.00    +0.023 A 
ATOM     19  C   UNL     1      18.730   6.369  20.320  0.00  0.00    +0.034 A 
ENDROOT
BRANCH  19   6
ATOM      4  O   UNL     1      20.395   3.886  20.540  0.00  0.00    -0.270 OA
ATOM      6  N   UNL     1      20.112   6.218  20.427  0.00  0.00    -0.281 N 
ATOM     20  C   UNL     1      20.845   5.026  20.527  0.00  0.00    +0.250 C 
ATOM     27  H   UNL     1      20.627   7.093  20.387  0.00  0.00    +0.155 HD
BRANCH  20  21
ATOM      7  N   UNL     1      24.503   4.174  20.825  0.00  0.00    -0.263 NA
ATOM     21  C   UNL     1      22.320   5.190  20.598  0.00  0.00    +0.055 A 
ATOM     22  C   UNL     1      22.907   6.447  20.508  0.00  0.00    +0.016 A 
ATOM     23  C   UNL     1      23.155   4.095  20.755  0.00  0.00    +0.123 A 
ATOM     24  C   UNL     1      24.290   6.570  20.576  0.00  0.00    +0.020 A 
ATOM     25  C   UNL     1      25.036   5.413  20.733  0.00  0.00    +0.111 A 
ENDBRANCH  20  21
ENDBRANCH  19   6
BRANCH  11   9
ATOM      9  C   UNL     1      14.471   6.839  19.989  0.00  0.00    +0.167 C 
BRANCH   9   8
ATOM      1  O   UNL     1      13.691   8.488  17.691  0.00  0.00    -0.369 OA
ATOM      3  O   UNL     1      10.480   8.423  19.341  0.00  0.00    -0.273 OA
ATOM      5  N   UNL     1      12.609   8.432  20.277  0.00  0.00    -0.295 N 
ATOM      8  C   UNL     1      14.055   8.312  20.047  0.00  0.00    +0.134 C 
ATOM     10  C   UNL     1      14.441   9.041  18.765  0.00  0.00    +0.185 C 
ATOM     12  C   UNL     1      11.704   8.494  19.220  0.00  0.00    +0.241 C 
ATOM     13  C   UNL     1      12.315   8.750  17.847  0.00  0.00    +0.255 C 
ATOM     14  C   UNL     1      12.133   8.301  21.647  0.00  0.00    +0.132 C 
ENDBRANCH   9   8
BRANCH   9   2
ATOM      2  O   UNL     1      13.831   6.128  21.044  0.00  0.00    -0.385 OA
ATOM     26  H   UNL     1      14.512   5.685  21.578  0.00  0.00    +0.210 HD
ENDBRANCH   9   2
ENDBRANCH  11   9
TORSDOF 5
ENDMDL
MODEL 2
REMARK VINA RESULT:      -6.6      2.049      9.262
REMARK  Name = 75536179
REMARK  6 active torsions:
REMARK  status: ('A' for Active; 'I' for Inactive)
REMARK    1  A    between atoms: O_2  and  C_9
REMARK    2  A    between atoms: N_5  and  C_14
REMARK    3  A    between atoms: N_6  and  C_19
REMARK    4  A    between atoms: C_8  and  C_9
REMARK    5  A    between atoms: C_9  and  C_11
REMARK    6  A    between atoms: C_20  and  C_21
REMARK                            x       y       z     vdW  Elec       q    Type
REMARK                         _______ _______ _______ _____ _____    ______ ____
ROOT
ATOM     11  C   UNL     1      19.161   5.790  20.495  0.00  0.00    -0.017 A 
ATOM     15  C   UNL     1      18.443   6.745  21.214  0.00  0.00    +0.008 A 
ATOM     16  C   UNL     1      18.628   5.255  19.321  0.00  0.00    +0.008 A 
ATOM     17  C   UNL     1      17.193   7.165  20.761  0.00  0.00    +0.023 A 
ATOM     18  C   UNL     1      17.378   5.676  18.867  0.00  0.00    +0.023 A 
ATOM     19  C   UNL     1      16.660   6.631  19.587  0.00  0.00    +0.034 A 
ENDROOT
BRANCH  19   6
ATOM      4  O   UNL     1      15.447   9.371  19.511  0.00  0.00    -0.270 OA
ATOM      6  N   UNL     1      15.410   7.050  19.134  0.00  0.00    -0.281 N 
ATOM     20  C   UNL     1      14.888   8.352  19.120  0.00  0.00    +0.250 C 
ATOM     27  H   UNL     1      14.844   6.306  18.737  0.00  0.00    +0.155 HD
BRANCH  20  21
ATOM      7  N   UNL     1      11.133   8.278  18.824  0.00  0.00    -0.263 NA
ATOM     21  C   UNL     1      13.526   8.486  18.543  0.00  0.00    +0.055 A 
ATOM     22  C   UNL     1      13.340   8.929  17.239  0.00  0.00    +0.016 A 
ATOM     23  C   UNL     1      12.399   8.176  19.288  0.00  0.00    +0.123 A 
ATOM     24  C   UNL     1      12.054   9.046  16.725  0.00  0.00    +0.020 A 
ATOM     25  C   UNL     1      10.993   8.711  17.551  0.00  0.00    +0.111 A 
ENDBRANCH  20  21
ENDBRANCH  19   6
BRANCH  11   9
ATOM      9  C   UNL     1      20.511   5.336  20.985  0.00  0.00    +0.167 C 
BRANCH   9   8
ATOM      1  O   UNL     1      22.762   4.877  22.811  0.00  0.00    -0.369 OA
ATOM      3  O   UNL     1      24.500   6.961  20.428  0.00  0.00    -0.273 OA
ATOM      5  N   UNL     1      22.278   7.054  21.110  0.00  0.00    -0.295 N 
ATOM      8  C   UNL     1      21.190   6.401  21.851  0.00  0.00    +0.134 C 
ATOM     10  C   UNL     1      21.729   5.797  23.143  0.00  0.00    +0.185 C 
ATOM     12  C   UNL     1      23.584   6.569  21.153  0.00  0.00    +0.241 C 
ATOM     13  C   UNL     1      23.868   5.543  22.243  0.00  0.00    +0.255 C 
ATOM     14  C   UNL     1      21.917   8.117  20.183  0.00  0.00    +0.132 C 
ENDBRANCH   9   8
BRANCH   9   2
ATOM      2  O   UNL     1      21.346   5.034  19.871  0.00  0.00    -0.385 OA
ATOM     26  H   UNL     1      21.646   5.868  19.473  0.00  0.00    +0.210 HD
ENDBRANCH   9   2
ENDBRANCH  11   9
TORSDOF 5
ENDMDL
MODEL 3
REMARK VINA RESULT:      -6.5     28.574     31.606
REMARK  Name = 75536179
REMARK  6 active torsions:
REMARK  status: ('A' for Active; 'I' for Inactive)
REMARK    1  A    between atoms: O_2  and  C_9
REMARK    2  A    between atoms: N_5  and  C_14
REMARK    3  A    between atoms: N_6  and  C_19
REMARK    4  A    between atoms: C_8  and  C_9
REMARK    5  A    between atoms: C_9  and  C_11
REMARK    6  A    between atoms: C_20  and  C_21
REMARK                            x       y       z     vdW  Elec       q    Type
REMARK                         _______ _______ _______ _____ _____    ______ ____
ROOT
ATOM     11  C   UNL     1     -11.914   8.675  20.407  0.00  0.00    -0.017 A 
ATOM     15  C   UNL     1     -13.080   9.102  21.044  0.00  0.00    +0.008 A 
ATOM     16  C   UNL     1     -11.535   7.333  20.474  0.00  0.00    +0.008 A 
ATOM     17  C   UNL     1     -13.865   8.189  21.748  0.00  0.00    +0.023 A 
ATOM     18  C   UNL     1     -12.320   6.421  21.178  0.00  0.00    +0.023 A 
ATOM     19  C   UNL     1     -13.486   6.848  21.815  0.00  0.00    +0.034 A 
ENDROOT
BRANCH  19   6
ATOM      4  O   UNL     1     -15.748   5.116  20.883  0.00  0.00    -0.270 OA
ATOM      6  N   UNL     1     -14.270   5.935  22.519  0.00  0.00    -0.281 N 
ATOM     20  C   UNL     1     -15.322   5.146  22.033  0.00  0.00    +0.250 C 
ATOM     27  H   UNL     1     -13.999   5.823  23.491  0.00  0.00    +0.155 HD
BRANCH  20  21
ATOM      7  N   UNL     1     -17.788   2.785  23.628  0.00  0.00    -0.263 NA
ATOM     21  C   UNL     1     -15.952   4.240  23.029  0.00  0.00    +0.055 A 
ATOM     22  C   UNL     1     -15.343   3.987  24.253  0.00  0.00    +0.016 A 
ATOM     23  C   UNL     1     -17.163   3.619  22.767  0.00  0.00    +0.123 A 
ATOM     24  C   UNL     1     -15.955   3.135  25.165  0.00  0.00    +0.020 A 
ATOM     25  C   UNL     1     -17.166   2.564  24.807  0.00  0.00    +0.111 A 
ENDBRANCH  20  21
ENDBRANCH  19   6
BRANCH  11   9
ATOM      9  C   UNL     1     -11.066   9.662  19.648  0.00  0.00    +0.167 C 
BRANCH   9   8
ATOM      1  O   UNL     1     -10.049  11.777  17.888  0.00  0.00    -0.369 OA
ATOM      3  O   UNL     1     -10.466   9.224  15.369  0.00  0.00    -0.273 OA
ATOM      5  N   UNL     1     -11.739   9.626  17.274  0.00  0.00    -0.295 N 
ATOM      8  C   UNL     1     -11.860  10.361  18.540  0.00  0.00    +0.134 C 
ATOM     10  C   UNL     1     -11.392  11.800  18.355  0.00  0.00    +0.185 C 
ATOM     12  C   UNL     1     -10.727   9.909  16.359  0.00  0.00    +0.241 C 
ATOM     13  C   UNL     1      -9.970  11.211  16.600  0.00  0.00    +0.255 C 
ATOM     14  C   UNL     1     -12.600   8.468  17.084  0.00  0.00    +0.132 C 
ENDBRANCH   9   8
BRANCH   9   2
ATOM      2  O   UNL     1      -9.952   8.987  19.072  0.00  0.00    -0.385 OA
ATOM     26  H   UNL     1     -10.012   8.043  19.293  0.00  0.00    +0.210 HD
ENDBRANCH   9   2
ENDBRANCH  11   9
TORSDOF 5
ENDMDL
MODEL 4
REMARK VINA RESULT:      -6.4      1.579      2.613
REMARK  Name = 75536179
REMARK  6 active torsions:
REMARK  status: ('A' for Active; 'I' for Inactive)
REMARK    1  A    between atoms: O_2  and  C_9
REMARK    2  A    between atoms: N_5  and  C_14
REMARK    3  A    between atoms: N_6  and  C_19
REMARK    4  A    between atoms: C_8  and  C_9
REMARK    5  A    between atoms: C_9  and  C_11
REMARK    6  A    between atoms: C_20  and  C_21
REMARK                            x       y       z     vdW  Elec       q    Type
REMARK                         _______ _______ _______ _____ _____    ______ ____
ROOT
ATOM     11  C   UNL     1      16.365   7.661  19.915  0.00  0.00    -0.017 A 
ATOM     15  C   UNL     1      16.558   6.478  19.200  0.00  0.00    +0.008 A 
ATOM     16  C   UNL     1      17.348   8.110  20.797  0.00  0.00    +0.008 A 
ATOM     17  C   UNL     1      17.732   5.745  19.369  0.00  0.00    +0.023 A 
ATOM     18  C   UNL     1      18.522   7.377  20.966  0.00  0.00    +0.023 A 
ATOM     19  C   UNL     1      18.715   6.195  20.252  0.00  0.00    +0.034 A 
ENDROOT
BRANCH  19   6
ATOM      4  O   UNL     1      21.576   7.091  20.243  0.00  0.00    -0.270 OA
ATOM      6  N   UNL     1      19.889   5.462  20.421  0.00  0.00    -0.281 N 
ATOM     20  C   UNL     1      21.210   5.932  20.408  0.00  0.00    +0.250 C 
ATOM     27  H   UNL     1      19.736   4.476  20.611  0.00  0.00    +0.155 HD
BRANCH  20  21
ATOM      7  N   UNL     1      24.586   4.265  20.555  0.00  0.00    -0.263 NA
ATOM     21  C   UNL     1      22.255   4.904  20.649  0.00  0.00    +0.055 A 
ATOM     22  C   UNL     1      21.928   3.659  21.173  0.00  0.00    +0.016 A 
ATOM     23  C   UNL     1      23.587   5.156  20.359  0.00  0.00    +0.123 A 
ATOM     24  C   UNL     1      22.927   2.716  21.388  0.00  0.00    +0.020 A 
ATOM     25  C   UNL     1      24.229   3.066  21.066  0.00  0.00    +0.111 A 
ENDBRANCH  20  21
ENDBRANCH  19   6
BRANCH  11   9
ATOM      9  C   UNL     1      15.095   8.452  19.732  0.00  0.00    +0.167 C 
BRANCH   9   8
ATOM      1  O   UNL     1      14.569   9.302  22.491  0.00  0.00    -0.369 OA
ATOM      3  O   UNL     1      11.574  10.657  20.995  0.00  0.00    -0.273 OA
ATOM      5  N   UNL     1      12.747   8.727  20.438  0.00  0.00    -0.295 N 
ATOM      8  C   UNL     1      13.967   7.931  20.627  0.00  0.00    +0.134 C 
ATOM     10  C   UNL     1      14.378   7.949  22.095  0.00  0.00    +0.185 C 
ATOM     12  C   UNL     1      12.482   9.854  21.214  0.00  0.00    +0.241 C 
ATOM     13  C   UNL     1      13.353  10.015  22.455  0.00  0.00    +0.255 C 
ATOM     14  C   UNL     1      11.908   8.410  19.290  0.00  0.00    +0.132 C 
ENDBRANCH   9   8
BRANCH   9   2
ATOM      2  O   UNL     1      14.684   8.384  18.370  0.00  0.00    -0.385 OA
ATOM     26  H   UNL     1      14.652   7.451  18.101  0.00  0.00    +0.210 HD
ENDBRANCH   9   2
ENDBRANCH  11   9
TORSDOF 5
ENDMDL
MODEL 5
REMARK VINA RESULT:      -6.2     28.466     32.168
REMARK  Name = 75536179
REMARK  6 active torsions:
REMARK  status: ('A' for Active; 'I' for Inactive)
REMARK    1  A    between atoms: O_2  and  C_9
REMARK    2  A    between atoms: N_5  and  C_14
REMARK    3  A    between atoms: N_6  and  C_19
REMARK    4  A    between atoms: C_8  and  C_9
REMARK    5  A    between atoms: C_9  and  C_11
REMARK    6  A    between atoms: C_20  and  C_21
REMARK                            x       y       z     vdW  Elec       q    Type
REMARK                         _______ _______ _______ _____ _____    ______ ____
ROOT
ATOM     11  C   UNL     1     -12.991   7.424  20.087  0.00  0.00    -0.017 A 
ATOM     15  C   UNL     1     -12.217   6.643  20.946  0.00  0.00    +0.008 A 
ATOM     16  C   UNL     1     -14.374   7.243  20.036  0.00  0.00    +0.008 A 
ATOM     17  C   UNL     1     -12.825   5.683  21.754  0.00  0.00    +0.023 A 
ATOM     18  C   UNL     1     -14.982   6.283  20.844  0.00  0.00    +0.023 A 
ATOM     19  C   UNL     1     -14.208   5.503  21.704  0.00  0.00    +0.034 A 
ENDROOT
BRANCH  19   6
ATOM      4  O   UNL     1     -16.119   5.825  23.991  0.00  0.00    -0.270 OA
ATOM      6  N   UNL     1     -14.817   4.542  22.511  0.00  0.00    -0.281 N 
ATOM     20  C   UNL     1     -15.708   4.747  23.574  0.00  0.00    +0.250 C 
ATOM     27  H   UNL     1     -14.597   3.586  22.251  0.00  0.00    +0.155 HD
BRANCH  20  21
ATOM      7  N   UNL     1     -17.368   1.396  24.037  0.00  0.00    -0.263 NA
ATOM     21  C   UNL     1     -16.213   3.513  24.229  0.00  0.00    +0.055 A 
ATOM     22  C   UNL     1     -16.024   3.294  25.589  0.00  0.00    +0.016 A 
ATOM     23  C   UNL     1     -16.885   2.541  23.504  0.00  0.00    +0.123 A 
ATOM     24  C   UNL     1     -16.507   2.129  26.175  0.00  0.00    +0.020 A 
ATOM     25  C   UNL     1     -17.166   1.220  25.362  0.00  0.00    +0.111 A 
ENDBRANCH  20  21
ENDBRANCH  19   6
BRANCH  11   9
ATOM      9  C   UNL     1     -12.333   8.460  19.214  0.00  0.00    +0.167 C 
BRANCH   9   8
ATOM      1  O   UNL     1     -10.422  10.360  18.054  0.00  0.00    -0.369 OA
ATOM      3  O   UNL     1     -12.507  12.765  19.760  0.00  0.00    -0.273 OA
ATOM      5  N   UNL     1     -11.954  10.596  20.390  0.00  0.00    -0.295 N 
ATOM      8  C   UNL     1     -11.339   9.320  20.000  0.00  0.00    +0.134 C 
ATOM     10  C   UNL     1     -10.074   9.577  19.189  0.00  0.00    +0.185 C 
ATOM     12  C   UNL     1     -11.875  11.724  19.576  0.00  0.00    +0.241 C 
ATOM     13  C   UNL     1     -10.862  11.643  18.440  0.00  0.00    +0.255 C 
ATOM     14  C   UNL     1     -12.806  10.598  21.571  0.00  0.00    +0.132 C 
ENDBRANCH   9   8
BRANCH   9   2
ATOM      2  O   UNL     1     -13.330   9.301  18.640  0.00  0.00    -0.385 OA
ATOM     26  H   UNL     1     -14.111   8.761  18.436  0.00  0.00    +0.210 HD
ENDBRANCH   9   2
ENDBRANCH  11   9
TORSDOF 5
ENDMDL
MODEL 6
REMARK VINA RESULT:      -6.1     27.799     30.922
REMARK  Name = 75536179
REMARK  6 active torsions:
REMARK  status: ('A' for Active; 'I' for Inactive)
REMARK    1  A    between atoms: O_2  and  C_9
REMARK    2  A    between atoms: N_5  and  C_14
REMARK    3  A    between atoms: N_6  and  C_19
REMARK    4  A    between atoms: C_8  and  C_9
REMARK    5  A    between atoms: C_9  and  C_11
REMARK    6  A    between atoms: C_20  and  C_21
REMARK                            x       y       z     vdW  Elec       q    Type
REMARK                         _______ _______ _______ _____ _____    ______ ____
ROOT
ATOM     11  C   UNL     1      -3.290 -10.623  10.572  0.00  0.00    -0.017 A 
ATOM     15  C   UNL     1      -3.335  -9.266  10.254  0.00  0.00    +0.008 A 
ATOM     16  C   UNL     1      -4.073 -11.533   9.859  0.00  0.00    +0.008 A 
ATOM     17  C   UNL     1      -4.163  -8.817   9.225  0.00  0.00    +0.023 A 
ATOM     18  C   UNL     1      -4.900 -11.084   8.830  0.00  0.00    +0.023 A 
ATOM     19  C   UNL     1      -4.945  -9.726   8.513  0.00  0.00    +0.034 A 
ENDROOT
BRANCH  19   6
ATOM      4  O   UNL     1      -7.777  -8.745   8.595  0.00  0.00    -0.270 OA
ATOM      6  N   UNL     1      -5.774  -9.278   7.484  0.00  0.00    -0.281 N 
ATOM     20  C   UNL     1      -7.098  -8.827   7.577  0.00  0.00    +0.250 C 
ATOM     27  H   UNL     1      -5.323  -9.252   6.574  0.00  0.00    +0.155 HD
BRANCH  20  21
ATOM      7  N   UNL     1      -9.485  -7.201   5.157  0.00  0.00    -0.263 NA
ATOM     21  C   UNL     1      -7.711  -8.384   6.298  0.00  0.00    +0.055 A 
ATOM     22  C   UNL     1      -7.131  -8.706   5.076  0.00  0.00    +0.016 A 
ATOM     23  C   UNL     1      -8.877  -7.636   6.284  0.00  0.00    +0.123 A 
ATOM     24  C   UNL     1      -7.726  -8.277   3.895  0.00  0.00    +0.020 A 
ATOM     25  C   UNL     1      -8.892  -7.533   3.989  0.00  0.00    +0.111 A 
ENDBRANCH  20  21
ENDBRANCH  19   6
BRANCH  11   9
ATOM      9  C   UNL     1      -2.396 -11.107  11.684  0.00  0.00    +0.167 C 
BRANCH   9   8
ATOM      1  O   UNL     1      -1.228 -12.421  14.033  0.00  0.00    -0.369 OA
ATOM      3  O   UNL     1      -3.654 -10.395  15.779  0.00  0.00    -0.273 OA
ATOM      5  N   UNL     1      -3.813 -11.393  13.684  0.00  0.00    -0.295 N 
ATOM      8  C   UNL     1      -3.115 -12.100  12.602  0.00  0.00    +0.134 C 
ATOM     10  C   UNL     1      -2.138 -13.113  13.187  0.00  0.00    +0.185 C 
ATOM     12  C   UNL     1      -3.192 -11.127  14.902  0.00  0.00    +0.241 C 
ATOM     13  C   UNL     1      -1.891 -11.881  15.154  0.00  0.00    +0.255 C 
ATOM     14  C   UNL     1      -5.115 -10.815  13.380  0.00  0.00    +0.132 C 
ENDBRANCH   9   8
BRANCH   9   2
ATOM      2  O   UNL     1      -1.950  -9.995  12.454  0.00  0.00    -0.385 OA
ATOM     26  H   UNL     1      -1.388  -9.434  11.893  0.00  0.00    +0.210 HD
ENDBRANCH   9   2
ENDBRANCH  11   9
TORSDOF 5
ENDMDL
MODEL 7
REMARK VINA RESULT:      -6.1      2.056      9.434
REMARK  Name = 75536179
REMARK  6 active torsions:
REMARK  status: ('A' for Active; 'I' for Inactive)
REMARK    1  A    between atoms: O_2  and  C_9
REMARK    2  A    between atoms: N_5  and  C_14
REMARK    3  A    between atoms: N_6  and  C_19
REMARK    4  A    between atoms: C_8  and  C_9
REMARK    5  A    between atoms: C_9  and  C_11
REMARK    6  A    between atoms: C_20  and  C_21
REMARK                            x       y       z     vdW  Elec       q    Type
REMARK                         _______ _______ _______ _____ _____    ______ ____
ROOT
ATOM     11  C   UNL     1      19.856   6.705  21.453  0.00  0.00    -0.017 A 
ATOM     15  C   UNL     1      19.253   5.894  20.491  0.00  0.00    +0.008 A 
ATOM     16  C   UNL     1      19.161   7.793  21.981  0.00  0.00    +0.008 A 
ATOM     17  C   UNL     1      17.957   6.171  20.057  0.00  0.00    +0.023 A 
ATOM     18  C   UNL     1      17.865   8.070  21.548  0.00  0.00    +0.023 A 
ATOM     19  C   UNL     1      17.262   7.259  20.586  0.00  0.00    +0.034 A 
ENDROOT
BRANCH  19   6
ATOM      4  O   UNL     1      14.687   7.361  22.118  0.00  0.00    -0.270 OA
ATOM      6  N   UNL     1      15.966   7.537  20.152  0.00  0.00    -0.281 N 
ATOM     20  C   UNL     1      14.789   7.572  20.915  0.00  0.00    +0.250 C 
ATOM     27  H   UNL     1      15.903   7.775  19.167  0.00  0.00    +0.155 HD
BRANCH  20  21
ATOM      7  N   UNL     1      12.023   7.450  18.360  0.00  0.00    -0.263 NA
ATOM     21  C   UNL     1      13.557   7.930  20.167  0.00  0.00    +0.055 A 
ATOM     22  C   UNL     1      12.789   9.029  20.535  0.00  0.00    +0.016 A 
ATOM     23  C   UNL     1      13.134   7.179  19.082  0.00  0.00    +0.123 A 
ATOM     24  C   UNL     1      11.639   9.340  19.818  0.00  0.00    +0.020 A 
ATOM     25  C   UNL     1      11.303   8.526  18.748  0.00  0.00    +0.111 A 
ENDBRANCH  20  21
ENDBRANCH  19   6
BRANCH  11   9
ATOM      9  C   UNL     1      21.257   6.405  21.920  0.00  0.00    +0.167 C 
BRANCH   9   8
ATOM      1  O   UNL     1      24.122   6.878  21.506  0.00  0.00    -0.369 OA
ATOM      3  O   UNL     1      24.340   3.383  22.389  0.00  0.00    -0.273 OA
ATOM      5  N   UNL     1      22.663   4.500  21.227  0.00  0.00    -0.295 N 
ATOM      8  C   UNL     1      22.110   5.794  20.805  0.00  0.00    +0.134 C 
ATOM     10  C   UNL     1      23.239   6.735  20.400  0.00  0.00    +0.185 C 
ATOM     12  C   UNL     1      23.900   4.405  21.861  0.00  0.00    +0.241 C 
ATOM     13  C   UNL     1      24.766   5.658  21.799  0.00  0.00    +0.255 C 
ATOM     14  C   UNL     1      21.796   3.334  21.126  0.00  0.00    +0.132 C 
ENDBRANCH   9   8
BRANCH   9   2
ATOM      2  O   UNL     1      21.208   5.504  23.022  0.00  0.00    -0.385 OA
ATOM     26  H   UNL     1      22.107   5.389  23.370  0.00  0.00    +0.210 HD
ENDBRANCH   9   2
ENDBRANCH  11   9
TORSDOF 5
ENDMDL
MODEL 8
REMARK VINA RESULT:      -6.1     17.079     20.420
REMARK  Name = 75536179
REMARK  6 active torsions:
REMARK  status: ('A' for Active; 'I' for Inactive)
REMARK    1  A    between atoms: O_2  and  C_9
REMARK    2  A    between atoms: N_5  and  C_14
REMARK    3  A    between atoms: N_6  and  C_19
REMARK    4  A    between atoms: C_8  and  C_9
REMARK    5  A    between atoms: C_9  and  C_11
REMARK    6  A    between atoms: C_20  and  C_21
REMARK                            x       y       z     vdW  Elec       q    Type
REMARK                         _______ _______ _______ _____ _____    ______ ____
ROOT
ATOM     11  C   UNL     1      11.094   4.743   0.529  0.00  0.00    -0.017 A 
ATOM     15  C   UNL     1      11.583   3.762   1.392  0.00  0.00    +0.008 A 
ATOM     16  C   UNL     1      10.289   5.770   1.024  0.00  0.00    +0.008 A 
ATOM     17  C   UNL     1      11.267   3.807   2.750  0.00  0.00    +0.023 A 
ATOM     18  C   UNL     1       9.973   5.815   2.381  0.00  0.00    +0.023 A 
ATOM     19  C   UNL     1      10.462   4.834   3.245  0.00  0.00    +0.034 A 
ENDROOT
BRANCH  19   6
ATOM      4  O   UNL     1      11.634   6.488   5.453  0.00  0.00    -0.270 OA
ATOM      6  N   UNL     1      10.144   4.879   4.602  0.00  0.00    -0.281 N 
ATOM     20  C   UNL     1      10.727   5.676   5.599  0.00  0.00    +0.250 C 
ATOM     27  H   UNL     1       9.369   4.278   4.864  0.00  0.00    +0.155 HD
BRANCH  20  21
ATOM      7  N   UNL     1       9.699   4.096   8.861  0.00  0.00    -0.263 NA
ATOM     21  C   UNL     1      10.149   5.519   6.958  0.00  0.00    +0.055 A 
ATOM     22  C   UNL     1       9.536   6.586   7.603  0.00  0.00    +0.016 A 
ATOM     23  C   UNL     1      10.204   4.305   7.624  0.00  0.00    +0.123 A 
ATOM     24  C   UNL     1       9.004   6.411   8.876  0.00  0.00    +0.020 A 
ATOM     25  C   UNL     1       9.111   5.157   9.456  0.00  0.00    +0.111 A 
ENDBRANCH  20  21
ENDBRANCH  19   6
BRANCH  11   9
ATOM      9  C   UNL     1      11.436   4.693  -0.938  0.00  0.00    +0.167 C 
BRANCH   9   8
ATOM      1  O   UNL     1      11.792   3.520  -3.604  0.00  0.00    -0.369 OA
ATOM      3  O   UNL     1      15.148   4.789  -3.190  0.00  0.00    -0.273 OA
ATOM      5  N   UNL     1      13.694   3.938  -1.586  0.00  0.00    -0.295 N 
ATOM      8  C   UNL     1      12.329   3.495  -1.274  0.00  0.00    +0.134 C 
ATOM     10  C   UNL     1      11.760   2.698  -2.443  0.00  0.00    +0.185 C 
ATOM     12  C   UNL     1      14.081   4.252  -2.887  0.00  0.00    +0.241 C 
ATOM     13  C   UNL     1      13.120   3.807  -3.983  0.00  0.00    +0.255 C 
ATOM     14  C   UNL     1      14.583   4.216  -0.466  0.00  0.00    +0.132 C 
ENDBRANCH   9   8
BRANCH   9   2
ATOM      2  O   UNL     1      12.102   5.895  -1.312  0.00  0.00    -0.385 OA
ATOM     26  H   UNL     1      11.453   6.618  -1.330  0.00  0.00    +0.210 HD
ENDBRANCH   9   2
ENDBRANCH  11   9
TORSDOF 5
ENDMDL
MODEL 9
REMARK VINA RESULT:      -6.1     27.707     31.543
REMARK  Name = 75536179
REMARK  6 active torsions:
REMARK  status: ('A' for Active; 'I' for Inactive)
REMARK    1  A    between atoms: O_2  and  C_9
REMARK    2  A    between atoms: N_5  and  C_14
REMARK    3  A    between atoms: N_6  and  C_19
REMARK    4  A    between atoms: C_8  and  C_9
REMARK    5  A    between atoms: C_9  and  C_11
REMARK    6  A    between atoms: C_20  and  C_21
REMARK                            x       y       z     vdW  Elec       q    Type
REMARK                         _______ _______ _______ _____ _____    ______ ____
ROOT
ATOM     11  C   UNL     1      -5.046 -10.523  16.986  0.00  0.00    -0.017 A 
ATOM     15  C   UNL     1      -5.239 -11.255  18.158  0.00  0.00    +0.008 A 
ATOM     16  C   UNL     1      -6.097  -9.780  16.448  0.00  0.00    +0.008 A 
ATOM     17  C   UNL     1      -6.481 -11.245  18.791  0.00  0.00    +0.023 A 
ATOM     18  C   UNL     1      -7.340  -9.769  17.081  0.00  0.00    +0.023 A 
ATOM     19  C   UNL     1      -7.532 -10.501  18.252  0.00  0.00    +0.034 A 
ENDROOT
BRANCH  19   6
ATOM      4  O   UNL     1      -9.711 -12.560  18.274  0.00  0.00    -0.270 OA
ATOM      6  N   UNL     1      -8.776 -10.491  18.884  0.00  0.00    -0.281 N 
ATOM     20  C   UNL     1      -9.764 -11.485  18.862  0.00  0.00    +0.250 C 
ATOM     27  H   UNL     1      -8.942  -9.665  19.452  0.00  0.00    +0.155 HD
BRANCH  20  21
ATOM      7  N   UNL     1     -12.735 -11.994  21.123  0.00  0.00    -0.263 NA
ATOM     21  C   UNL     1     -10.979 -11.193  19.665  0.00  0.00    +0.055 A 
ATOM     22  C   UNL     1     -11.503  -9.907  19.731  0.00  0.00    +0.016 A 
ATOM     23  C   UNL     1     -11.627 -12.193  20.373  0.00  0.00    +0.123 A 
ATOM     24  C   UNL     1     -12.641  -9.662  20.491  0.00  0.00    +0.020 A 
ATOM     25  C   UNL     1     -13.214 -10.731  21.162  0.00  0.00    +0.111 A 
ENDBRANCH  20  21
ENDBRANCH  19   6
BRANCH  11   9
ATOM      9  C   UNL     1      -3.703 -10.536  16.303  0.00  0.00    +0.167 C 
BRANCH   9   8
ATOM      1  O   UNL     1      -1.460 -11.064  14.487  0.00  0.00    -0.369 OA
ATOM      3  O   UNL     1      -2.834 -14.403  14.529  0.00  0.00    -0.273 OA
ATOM      5  N   UNL     1      -3.940 -12.361  14.659  0.00  0.00    -0.295 N 
ATOM      8  C   UNL     1      -3.822 -10.906  14.821  0.00  0.00    +0.134 C 
ATOM     10  C   UNL     1      -2.626 -10.389  14.030  0.00  0.00    +0.185 C 
ATOM     12  C   UNL     1      -2.818 -13.172  14.497  0.00  0.00    +0.241 C 
ATOM     13  C   UNL     1      -1.520 -12.439  14.181  0.00  0.00    +0.255 C 
ATOM     14  C   UNL     1      -5.255 -12.955  14.856  0.00  0.00    +0.132 C 
ENDBRANCH   9   8
BRANCH   9   2
ATOM      2  O   UNL     1      -2.847 -11.470  16.953  0.00  0.00    -0.385 OA
ATOM     26  H   UNL     1      -2.471 -11.049  17.744  0.00  0.00    +0.210 HD
ENDBRANCH   9   2
ENDBRANCH  11   9
TORSDOF 5
ENDMDL
MODEL 10
REMARK VINA RESULT:      -6.1     17.223     20.596
REMARK  Name = 75536179
REMARK  6 active torsions:
REMARK  status: ('A' for Active; 'I' for Inactive)
REMARK    1  A    between atoms: O_2  and  C_9
REMARK    2  A    between atoms: N_5  and  C_14
REMARK    3  A    between atoms: N_6  and  C_19
REMARK    4  A    between atoms: C_8  and  C_9
REMARK    5  A    between atoms: C_9  and  C_11
REMARK    6  A    between atoms: C_20  and  C_21
REMARK                            x       y       z     vdW  Elec       q    Type
REMARK                         _______ _______ _______ _____ _____    ______ ____
ROOT
ATOM     11  C   UNL     1      10.629   5.392   3.674  0.00  0.00    -0.017 A 
ATOM     15  C   UNL     1      10.917   4.137   3.137  0.00  0.00    +0.008 A 
ATOM     16  C   UNL     1      10.152   6.411   2.848  0.00  0.00    +0.008 A 
ATOM     17  C   UNL     1      10.729   3.901   1.775  0.00  0.00    +0.023 A 
ATOM     18  C   UNL     1       9.964   6.174   1.486  0.00  0.00    +0.023 A 
ATOM     19  C   UNL     1      10.252   4.919   0.950  0.00  0.00    +0.034 A 
ENDROOT
BRANCH  19   6
ATOM      4  O   UNL     1      12.157   3.875  -1.116  0.00  0.00    -0.270 OA
ATOM      6  N   UNL     1      10.064   4.684  -0.412  0.00  0.00    -0.281 N 
ATOM     20  C   UNL     1      10.993   4.192  -1.339  0.00  0.00    +0.250 C 
ATOM     27  H   UNL     1       9.118   4.866  -0.735  0.00  0.00    +0.155 HD
BRANCH  20  21
ATOM      7  N   UNL     1       9.841   5.024  -4.829  0.00  0.00    -0.263 NA
ATOM     21  C   UNL     1      10.482   4.020  -2.724  0.00  0.00    +0.055 A 
ATOM     22  C   UNL     1      10.172   2.761  -3.223  0.00  0.00    +0.016 A 
ATOM     23  C   UNL     1      10.301   5.111  -3.560  0.00  0.00    +0.123 A 
ATOM     24  C   UNL     1       9.697   2.630  -4.523  0.00  0.00    +0.020 A 
ATOM     25  C   UNL     1       9.550   3.783  -5.278  0.00  0.00    +0.111 A 
ENDBRANCH  20  21
ENDBRANCH  19   6
BRANCH  11   9
ATOM      9  C   UNL     1      10.834   5.647   5.145  0.00  0.00    +0.167 C 
BRANCH   9   8
ATOM      1  O   UNL     1      10.821   5.244   8.051  0.00  0.00    -0.369 OA
ATOM      3  O   UNL     1       8.538   8.041   7.948  0.00  0.00    -0.273 OA
ATOM      5  N   UNL     1       8.824   6.324   6.405  0.00  0.00    -0.295 N 
ATOM      8  C   UNL     1       9.636   5.178   5.976  0.00  0.00    +0.134 C 
ATOM     10  C   UNL     1      10.091   4.378   7.191  0.00  0.00    +0.185 C 
ATOM     12  C   UNL     1       9.064   6.979   7.611  0.00  0.00    +0.241 C 
ATOM     13  C   UNL     1       9.986   6.249   8.581  0.00  0.00    +0.255 C 
ATOM     14  C   UNL     1       7.874   6.871   5.447  0.00  0.00    +0.132 C 
ENDBRANCH   9   8
BRANCH   9   2
ATOM      2  O   UNL     1      11.040   7.040   5.362  0.00  0.00    -0.385 OA
ATOM     26  H   UNL     1      10.389   7.352   6.013  0.00  0.00    +0.210 HD
ENDBRANCH   9   2
ENDBRANCH  11   9
TORSDOF 5
ENDMDL
