MODEL 1
REMARK VINA RESULT:      -6.4      0.000      0.000
REMARK  Name = 75368422
REMARK  3 active torsions:
REMARK  status: ('A' for Active; 'I' for Inactive)
REMARK    1  A    between atoms: N_6  and  C_17
REMARK    2  A    between atoms: C_13  and  C_14
REMARK    3  A    between atoms: C_17  and  C_20
REMARK                            x       y       z     vdW  Elec       q    Type
REMARK                         _______ _______ _______ _____ _____    ______ ____
ROOT
ATOM      2  O   UNL     1      11.677   8.675  19.054  0.00  0.00    -0.252 OA
ATOM      3  O   UNL     1      18.224   6.331  19.334  0.00  0.00    -0.275 OA
ATOM      4  N   UNL     1      13.821   8.236  19.908  0.00  0.00    -0.278 N 
ATOM      5  N   UNL     1      16.178   6.816  20.320  0.00  0.00    -0.298 N 
ATOM      6  N   UNL     1      12.235   8.957  21.328  0.00  0.00    -0.279 N 
ATOM      7  C   UNL     1      14.514   8.409  21.173  0.00  0.00    +0.112 C 
ATOM      8  C   UNL     1      15.357   7.178  21.492  0.00  0.00    +0.132 C 
ATOM      9  C   UNL     1      13.390   8.689  22.167  0.00  0.00    +0.133 C 
ATOM     10  C   UNL     1      14.558   7.801  18.736  0.00  0.00    +0.128 C 
ATOM     11  C   UNL     1      15.416   6.586  19.083  0.00  0.00    +0.127 C 
ATOM     12  C   UNL     1      12.477   8.631  19.978  0.00  0.00    +0.306 C 
ATOM     14  C   UNL     1      17.563   6.659  20.323  0.00  0.00    +0.219 C 
ENDROOT
BRANCH  14  13
ATOM      1  O   UNL     1      20.768   8.315  21.290  0.00  0.00    -0.380 OA
ATOM     13  C   UNL     1      18.264   6.916  21.625  0.00  0.00    +0.079 C 
ATOM     15  C   UNL     1      19.618   6.206  21.667  0.00  0.00    +0.041 C 
ATOM     16  C   UNL     1      18.409   8.419  21.857  0.00  0.00    +0.041 C 
ATOM     18  C   UNL     1      20.690   6.952  20.879  0.00  0.00    +0.160 C 
ATOM     19  C   UNL     1      19.551   9.017  21.044  0.00  0.00    +0.160 C 
ENDBRANCH  14  13
BRANCH   6  17
ATOM     17  C   UNL     1      10.966   9.375  21.881  0.00  0.00    +0.144 C 
BRANCH  17  20
ATOM     20  C   UNL     1      11.061  10.713  22.556  0.00  0.00    -0.030 A 
ATOM     21  C   UNL     1      11.294  11.861  21.799  0.00  0.00    +0.005 A 
ATOM     22  C   UNL     1      10.918  10.808  23.940  0.00  0.00    +0.005 A 
ATOM     23  C   UNL     1      11.383  13.104  22.425  0.00  0.00    +0.000 A 
ATOM     24  C   UNL     1      11.008  12.051  24.567  0.00  0.00    +0.000 A 
ATOM     25  C   UNL     1      11.240  13.199  23.810  0.00  0.00    +0.000 A 
ENDBRANCH  17  20
ENDBRANCH   6  17
TORSDOF 3
ENDMDL
MODEL 2
REMARK VINA RESULT:      -6.3     27.488     30.152
REMARK  Name = 75368422
REMARK  3 active torsions:
REMARK  status: ('A' for Active; 'I' for Inactive)
REMARK    1  A    between atoms: N_6  and  C_17
REMARK    2  A    between atoms: C_13  and  C_14
REMARK    3  A    between atoms: C_17  and  C_20
REMARK                            x       y       z     vdW  Elec       q    Type
REMARK                         _______ _______ _______ _____ _____    ______ ____
ROOT
ATOM      2  O   UNL     1      -1.727 -11.330  15.262  0.00  0.00    -0.252 OA
ATOM      3  O   UNL     1      -6.798 -11.497  20.027  0.00  0.00    -0.275 OA
ATOM      4  N   UNL     1      -3.886 -11.509  16.171  0.00  0.00    -0.278 N 
ATOM      5  N   UNL     1      -5.840 -12.196  18.030  0.00  0.00    -0.298 N 
ATOM      6  N   UNL     1      -3.579 -12.107  14.027  0.00  0.00    -0.279 N 
ATOM      7  C   UNL     1      -5.219 -11.819  15.683  0.00  0.00    +0.112 C 
ATOM      8  C   UNL     1      -5.944 -12.738  16.662  0.00  0.00    +0.132 C 
ATOM      9  C   UNL     1      -4.968 -12.424  14.304  0.00  0.00    +0.133 C 
ATOM     10  C   UNL     1      -3.707 -11.050  17.536  0.00  0.00    +0.128 C 
ATOM     11  C   UNL     1      -4.463 -11.966  18.496  0.00  0.00    +0.127 C 
ATOM     12  C   UNL     1      -2.914 -11.610  15.165  0.00  0.00    +0.306 C 
ATOM     14  C   UNL     1      -6.914 -11.928  18.876  0.00  0.00    +0.219 C 
ENDROOT
BRANCH  14  13
ATOM      1  O   UNL     1     -10.316 -12.304  20.372  0.00  0.00    -0.380 OA
ATOM     13  C   UNL     1      -8.285 -12.187  18.322  0.00  0.00    +0.079 C 
ATOM     15  C   UNL     1      -8.848 -13.506  18.850  0.00  0.00    +0.041 C 
ATOM     16  C   UNL     1      -9.210 -11.012  18.638  0.00  0.00    +0.041 C 
ATOM     18  C   UNL     1      -9.386 -13.381  20.272  0.00  0.00    +0.160 C 
ATOM     19  C   UNL     1      -9.709 -11.048  20.078  0.00  0.00    +0.160 C 
ENDBRANCH  14  13
BRANCH   6  17
ATOM     17  C   UNL     1      -2.961 -12.416  12.756  0.00  0.00    +0.144 C 
BRANCH  17  20
ATOM     20  C   UNL     1      -3.091 -11.283  11.779  0.00  0.00    -0.030 A 
ATOM     21  C   UNL     1      -4.196 -11.216  10.931  0.00  0.00    +0.005 A 
ATOM     22  C   UNL     1      -2.106 -10.298  11.719  0.00  0.00    +0.005 A 
ATOM     23  C   UNL     1      -4.316 -10.164  10.023  0.00  0.00    +0.000 A 
ATOM     24  C   UNL     1      -2.225  -9.246  10.812  0.00  0.00    +0.000 A 
ATOM     25  C   UNL     1      -3.330  -9.178   9.963  0.00  0.00    +0.000 A 
ENDBRANCH  17  20
ENDBRANCH   6  17
TORSDOF 3
ENDMDL
MODEL 3
REMARK VINA RESULT:      -6.2     27.177     29.847
REMARK  Name = 75368422
REMARK  3 active torsions:
REMARK  status: ('A' for Active; 'I' for Inactive)
REMARK    1  A    between atoms: N_6  and  C_17
REMARK    2  A    between atoms: C_13  and  C_14
REMARK    3  A    between atoms: C_17  and  C_20
REMARK                            x       y       z     vdW  Elec       q    Type
REMARK                         _______ _______ _______ _____ _____    ______ ____
ROOT
ATOM      2  O   UNL     1      -1.518 -10.537  14.405  0.00  0.00    -0.252 OA
ATOM      3  O   UNL     1      -6.631 -10.808  19.120  0.00  0.00    -0.275 OA
ATOM      4  N   UNL     1      -3.681 -10.761  15.293  0.00  0.00    -0.278 N 
ATOM      5  N   UNL     1      -5.638 -11.488  17.134  0.00  0.00    -0.298 N 
ATOM      6  N   UNL     1      -3.340 -11.355  13.153  0.00  0.00    -0.279 N 
ATOM      7  C   UNL     1      -5.002 -11.100  14.793  0.00  0.00    +0.112 C 
ATOM      8  C   UNL     1      -5.717 -12.034  15.765  0.00  0.00    +0.132 C 
ATOM      9  C   UNL     1      -4.725 -11.701  13.417  0.00  0.00    +0.133 C 
ATOM     10  C   UNL     1      -3.525 -10.297  16.659  0.00  0.00    +0.128 C 
ATOM     11  C   UNL     1      -4.271 -11.228  17.613  0.00  0.00    +0.127 C 
ATOM     12  C   UNL     1      -2.697 -10.842  14.297  0.00  0.00    +0.306 C 
ATOM     14  C   UNL     1      -6.726 -11.242  17.969  0.00  0.00    +0.219 C 
ENDROOT
BRANCH  14  13
ATOM      1  O   UNL     1     -10.107  -9.703  18.356  0.00  0.00    -0.380 OA
ATOM     13  C   UNL     1      -8.085 -11.531  17.402  0.00  0.00    +0.079 C 
ATOM     15  C   UNL     1      -9.073 -11.899  18.509  0.00  0.00    +0.041 C 
ATOM     16  C   UNL     1      -8.577 -10.339  16.581  0.00  0.00    +0.041 C 
ATOM     18  C   UNL     1      -9.587 -10.674  19.260  0.00  0.00    +0.160 C 
ATOM     19  C   UNL     1      -9.107  -9.216  17.464  0.00  0.00    +0.160 C 
ENDBRANCH  14  13
BRANCH   6  17
ATOM     17  C   UNL     1      -2.704 -11.652  11.888  0.00  0.00    +0.144 C 
BRANCH  17  20
ATOM     20  C   UNL     1      -3.349 -10.915  10.749  0.00  0.00    -0.030 A 
ATOM     21  C   UNL     1      -4.080 -11.615   9.791  0.00  0.00    +0.005 A 
ATOM     22  C   UNL     1      -3.214  -9.531  10.650  0.00  0.00    +0.005 A 
ATOM     23  C   UNL     1      -4.678 -10.932   8.732  0.00  0.00    +0.000 A 
ATOM     24  C   UNL     1      -3.812  -8.846   9.592  0.00  0.00    +0.000 A 
ATOM     25  C   UNL     1      -4.544  -9.546   8.633  0.00  0.00    +0.000 A 
ENDBRANCH  17  20
ENDBRANCH   6  17
TORSDOF 3
ENDMDL
MODEL 4
REMARK VINA RESULT:      -6.2     18.162     21.417
REMARK  Name = 75368422
REMARK  3 active torsions:
REMARK  status: ('A' for Active; 'I' for Inactive)
REMARK    1  A    between atoms: N_6  and  C_17
REMARK    2  A    between atoms: C_13  and  C_14
REMARK    3  A    between atoms: C_17  and  C_20
REMARK                            x       y       z     vdW  Elec       q    Type
REMARK                         _______ _______ _______ _____ _____    ______ ____
ROOT
ATOM      2  O   UNL     1      13.735   5.890  -0.611  0.00  0.00    -0.252 OA
ATOM      3  O   UNL     1      11.128   7.874   5.530  0.00  0.00    -0.275 OA
ATOM      4  N   UNL     1      12.299   5.969   1.247  0.00  0.00    -0.278 N 
ATOM      5  N   UNL     1      11.568   6.264   3.916  0.00  0.00    -0.298 N 
ATOM      6  N   UNL     1      12.100   4.246  -0.182  0.00  0.00    -0.279 N 
ATOM      7  C   UNL     1      11.149   5.225   1.730  0.00  0.00    +0.112 C 
ATOM      8  C   UNL     1      11.258   4.993   3.234  0.00  0.00    +0.132 C 
ATOM      9  C   UNL     1      11.160   3.953   0.885  0.00  0.00    +0.133 C 
ATOM     10  C   UNL     1      12.707   7.185   1.925  0.00  0.00    +0.128 C 
ATOM     11  C   UNL     1      12.782   6.940   3.431  0.00  0.00    +0.127 C 
ATOM     12  C   UNL     1      12.825   5.429   0.064  0.00  0.00    +0.306 C 
ATOM     14  C   UNL     1      10.832   6.821   4.960  0.00  0.00    +0.219 C 
ENDROOT
BRANCH  14  13
ATOM      1  O   UNL     1       8.315   7.260   7.684  0.00  0.00    -0.380 OA
ATOM     13  C   UNL     1       9.607   6.069   5.391  0.00  0.00    +0.079 C 
ATOM     15  C   UNL     1       9.772   5.521   6.809  0.00  0.00    +0.041 C 
ATOM     16  C   UNL     1       8.373   6.964   5.274  0.00  0.00    +0.041 C 
ATOM     18  C   UNL     1       9.559   6.591   7.875  0.00  0.00    +0.160 C 
ATOM     19  C   UNL     1       8.265   7.946   6.434  0.00  0.00    +0.160 C 
ENDBRANCH  14  13
BRANCH   6  17
ATOM     17  C   UNL     1      12.328   3.328  -1.276  0.00  0.00    +0.144 C 
BRANCH  17  20
ATOM     20  C   UNL     1      11.178   3.308  -2.241  0.00  0.00    -0.030 A 
ATOM     21  C   UNL     1      10.725   2.097  -2.762  0.00  0.00    +0.005 A 
ATOM     22  C   UNL     1      10.565   4.503  -2.619  0.00  0.00    +0.005 A 
ATOM     23  C   UNL     1       9.658   2.079  -3.659  0.00  0.00    +0.000 A 
ATOM     24  C   UNL     1       9.498   4.485  -3.516  0.00  0.00    +0.000 A 
ATOM     25  C   UNL     1       9.043   3.273  -4.037  0.00  0.00    +0.000 A 
ENDBRANCH  17  20
ENDBRANCH   6  17
TORSDOF 3
ENDMDL
MODEL 5
REMARK VINA RESULT:      -5.9     29.135     30.993
REMARK  Name = 75368422
REMARK  3 active torsions:
REMARK  status: ('A' for Active; 'I' for Inactive)
REMARK    1  A    between atoms: N_6  and  C_17
REMARK    2  A    between atoms: C_13  and  C_14
REMARK    3  A    between atoms: C_17  and  C_20
REMARK                            x       y       z     vdW  Elec       q    Type
REMARK                         _______ _______ _______ _____ _____    ______ ____
ROOT
ATOM      2  O   UNL     1     -13.712  -8.239  14.737  0.00  0.00    -0.252 OA
ATOM      3  O   UNL     1      -8.557 -11.657  17.928  0.00  0.00    -0.275 OA
ATOM      4  N   UNL     1     -11.576  -8.683  15.607  0.00  0.00    -0.278 N 
ATOM      5  N   UNL     1      -9.685  -9.704  17.375  0.00  0.00    -0.298 N 
ATOM      6  N   UNL     1     -12.051  -6.582  14.967  0.00  0.00    -0.279 N 
ATOM      7  C   UNL     1     -10.326  -7.960  15.769  0.00  0.00    +0.112 C 
ATOM      8  C   UNL     1      -9.717  -8.248  17.138  0.00  0.00    +0.132 C 
ATOM      9  C   UNL     1     -10.718  -6.502  15.538  0.00  0.00    +0.133 C 
ATOM     10  C   UNL     1     -11.631 -10.102  15.904  0.00  0.00    +0.128 C 
ATOM     11  C   UNL     1     -10.992 -10.373  17.264  0.00  0.00    +0.127 C 
ATOM     12  C   UNL     1     -12.588  -7.881  15.060  0.00  0.00    +0.306 C 
ATOM     14  C   UNL     1      -8.552 -10.443  17.709  0.00  0.00    +0.219 C 
ENDROOT
BRANCH  14  13
ATOM      1  O   UNL     1      -4.958 -11.326  17.209  0.00  0.00    -0.380 OA
ATOM     13  C   UNL     1      -7.260  -9.685  17.798  0.00  0.00    +0.079 C 
ATOM     15  C   UNL     1      -6.359 -10.264  18.890  0.00  0.00    +0.041 C 
ATOM     16  C   UNL     1      -6.562  -9.673  16.439  0.00  0.00    +0.041 C 
ATOM     18  C   UNL     1      -5.646 -11.536  18.440  0.00  0.00    +0.160 C 
ATOM     19  C   UNL     1      -5.851 -10.990  16.149  0.00  0.00    +0.160 C 
ENDBRANCH  14  13
BRANCH   6  17
ATOM     17  C   UNL     1     -12.755  -5.408  14.500  0.00  0.00    +0.144 C 
BRANCH  17  20
ATOM     20  C   UNL     1     -12.483  -5.131  13.049  0.00  0.00    -0.030 A 
ATOM     21  C   UNL     1     -12.432  -6.183  12.135  0.00  0.00    +0.005 A 
ATOM     22  C   UNL     1     -12.279  -3.821  12.616  0.00  0.00    +0.005 A 
ATOM     23  C   UNL     1     -12.178  -5.926  10.788  0.00  0.00    +0.000 A 
ATOM     24  C   UNL     1     -12.025  -3.563  11.269  0.00  0.00    +0.000 A 
ATOM     25  C   UNL     1     -11.975  -4.615  10.355  0.00  0.00    +0.000 A 
ENDBRANCH  17  20
ENDBRANCH   6  17
TORSDOF 3
ENDMDL
MODEL 6
REMARK VINA RESULT:      -5.8     14.660     17.441
REMARK  Name = 75368422
REMARK  3 active torsions:
REMARK  status: ('A' for Active; 'I' for Inactive)
REMARK    1  A    between atoms: N_6  and  C_17
REMARK    2  A    between atoms: C_13  and  C_14
REMARK    3  A    between atoms: C_17  and  C_20
REMARK                            x       y       z     vdW  Elec       q    Type
REMARK                         _______ _______ _______ _____ _____    ______ ____
ROOT
ATOM      2  O   UNL     1      16.579  10.975   4.216  0.00  0.00    -0.252 OA
ATOM      3  O   UNL     1      10.856   8.696   7.456  0.00  0.00    -0.275 OA
ATOM      4  N   UNL     1      14.920   9.490   4.966  0.00  0.00    -0.278 N 
ATOM      5  N   UNL     1      13.037   8.414   6.710  0.00  0.00    -0.298 N 
ATOM      6  N   UNL     1      16.788   8.632   4.058  0.00  0.00    -0.279 N 
ATOM      7  C   UNL     1      14.677   8.059   4.916  0.00  0.00    +0.112 C 
ATOM      8  C   UNL     1      14.153   7.559   6.259  0.00  0.00    +0.132 C 
ATOM      9  C   UNL     1      16.027   7.477   4.501  0.00  0.00    +0.133 C 
ATOM     10  C   UNL     1      13.892  10.378   5.478  0.00  0.00    +0.128 C 
ATOM     11  C   UNL     1      13.361   9.846   6.807  0.00  0.00    +0.127 C 
ATOM     12  C   UNL     1      16.149   9.843   4.389  0.00  0.00    +0.306 C 
ATOM     14  C   UNL     1      11.765   7.963   7.058  0.00  0.00    +0.219 C 
ENDROOT
BRANCH  14  13
ATOM      1  O   UNL     1       8.765   5.868   6.311  0.00  0.00    -0.380 OA
ATOM     13  C   UNL     1      11.517   6.488   6.927  0.00  0.00    +0.079 C 
ATOM     15  C   UNL     1      10.524   6.004   7.984  0.00  0.00    +0.041 C 
ATOM     16  C   UNL     1      11.040   6.159   5.513  0.00  0.00    +0.041 C 
ATOM     18  C   UNL     1       9.080   6.336   7.620  0.00  0.00    +0.160 C 
ATOM     19  C   UNL     1       9.567   6.496   5.313  0.00  0.00    +0.160 C 
ENDBRANCH  14  13
BRANCH   6  17
ATOM     17  C   UNL     1      18.106   8.503   3.478  0.00  0.00    +0.144 C 
BRANCH  17  20
ATOM     20  C   UNL     1      19.148   8.193   4.514  0.00  0.00    -0.030 A 
ATOM     21  C   UNL     1      19.063   8.766   5.783  0.00  0.00    +0.005 A 
ATOM     22  C   UNL     1      20.202   7.332   4.207  0.00  0.00    +0.005 A 
ATOM     23  C   UNL     1      20.031   8.478   6.745  0.00  0.00    +0.000 A 
ATOM     24  C   UNL     1      21.170   7.044   5.169  0.00  0.00    +0.000 A 
ATOM     25  C   UNL     1      21.085   7.616   6.438  0.00  0.00    +0.000 A 
ENDBRANCH  17  20
ENDBRANCH   6  17
TORSDOF 3
ENDMDL
MODEL 7
REMARK VINA RESULT:      -5.8     19.475     23.174
REMARK  Name = 75368422
REMARK  3 active torsions:
REMARK  status: ('A' for Active; 'I' for Inactive)
REMARK    1  A    between atoms: N_6  and  C_17
REMARK    2  A    between atoms: C_13  and  C_14
REMARK    3  A    between atoms: C_17  and  C_20
REMARK                            x       y       z     vdW  Elec       q    Type
REMARK                         _______ _______ _______ _____ _____    ______ ____
ROOT
ATOM      2  O   UNL     1      -1.809  10.324  40.116  0.00  0.00    -0.252 OA
ATOM      3  O   UNL     1       0.136  14.954  35.297  0.00  0.00    -0.275 OA
ATOM      4  N   UNL     1      -1.309  11.221  38.003  0.00  0.00    -0.278 N 
ATOM      5  N   UNL     1      -1.148  13.154  36.008  0.00  0.00    -0.298 N 
ATOM      6  N   UNL     1      -2.380   9.247  38.097  0.00  0.00    -0.279 N 
ATOM      7  C   UNL     1      -1.401  10.789  36.619  0.00  0.00    +0.112 C 
ATOM      8  C   UNL     1      -1.916  11.923  35.739  0.00  0.00    +0.132 C 
ATOM      9  C   UNL     1      -2.311   9.564  36.681  0.00  0.00    +0.133 C 
ATOM     10  C   UNL     1      -0.638  12.466  38.326  0.00  0.00    +0.128 C 
ATOM     11  C   UNL     1      -1.146  13.582  37.416  0.00  0.00    +0.127 C 
ATOM     12  C   UNL     1      -1.827  10.270  38.893  0.00  0.00    +0.306 C 
ATOM     14  C   UNL     1      -0.479  13.914  35.049  0.00  0.00    +0.219 C 
ENDROOT
BRANCH  14  13
ATOM      1  O   UNL     1       0.551  15.290  31.734  0.00  0.00    -0.380 OA
ATOM     13  C   UNL     1      -0.527  13.406  33.638  0.00  0.00    +0.079 C 
ATOM     15  C   UNL     1      -1.413  14.295  32.766  0.00  0.00    +0.041 C 
ATOM     16  C   UNL     1       0.888  13.291  33.072  0.00  0.00    +0.041 C 
ATOM     18  C   UNL     1      -0.707  15.578  32.339  0.00  0.00    +0.160 C 
ATOM     19  C   UNL     1       1.443  14.644  32.640  0.00  0.00    +0.160 C 
ENDBRANCH  14  13
BRANCH   6  17
ATOM     17  C   UNL     1      -3.069   8.074  38.586  0.00  0.00    +0.144 C 
BRANCH  17  20
ATOM     20  C   UNL     1      -2.112   6.999  39.014  0.00  0.00    -0.030 A 
ATOM     21  C   UNL     1      -0.864   6.891  38.402  0.00  0.00    +0.005 A 
ATOM     22  C   UNL     1      -2.473   6.106  40.024  0.00  0.00    +0.005 A 
ATOM     23  C   UNL     1       0.024   5.892  38.798  0.00  0.00    +0.000 A 
ATOM     24  C   UNL     1      -1.585   5.107  40.421  0.00  0.00    +0.000 A 
ATOM     25  C   UNL     1      -0.336   4.999  39.809  0.00  0.00    +0.000 A 
ENDBRANCH  17  20
ENDBRANCH   6  17
TORSDOF 3
ENDMDL
MODEL 8
REMARK VINA RESULT:      -5.8     18.284     22.219
REMARK  Name = 75368422
REMARK  3 active torsions:
REMARK  status: ('A' for Active; 'I' for Inactive)
REMARK    1  A    between atoms: N_6  and  C_17
REMARK    2  A    between atoms: C_13  and  C_14
REMARK    3  A    between atoms: C_17  and  C_20
REMARK                            x       y       z     vdW  Elec       q    Type
REMARK                         _______ _______ _______ _____ _____    ______ ____
ROOT
ATOM      2  O   UNL     1      -2.135  13.856  34.238  0.00  0.00    -0.252 OA
ATOM      3  O   UNL     1      -2.930   8.304  38.361  0.00  0.00    -0.275 OA
ATOM      4  N   UNL     1      -1.570  11.981  35.537  0.00  0.00    -0.278 N 
ATOM      5  N   UNL     1      -1.746  10.167  37.640  0.00  0.00    -0.298 N 
ATOM      6  N   UNL     1       0.079  13.359  34.878  0.00  0.00    -0.279 N 
ATOM      7  C   UNL     1      -0.350  11.335  35.990  0.00  0.00    +0.112 C 
ATOM      8  C   UNL     1      -0.483  10.907  37.448  0.00  0.00    +0.132 C 
ATOM      9  C   UNL     1       0.733  12.379  35.727  0.00  0.00    +0.133 C 
ATOM     10  C   UNL     1      -2.852  11.344  35.769  0.00  0.00    +0.128 C 
ATOM     11  C   UNL     1      -2.954  10.898  37.226  0.00  0.00    +0.127 C 
ATOM     12  C   UNL     1      -1.313  13.152  34.809  0.00  0.00    +0.306 C 
ATOM     14  C   UNL     1      -1.858   8.891  38.188  0.00  0.00    +0.219 C 
ENDROOT
BRANCH  14  13
ATOM      1  O   UNL     1      -0.926   6.324  40.735  0.00  0.00    -0.380 OA
ATOM     13  C   UNL     1      -0.577   8.215  38.580  0.00  0.00    +0.079 C 
ATOM     15  C   UNL     1      -0.209   8.538  40.029  0.00  0.00    +0.041 C 
ATOM     16  C   UNL     1      -0.686   6.708  38.349  0.00  0.00    +0.041 C 
ATOM     18  C   UNL     1      -1.014   7.716  41.030  0.00  0.00    +0.160 C 
ATOM     19  C   UNL     1      -1.472   6.015  39.455  0.00  0.00    +0.160 C 
ENDBRANCH  14  13
BRANCH   6  17
ATOM     17  C   UNL     1       0.796  14.477  34.306  0.00  0.00    +0.144 C 
BRANCH  17  20
ATOM     20  C   UNL     1       1.220  14.209  32.891  0.00  0.00    -0.030 A 
ATOM     21  C   UNL     1       1.167  12.912  32.381  0.00  0.00    +0.005 A 
ATOM     22  C   UNL     1       1.667  15.257  32.087  0.00  0.00    +0.005 A 
ATOM     23  C   UNL     1       1.561  12.662  31.067  0.00  0.00    +0.000 A 
ATOM     24  C   UNL     1       2.061  15.008  30.772  0.00  0.00    +0.000 A 
ATOM     25  C   UNL     1       2.008  13.711  30.261  0.00  0.00    +0.000 A 
ENDBRANCH  17  20
ENDBRANCH   6  17
TORSDOF 3
ENDMDL
MODEL 9
REMARK VINA RESULT:      -5.8     27.729     29.608
REMARK  Name = 75368422
REMARK  3 active torsions:
REMARK  status: ('A' for Active; 'I' for Inactive)
REMARK    1  A    between atoms: N_6  and  C_17
REMARK    2  A    between atoms: C_13  and  C_14
REMARK    3  A    between atoms: C_17  and  C_20
REMARK                            x       y       z     vdW  Elec       q    Type
REMARK                         _______ _______ _______ _____ _____    ______ ____
ROOT
ATOM      2  O   UNL     1      -7.827 -10.722  19.750  0.00  0.00    -0.252 OA
ATOM      3  O   UNL     1      -2.696 -11.020  15.057  0.00  0.00    -0.275 OA
ATOM      4  N   UNL     1      -6.763 -10.829  17.658  0.00  0.00    -0.278 N 
ATOM      5  N   UNL     1      -4.803 -10.330  15.746  0.00  0.00    -0.298 N 
ATOM      6  N   UNL     1      -8.959 -10.355  17.715  0.00  0.00    -0.279 N 
ATOM      7  C   UNL     1      -7.162 -10.780  16.263  0.00  0.00    +0.112 C 
ATOM      8  C   UNL     1      -6.191  -9.919  15.460  0.00  0.00    +0.132 C 
ATOM      9  C   UNL     1      -8.594 -10.250  16.314  0.00  0.00    +0.133 C 
ATOM     10  C   UNL     1      -5.390 -11.146  18.004  0.00  0.00    +0.128 C 
ATOM     11  C   UNL     1      -4.434 -10.295  17.171  0.00  0.00    +0.127 C 
ATOM     12  C   UNL     1      -7.847 -10.648  18.529  0.00  0.00    +0.306 C 
ATOM     14  C   UNL     1      -3.859 -10.705  14.792  0.00  0.00    +0.219 C 
ENDROOT
BRANCH  14  13
ATOM      1  O   UNL     1      -2.861 -12.606  11.737  0.00  0.00    -0.380 OA
ATOM     13  C   UNL     1      -4.318 -10.717  13.363  0.00  0.00    +0.079 C 
ATOM     15  C   UNL     1      -3.189 -10.296  12.422  0.00  0.00    +0.041 C 
ATOM     16  C   UNL     1      -4.871 -12.094  13.001  0.00  0.00    +0.041 C 
ATOM     18  C   UNL     1      -2.193 -11.423  12.169  0.00  0.00    +0.160 C 
ATOM     19  C   UNL     1      -3.761 -13.102  12.726  0.00  0.00    +0.160 C 
ENDBRANCH  14  13
BRANCH   6  17
ATOM     17  C   UNL     1     -10.292 -10.048  18.184  0.00  0.00    +0.144 C 
BRANCH  17  20
ATOM     20  C   UNL     1     -10.906  -8.908  17.424  0.00  0.00    -0.030 A 
ATOM     21  C   UNL     1     -10.264  -7.671  17.383  0.00  0.00    +0.005 A 
ATOM     22  C   UNL     1     -12.120  -9.086  16.760  0.00  0.00    +0.005 A 
ATOM     23  C   UNL     1     -10.834  -6.612  16.677  0.00  0.00    +0.000 A 
ATOM     24  C   UNL     1     -12.691  -8.027  16.054  0.00  0.00    +0.000 A 
ATOM     25  C   UNL     1     -12.048  -6.790  16.012  0.00  0.00    +0.000 A 
ENDBRANCH  17  20
ENDBRANCH   6  17
TORSDOF 3
ENDMDL
MODEL 10
REMARK VINA RESULT:      -5.7     27.342     29.789
REMARK  Name = 75368422
REMARK  3 active torsions:
REMARK  status: ('A' for Active; 'I' for Inactive)
REMARK    1  A    between atoms: N_6  and  C_17
REMARK    2  A    between atoms: C_13  and  C_14
REMARK    3  A    between atoms: C_17  and  C_20
REMARK                            x       y       z     vdW  Elec       q    Type
REMARK                         _______ _______ _______ _____ _____    ______ ____
ROOT
ATOM      2  O   UNL     1      -1.468 -10.860  14.271  0.00  0.00    -0.252 OA
ATOM      3  O   UNL     1      -5.023  -9.891   8.366  0.00  0.00    -0.275 OA
ATOM      4  N   UNL     1      -3.301 -10.641  12.818  0.00  0.00    -0.278 N 
ATOM      5  N   UNL     1      -4.766  -9.664  10.663  0.00  0.00    -0.298 N 
ATOM      6  N   UNL     1      -3.685 -10.608  15.032  0.00  0.00    -0.279 N 
ATOM      7  C   UNL     1      -4.748 -10.592  12.937  0.00  0.00    +0.112 C 
ATOM      8  C   UNL     1      -5.323  -9.516  12.022  0.00  0.00    +0.132 C 
ATOM      9  C   UNL     1      -4.981 -10.355  14.428  0.00  0.00    +0.133 C 
ATOM     10  C   UNL     1      -2.688 -10.703  11.504  0.00  0.00    +0.128 C 
ATOM     11  C   UNL     1      -3.296  -9.638  10.595  0.00  0.00    +0.127 C 
ATOM     12  C   UNL     1      -2.666 -10.723  14.066  0.00  0.00    +0.306 C 
ATOM     14  C   UNL     1      -5.514  -9.793   9.494  0.00  0.00    +0.219 C 
ENDROOT
BRANCH  14  13
ATOM      1  O   UNL     1      -8.398  -9.166   7.206  0.00  0.00    -0.380 OA
ATOM     13  C   UNL     1      -7.006  -9.815   9.652  0.00  0.00    +0.079 C 
ATOM     15  C   UNL     1      -7.604  -8.433   9.385  0.00  0.00    +0.041 C 
ATOM     16  C   UNL     1      -7.616 -10.879   8.741  0.00  0.00    +0.041 C 
ATOM     18  C   UNL     1      -7.711  -8.124   7.895  0.00  0.00    +0.160 C 
ATOM     19  C   UNL     1      -7.706 -10.410   7.293  0.00  0.00    +0.160 C 
ENDBRANCH  14  13
BRANCH   6  17
ATOM     17  C   UNL     1      -3.492 -10.593  16.465  0.00  0.00    +0.144 C 
BRANCH  17  20
ATOM     20  C   UNL     1      -4.600 -11.305  17.188  0.00  0.00    -0.030 A 
ATOM     21  C   UNL     1      -4.856 -12.649  16.921  0.00  0.00    +0.005 A 
ATOM     22  C   UNL     1      -5.373 -10.620  18.125  0.00  0.00    +0.005 A 
ATOM     23  C   UNL     1      -5.885 -13.310  17.591  0.00  0.00    +0.000 A 
ATOM     24  C   UNL     1      -6.403 -11.280  18.795  0.00  0.00    +0.000 A 
ATOM     25  C   UNL     1      -6.659 -12.625  18.529  0.00  0.00    +0.000 A 
ENDBRANCH  17  20
ENDBRANCH   6  17
TORSDOF 3
ENDMDL
