MODEL 1
REMARK VINA RESULT:      -7.3      0.000      0.000
REMARK  Name = 25338365
REMARK  7 active torsions:
REMARK  status: ('A' for Active; 'I' for Inactive)
REMARK    1  A    between atoms: S_1  and  N_7
REMARK    2  A    between atoms: S_1  and  C_16
REMARK    3  A    between atoms: N_6  and  C_15
REMARK    4  A    between atoms: N_7  and  C_10
REMARK    5  A    between atoms: C_11  and  C_14
REMARK    6  A    between atoms: C_17  and  C_19
REMARK    7  A    between atoms: C_26  and  C_27
REMARK                            x       y       z     vdW  Elec       q    Type
REMARK                         _______ _______ _______ _____ _____    ______ ____
ROOT
ATOM      6  N   UNL     1     -17.768   1.135  26.588  0.00  0.00    -0.293 NA
ATOM     10  C   UNL     1     -16.711   1.440  28.645  0.00  0.00    +0.092 C 
ATOM     11  C   UNL     1     -17.445   2.575  26.613  0.00  0.00    +0.147 C 
ATOM     12  C   UNL     1     -16.581   2.753  27.876  0.00  0.00    +0.050 C 
ATOM     13  C   UNL     1     -17.883   0.727  27.991  0.00  0.00    +0.105 C 
ATOM     15  C   UNL     1     -18.976   0.831  25.831  0.00  0.00    +0.105 C 
ENDROOT
BRANCH  11  14
ATOM      3  O   UNL     1     -16.705   2.193  24.315  0.00  0.00    -0.336 OA
ATOM      8  N   UNL     1     -16.173   4.212  25.124  0.00  0.00    -0.190 NA
ATOM      9  N   UNL     1     -16.022   2.856  23.287  0.00  0.00    -0.056 NA
ATOM     14  C   UNL     1     -16.749   3.061  25.359  0.00  0.00    +0.245 A 
ATOM     17  C   UNL     1     -15.742   4.040  23.840  0.00  0.00    +0.202 A 
BRANCH  17  19
ATOM     19  C   UNL     1     -15.034   5.071  23.138  0.00  0.00    +0.022 A 
ATOM     22  C   UNL     1     -13.848   4.771  22.468  0.00  0.00    +0.012 A 
ATOM     23  C   UNL     1     -15.531   6.375  23.126  0.00  0.00    +0.012 A 
ATOM     24  C   UNL     1     -13.160   5.774  21.786  0.00  0.00    +0.004 A 
ATOM     25  C   UNL     1     -14.842   7.377  22.444  0.00  0.00    +0.004 A 
ATOM     26  C   UNL     1     -13.656   7.076  21.773  0.00  0.00    -0.050 A 
ATOM     27  C   UNL     1     -12.920   8.149  21.044  0.00  0.00    +0.044 C 
ENDBRANCH  17  19
ENDBRANCH  11  14
BRANCH  10   7
ATOM      7  N   UNL     1     -15.474   0.635  28.484  0.00  0.00    -0.185 NA
ATOM     28  H   UNL     1     -14.869   0.925  27.704  0.00  0.00    +0.148 HD
BRANCH   7   1
ATOM      1  S   UNL     1     -14.739  -0.062  29.846  0.00  0.00    +0.065 S 
ATOM      4  O   UNL     1     -13.530  -0.752  29.443  0.00  0.00    -0.153 OA
ATOM      5  O   UNL     1     -15.753  -0.756  30.617  0.00  0.00    -0.153 OA
BRANCH   1  16
ATOM      2  S   UNL     1     -14.741   1.336  32.423  0.00  0.00    -0.077 S 
ATOM     16  C   UNL     1     -14.268   1.365  30.777  0.00  0.00    +0.142 A 
ATOM     18  C   UNL     1     -13.588   2.519  30.456  0.00  0.00    +0.036 A 
ATOM     20  C   UNL     1     -13.454   3.391  31.575  0.00  0.00    +0.010 A 
ATOM     21  C   UNL     1     -14.037   2.869  32.709  0.00  0.00    +0.047 A 
ENDBRANCH   1  16
ENDBRANCH   7   1
ENDBRANCH  10   7
TORSDOF 5
ENDMDL
MODEL 2
REMARK VINA RESULT:      -7.2     31.685     34.067
REMARK  Name = 25338365
REMARK  7 active torsions:
REMARK  status: ('A' for Active; 'I' for Inactive)
REMARK    1  A    between atoms: S_1  and  N_7
REMARK    2  A    between atoms: S_1  and  C_16
REMARK    3  A    between atoms: N_6  and  C_15
REMARK    4  A    between atoms: N_7  and  C_10
REMARK    5  A    between atoms: C_11  and  C_14
REMARK    6  A    between atoms: C_17  and  C_19
REMARK    7  A    between atoms: C_26  and  C_27
REMARK                            x       y       z     vdW  Elec       q    Type
REMARK                         _______ _______ _______ _____ _____    ______ ____
ROOT
ATOM      6  N   UNL     1      17.134   9.202  20.593  0.00  0.00    -0.293 NA
ATOM     10  C   UNL     1      14.880   8.600  20.589  0.00  0.00    +0.092 C 
ATOM     11  C   UNL     1      17.096   7.952  21.378  0.00  0.00    +0.147 C 
ATOM     12  C   UNL     1      15.650   7.445  21.224  0.00  0.00    +0.050 C 
ATOM     13  C   UNL     1      15.802   9.800  20.731  0.00  0.00    +0.105 C 
ATOM     15  C   UNL     1      18.187  10.115  21.018  0.00  0.00    +0.105 C 
ENDROOT
BRANCH  11  14
ATOM      3  O   UNL     1      17.737   6.066  19.963  0.00  0.00    -0.336 OA
ATOM      8  N   UNL     1      19.347   6.747  21.363  0.00  0.00    -0.190 NA
ATOM      9  N   UNL     1      18.836   5.229  19.729  0.00  0.00    -0.056 NA
ATOM     14  C   UNL     1      18.122   6.930  20.938  0.00  0.00    +0.245 A 
ATOM     17  C   UNL     1      19.745   5.694  20.592  0.00  0.00    +0.202 A 
BRANCH  17  19
ATOM     19  C   UNL     1      21.058   5.129  20.708  0.00  0.00    +0.022 A 
ATOM     22  C   UNL     1      21.211   3.786  21.053  0.00  0.00    +0.012 A 
ATOM     23  C   UNL     1      22.182   5.922  20.478  0.00  0.00    +0.012 A 
ATOM     24  C   UNL     1      22.488   3.237  21.166  0.00  0.00    +0.004 A 
ATOM     25  C   UNL     1      23.458   5.372  20.592  0.00  0.00    +0.004 A 
ATOM     26  C   UNL     1      23.611   4.029  20.935  0.00  0.00    -0.050 A 
ATOM     27  C   UNL     1      24.977   3.442  21.057  0.00  0.00    +0.044 C 
ENDBRANCH  17  19
ENDBRANCH  11  14
BRANCH  10   7
ATOM      7  N   UNL     1      14.634   8.316  19.153  0.00  0.00    -0.185 NA
ATOM     28  H   UNL     1      15.320   7.688  18.714  0.00  0.00    +0.148 HD
BRANCH   7   1
ATOM      1  S   UNL     1      13.045   8.303  18.556  0.00  0.00    +0.065 S 
ATOM      4  O   UNL     1      12.961   7.401  17.424  0.00  0.00    -0.153 OA
ATOM      5  O   UNL     1      12.583   9.673  18.433  0.00  0.00    -0.153 OA
BRANCH   1  16
ATOM      2  S   UNL     1      11.068   8.635  20.695  0.00  0.00    -0.077 S 
ATOM     16  C   UNL     1      12.156   7.577  19.900  0.00  0.00    +0.142 A 
ATOM     18  C   UNL     1      12.151   6.317  20.457  0.00  0.00    +0.036 A 
ATOM     20  C   UNL     1      11.243   6.218  21.550  0.00  0.00    +0.010 A 
ATOM     21  C   UNL     1      10.588   7.407  21.787  0.00  0.00    +0.047 A 
ENDBRANCH   1  16
ENDBRANCH   7   1
ENDBRANCH  10   7
TORSDOF 5
ENDMDL
MODEL 3
REMARK VINA RESULT:      -7.1     32.441     36.562
REMARK  Name = 25338365
REMARK  7 active torsions:
REMARK  status: ('A' for Active; 'I' for Inactive)
REMARK    1  A    between atoms: S_1  and  N_7
REMARK    2  A    between atoms: S_1  and  C_16
REMARK    3  A    between atoms: N_6  and  C_15
REMARK    4  A    between atoms: N_7  and  C_10
REMARK    5  A    between atoms: C_11  and  C_14
REMARK    6  A    between atoms: C_17  and  C_19
REMARK    7  A    between atoms: C_26  and  C_27
REMARK                            x       y       z     vdW  Elec       q    Type
REMARK                         _______ _______ _______ _____ _____    ______ ____
ROOT
ATOM      6  N   UNL     1      11.235   7.731   1.284  0.00  0.00    -0.293 NA
ATOM     10  C   UNL     1      11.829   5.714   0.274  0.00  0.00    +0.092 C 
ATOM     11  C   UNL     1      10.048   6.875   1.472  0.00  0.00    +0.147 C 
ATOM     12  C   UNL     1      10.495   5.485   0.981  0.00  0.00    +0.050 C 
ATOM     13  C   UNL     1      11.910   7.220   0.088  0.00  0.00    +0.105 C 
ATOM     15  C   UNL     1      10.909   9.147   1.162  0.00  0.00    +0.105 C 
ENDROOT
BRANCH  11  14
ATOM      3  O   UNL     1       8.447   7.618   3.163  0.00  0.00    -0.336 OA
ATOM      8  N   UNL     1       9.996   6.195   3.933  0.00  0.00    -0.190 NA
ATOM      9  N   UNL     1       8.168   7.437   4.524  0.00  0.00    -0.056 NA
ATOM     14  C   UNL     1       9.538   6.852   2.897  0.00  0.00    +0.245 A 
ATOM     17  C   UNL     1       9.124   6.584   4.907  0.00  0.00    +0.202 A 
BRANCH  17  19
ATOM     19  C   UNL     1       9.234   6.103   6.254  0.00  0.00    +0.022 A 
ATOM     22  C   UNL     1       8.852   6.919   7.319  0.00  0.00    +0.012 A 
ATOM     23  C   UNL     1       9.725   4.821   6.498  0.00  0.00    +0.012 A 
ATOM     24  C   UNL     1       8.960   6.451   8.629  0.00  0.00    +0.004 A 
ATOM     25  C   UNL     1       9.833   4.354   7.808  0.00  0.00    +0.004 A 
ATOM     26  C   UNL     1       9.449   5.169   8.873  0.00  0.00    -0.050 A 
ATOM     27  C   UNL     1       9.565   4.670  10.274  0.00  0.00    +0.044 C 
ENDBRANCH  17  19
ENDBRANCH  11  14
BRANCH  10   7
ATOM      7  N   UNL     1      12.944   5.249   1.137  0.00  0.00    -0.185 NA
ATOM     28  H   UNL     1      12.885   5.550   2.118  0.00  0.00    +0.148 HD
BRANCH   7   1
ATOM      1  S   UNL     1      13.709   3.771   0.801  0.00  0.00    +0.065 S 
ATOM      4  O   UNL     1      13.091   2.718   1.584  0.00  0.00    -0.153 OA
ATOM      5  O   UNL     1      15.145   3.969   0.849  0.00  0.00    -0.153 OA
BRANCH   1  16
ATOM      2  S   UNL     1      14.233   4.388  -2.016  0.00  0.00    -0.077 S 
ATOM     16  C   UNL     1      13.279   3.514  -0.894  0.00  0.00    +0.142 A 
ATOM     18  C   UNL     1      12.321   2.746  -1.518  0.00  0.00    +0.036 A 
ATOM     20  C   UNL     1      12.371   2.876  -2.936  0.00  0.00    +0.010 A 
ATOM     21  C   UNL     1      13.365   3.740  -3.341  0.00  0.00    +0.047 A 
ENDBRANCH   1  16
ENDBRANCH   7   1
ENDBRANCH  10   7
TORSDOF 5
ENDMDL
MODEL 4
REMARK VINA RESULT:      -6.8     20.699     23.357
REMARK  Name = 25338365
REMARK  7 active torsions:
REMARK  status: ('A' for Active; 'I' for Inactive)
REMARK    1  A    between atoms: S_1  and  N_7
REMARK    2  A    between atoms: S_1  and  C_16
REMARK    3  A    between atoms: N_6  and  C_15
REMARK    4  A    between atoms: N_7  and  C_10
REMARK    5  A    between atoms: C_11  and  C_14
REMARK    6  A    between atoms: C_17  and  C_19
REMARK    7  A    between atoms: C_26  and  C_27
REMARK                            x       y       z     vdW  Elec       q    Type
REMARK                         _______ _______ _______ _____ _____    ______ ____
ROOT
ATOM      6  N   UNL     1      -4.334 -11.274   9.897  0.00  0.00    -0.293 NA
ATOM     10  C   UNL     1      -4.549  -9.205   8.841  0.00  0.00    +0.092 C 
ATOM     11  C   UNL     1      -3.271 -10.451  10.506  0.00  0.00    +0.147 C 
ATOM     12  C   UNL     1      -3.522  -9.033   9.958  0.00  0.00    +0.050 C 
ATOM     13  C   UNL     1      -4.573 -10.700   8.570  0.00  0.00    +0.105 C 
ATOM     15  C   UNL     1      -3.993 -12.689   9.825  0.00  0.00    +0.105 C 
ENDROOT
BRANCH  11  14
ATOM      3  O   UNL     1      -2.043 -10.607  12.613  0.00  0.00    -0.336 OA
ATOM      8  N   UNL     1      -4.263 -10.447  12.858  0.00  0.00    -0.190 NA
ATOM      9  N   UNL     1      -2.285 -10.631  13.992  0.00  0.00    -0.056 NA
ATOM     14  C   UNL     1      -3.260 -10.497  12.018  0.00  0.00    +0.245 A 
ATOM     17  C   UNL     1      -3.617 -10.532  14.056  0.00  0.00    +0.202 A 
BRANCH  17  19
ATOM     19  C   UNL     1      -4.330 -10.515  15.301  0.00  0.00    +0.022 A 
ATOM     22  C   UNL     1      -5.610  -9.965  15.364  0.00  0.00    +0.012 A 
ATOM     23  C   UNL     1      -3.743 -11.048  16.448  0.00  0.00    +0.012 A 
ATOM     24  C   UNL     1      -6.303  -9.948  16.574  0.00  0.00    +0.004 A 
ATOM     25  C   UNL     1      -4.437 -11.031  17.658  0.00  0.00    +0.004 A 
ATOM     26  C   UNL     1      -5.717 -10.481  17.721  0.00  0.00    -0.050 A 
ATOM     27  C   UNL     1      -6.458 -10.462  19.015  0.00  0.00    +0.044 C 
ENDBRANCH  17  19
ENDBRANCH  11  14
BRANCH  10   7
ATOM      7  N   UNL     1      -5.884  -8.753   9.308  0.00  0.00    -0.185 NA
ATOM     28  H   UNL     1      -5.887  -7.851   9.801  0.00  0.00    +0.148 HD
BRANCH   7   1
ATOM      1  S   UNL     1      -7.273  -9.189   8.435  0.00  0.00    +0.065 S 
ATOM      4  O   UNL     1      -7.996 -10.218   9.158  0.00  0.00    -0.153 OA
ATOM      5  O   UNL     1      -6.906  -9.394   7.047  0.00  0.00    -0.153 OA
BRANCH   1  16
ATOM      2  S   UNL     1      -9.836  -7.907   9.058  0.00  0.00    -0.077 S 
ATOM     16  C   UNL     1      -8.228  -7.703   8.503  0.00  0.00    +0.142 A 
ATOM     18  C   UNL     1      -7.950  -6.389   8.198  0.00  0.00    +0.036 A 
ATOM     20  C   UNL     1      -9.071  -5.538   8.423  0.00  0.00    +0.010 A 
ATOM     21  C   UNL     1     -10.163  -6.236   8.891  0.00  0.00    +0.047 A 
ENDBRANCH   1  16
ENDBRANCH   7   1
ENDBRANCH  10   7
TORSDOF 5
ENDMDL
MODEL 5
REMARK VINA RESULT:      -6.6     18.510     20.304
REMARK  Name = 25338365
REMARK  7 active torsions:
REMARK  status: ('A' for Active; 'I' for Inactive)
REMARK    1  A    between atoms: S_1  and  N_7
REMARK    2  A    between atoms: S_1  and  C_16
REMARK    3  A    between atoms: N_6  and  C_15
REMARK    4  A    between atoms: N_7  and  C_10
REMARK    5  A    between atoms: C_11  and  C_14
REMARK    6  A    between atoms: C_17  and  C_19
REMARK    7  A    between atoms: C_26  and  C_27
REMARK                            x       y       z     vdW  Elec       q    Type
REMARK                         _______ _______ _______ _____ _____    ______ ____
ROOT
ATOM      6  N   UNL     1      -5.840 -11.894  17.413  0.00  0.00    -0.293 NA
ATOM     10  C   UNL     1      -3.721 -11.134  16.803  0.00  0.00    +0.092 C 
ATOM     11  C   UNL     1      -5.971 -10.424  17.428  0.00  0.00    +0.147 C 
ATOM     12  C   UNL     1      -4.639  -9.915  16.845  0.00  0.00    +0.050 C 
ATOM     13  C   UNL     1      -4.423 -12.173  17.663  0.00  0.00    +0.105 C 
ATOM     15  C   UNL     1      -6.704 -12.557  18.382  0.00  0.00    +0.105 C 
ENDROOT
BRANCH  11  14
ATOM      3  O   UNL     1      -7.158 -10.098  15.317  0.00  0.00    -0.336 OA
ATOM      8  N   UNL     1      -8.247  -9.313  17.110  0.00  0.00    -0.190 NA
ATOM      9  N   UNL     1      -8.356  -9.553  14.838  0.00  0.00    -0.056 NA
ATOM     14  C   UNL     1      -7.173  -9.915  16.664  0.00  0.00    +0.245 A 
ATOM     17  C   UNL     1      -8.943  -9.111  15.954  0.00  0.00    +0.202 A 
BRANCH  17  19
ATOM     19  C   UNL     1     -10.224  -8.465  15.948  0.00  0.00    +0.022 A 
ATOM     22  C   UNL     1     -10.303  -7.073  15.997  0.00  0.00    +0.012 A 
ATOM     23  C   UNL     1     -11.390  -9.228  15.896  0.00  0.00    +0.012 A 
ATOM     24  C   UNL     1     -11.548  -6.445  15.991  0.00  0.00    +0.004 A 
ATOM     25  C   UNL     1     -12.635  -8.599  15.892  0.00  0.00    +0.004 A 
ATOM     26  C   UNL     1     -12.713  -7.207  15.939  0.00  0.00    -0.050 A 
ATOM     27  C   UNL     1     -14.045  -6.535  15.934  0.00  0.00    +0.044 C 
ENDBRANCH  17  19
ENDBRANCH  11  14
BRANCH  10   7
ATOM      7  N   UNL     1      -3.602 -11.629  15.407  0.00  0.00    -0.185 NA
ATOM     28  H   UNL     1      -4.467 -11.575  14.855  0.00  0.00    +0.148 HD
BRANCH   7   1
ATOM      1  S   UNL     1      -2.122 -11.486  14.588  0.00  0.00    +0.065 S 
ATOM      4  O   UNL     1      -1.590 -12.808  14.318  0.00  0.00    -0.153 OA
ATOM      5  O   UNL     1      -1.307 -10.497  15.266  0.00  0.00    -0.153 OA
BRANCH   1  16
ATOM      2  S   UNL     1      -4.308 -10.503  12.899  0.00  0.00    -0.077 S 
ATOM     16  C   UNL     1      -2.624 -10.776  13.049  0.00  0.00    +0.142 A 
ATOM     18  C   UNL     1      -1.935 -10.386  11.921  0.00  0.00    +0.036 A 
ATOM     20  C   UNL     1      -2.802  -9.857  10.921  0.00  0.00    +0.010 A 
ATOM     21  C   UNL     1      -4.119  -9.863  11.323  0.00  0.00    +0.047 A 
ENDBRANCH   1  16
ENDBRANCH   7   1
ENDBRANCH  10   7
TORSDOF 5
ENDMDL
MODEL 6
REMARK VINA RESULT:      -6.6      1.937      2.100
REMARK  Name = 25338365
REMARK  7 active torsions:
REMARK  status: ('A' for Active; 'I' for Inactive)
REMARK    1  A    between atoms: S_1  and  N_7
REMARK    2  A    between atoms: S_1  and  C_16
REMARK    3  A    between atoms: N_6  and  C_15
REMARK    4  A    between atoms: N_7  and  C_10
REMARK    5  A    between atoms: C_11  and  C_14
REMARK    6  A    between atoms: C_17  and  C_19
REMARK    7  A    between atoms: C_26  and  C_27
REMARK                            x       y       z     vdW  Elec       q    Type
REMARK                         _______ _______ _______ _____ _____    ______ ____
ROOT
ATOM      6  N   UNL     1     -16.512   1.791  26.550  0.00  0.00    -0.293 NA
ATOM     10  C   UNL     1     -16.523   3.156  28.442  0.00  0.00    +0.092 C 
ATOM     11  C   UNL     1     -17.020   3.084  26.054  0.00  0.00    +0.147 C 
ATOM     12  C   UNL     1     -16.853   4.045  27.246  0.00  0.00    +0.050 C 
ATOM     13  C   UNL     1     -16.854   1.747  27.975  0.00  0.00    +0.105 C 
ATOM     15  C   UNL     1     -17.051   0.646  25.826  0.00  0.00    +0.105 C 
ENDROOT
BRANCH  11  14
ATOM      3  O   UNL     1     -16.359   2.756  23.724  0.00  0.00    -0.336 OA
ATOM      8  N   UNL     1     -15.651   4.687  24.612  0.00  0.00    -0.190 NA
ATOM      9  N   UNL     1     -15.647   3.413  22.712  0.00  0.00    -0.056 NA
ATOM     14  C   UNL     1     -16.313   3.574  24.808  0.00  0.00    +0.245 A 
ATOM     17  C   UNL     1     -15.262   4.543  23.312  0.00  0.00    +0.202 A 
BRANCH  17  19
ATOM     19  C   UNL     1     -14.488   5.548  22.642  0.00  0.00    +0.022 A 
ATOM     22  C   UNL     1     -13.300   5.201  21.999  0.00  0.00    +0.012 A 
ATOM     23  C   UNL     1     -14.924   6.874  22.634  0.00  0.00    +0.012 A 
ATOM     24  C   UNL     1     -12.548   6.178  21.348  0.00  0.00    +0.004 A 
ATOM     25  C   UNL     1     -14.171   7.850  21.983  0.00  0.00    +0.004 A 
ATOM     26  C   UNL     1     -12.983   7.502  21.339  0.00  0.00    -0.050 A 
ATOM     27  C   UNL     1     -12.179   8.547  20.644  0.00  0.00    +0.044 C 
ENDBRANCH  17  19
ENDBRANCH  11  14
BRANCH  10   7
ATOM      7  N   UNL     1     -15.076   3.256  28.763  0.00  0.00    -0.185 NA
ATOM     28  H   UNL     1     -14.562   3.963  28.222  0.00  0.00    +0.148 HD
BRANCH   7   1
ATOM      1  S   UNL     1     -14.536   2.907  30.334  0.00  0.00    +0.065 S 
ATOM      4  O   UNL     1     -13.089   2.828  30.341  0.00  0.00    -0.153 OA
ATOM      5  O   UNL     1     -15.329   1.816  30.867  0.00  0.00    -0.153 OA
BRANCH   1  16
ATOM      2  S   UNL     1     -14.490   4.417  32.847  0.00  0.00    -0.077 S 
ATOM     16  C   UNL     1     -15.007   4.366  31.215  0.00  0.00    +0.142 A 
ATOM     18  C   UNL     1     -15.716   5.493  30.862  0.00  0.00    +0.036 A 
ATOM     20  C   UNL     1     -15.836   6.411  31.945  0.00  0.00    +0.010 A 
ATOM     21  C   UNL     1     -15.215   5.949  33.085  0.00  0.00    +0.047 A 
ENDBRANCH   1  16
ENDBRANCH   7   1
ENDBRANCH  10   7
TORSDOF 5
ENDMDL
MODEL 7
REMARK VINA RESULT:      -6.6     19.029     21.168
REMARK  Name = 25338365
REMARK  7 active torsions:
REMARK  status: ('A' for Active; 'I' for Inactive)
REMARK    1  A    between atoms: S_1  and  N_7
REMARK    2  A    between atoms: S_1  and  C_16
REMARK    3  A    between atoms: N_6  and  C_15
REMARK    4  A    between atoms: N_7  and  C_10
REMARK    5  A    between atoms: C_11  and  C_14
REMARK    6  A    between atoms: C_17  and  C_19
REMARK    7  A    between atoms: C_26  and  C_27
REMARK                            x       y       z     vdW  Elec       q    Type
REMARK                         _______ _______ _______ _____ _____    ______ ____
ROOT
ATOM      6  N   UNL     1      -5.056 -12.441  15.864  0.00  0.00    -0.293 NA
ATOM     10  C   UNL     1      -3.243 -11.132  15.199  0.00  0.00    +0.092 C 
ATOM     11  C   UNL     1      -5.017 -11.352  16.860  0.00  0.00    +0.147 C 
ATOM     12  C   UNL     1      -3.948 -10.381  16.326  0.00  0.00    +0.050 C 
ATOM     13  C   UNL     1      -3.683 -12.577  15.367  0.00  0.00    +0.105 C 
ATOM     15  C   UNL     1      -5.567 -13.695  16.403  0.00  0.00    +0.105 C 
ENDROOT
BRANCH  11  14
ATOM      3  O   UNL     1      -6.595  -9.555  16.356  0.00  0.00    -0.336 OA
ATOM      8  N   UNL     1      -7.339 -11.028  17.870  0.00  0.00    -0.190 NA
ATOM      9  N   UNL     1      -7.875  -9.123  16.722  0.00  0.00    -0.056 NA
ATOM     14  C   UNL     1      -6.356 -10.682  17.077  0.00  0.00    +0.245 A 
ATOM     17  C   UNL     1      -8.249 -10.043  17.617  0.00  0.00    +0.202 A 
BRANCH  17  19
ATOM     19  C   UNL     1      -9.523 -10.006  18.276  0.00  0.00    +0.022 A 
ATOM     22  C   UNL     1     -10.584  -9.306  17.703  0.00  0.00    +0.012 A 
ATOM     23  C   UNL     1      -9.699 -10.669  19.491  0.00  0.00    +0.012 A 
ATOM     24  C   UNL     1     -11.822  -9.269  18.344  0.00  0.00    +0.004 A 
ATOM     25  C   UNL     1     -10.938 -10.631  20.131  0.00  0.00    +0.004 A 
ATOM     26  C   UNL     1     -11.999  -9.932  19.558  0.00  0.00    -0.050 A 
ATOM     27  C   UNL     1     -13.323  -9.892  20.243  0.00  0.00    +0.044 C 
ENDBRANCH  17  19
ENDBRANCH  11  14
BRANCH  10   7
ATOM      7  N   UNL     1      -3.697 -10.613  13.884  0.00  0.00    -0.185 NA
ATOM     28  H   UNL     1      -4.335  -9.808  13.935  0.00  0.00    +0.148 HD
BRANCH   7   1
ATOM      1  S   UNL     1      -2.680 -10.740  12.532  0.00  0.00    +0.065 S 
ATOM      4  O   UNL     1      -2.579 -12.129  12.130  0.00  0.00    -0.153 OA
ATOM      5  O   UNL     1      -1.479  -9.963  12.778  0.00  0.00    -0.153 OA
BRANCH   1  16
ATOM      2  S   UNL     1      -5.265  -9.667  11.661  0.00  0.00    -0.077 S 
ATOM     16  C   UNL     1      -3.606  -9.880  11.295  0.00  0.00    +0.142 A 
ATOM     18  C   UNL     1      -3.271  -9.334  10.076  0.00  0.00    +0.036 A 
ATOM     20  C   UNL     1      -4.392  -8.733   9.433  0.00  0.00    +0.010 A 
ATOM     21  C   UNL     1      -5.540  -8.843  10.186  0.00  0.00    +0.047 A 
ENDBRANCH   1  16
ENDBRANCH   7   1
ENDBRANCH  10   7
TORSDOF 5
ENDMDL
MODEL 8
REMARK VINA RESULT:      -6.4     21.356     24.019
REMARK  Name = 25338365
REMARK  7 active torsions:
REMARK  status: ('A' for Active; 'I' for Inactive)
REMARK    1  A    between atoms: S_1  and  N_7
REMARK    2  A    between atoms: S_1  and  C_16
REMARK    3  A    between atoms: N_6  and  C_15
REMARK    4  A    between atoms: N_7  and  C_10
REMARK    5  A    between atoms: C_11  and  C_14
REMARK    6  A    between atoms: C_17  and  C_19
REMARK    7  A    between atoms: C_26  and  C_27
REMARK                            x       y       z     vdW  Elec       q    Type
REMARK                         _______ _______ _______ _____ _____    ______ ____
ROOT
ATOM      6  N   UNL     1      -4.280 -11.549  10.328  0.00  0.00    -0.293 NA
ATOM     10  C   UNL     1      -4.910  -9.593   9.225  0.00  0.00    +0.092 C 
ATOM     11  C   UNL     1      -3.345 -10.531  10.845  0.00  0.00    +0.147 C 
ATOM     12  C   UNL     1      -3.870  -9.201  10.271  0.00  0.00    +0.050 C 
ATOM     13  C   UNL     1      -4.687 -11.079   9.001  0.00  0.00    +0.105 C 
ATOM     15  C   UNL     1      -3.702 -12.886  10.279  0.00  0.00    +0.105 C 
ENDROOT
BRANCH  11  14
ATOM      3  O   UNL     1      -2.006 -10.302  12.877  0.00  0.00    -0.336 OA
ATOM      8  N   UNL     1      -4.183 -10.674  13.252  0.00  0.00    -0.190 NA
ATOM      9  N   UNL     1      -2.163 -10.330  14.269  0.00  0.00    -0.056 NA
ATOM     14  C   UNL     1      -3.243 -10.513  12.355  0.00  0.00    +0.245 A 
ATOM     17  C   UNL     1      -3.473 -10.553  14.411  0.00  0.00    +0.202 A 
BRANCH  17  19
ATOM     19  C   UNL     1      -4.102 -10.659  15.696  0.00  0.00    +0.022 A 
ATOM     22  C   UNL     1      -5.360 -10.094  15.906  0.00  0.00    +0.012 A 
ATOM     23  C   UNL     1      -3.455 -11.327  16.736  0.00  0.00    +0.012 A 
ATOM     24  C   UNL     1      -5.971 -10.198  17.155  0.00  0.00    +0.004 A 
ATOM     25  C   UNL     1      -4.067 -11.429  17.985  0.00  0.00    +0.004 A 
ATOM     26  C   UNL     1      -5.325 -10.865  18.194  0.00  0.00    -0.050 A 
ATOM     27  C   UNL     1      -5.979 -10.975  19.530  0.00  0.00    +0.044 C 
ENDBRANCH  17  19
ENDBRANCH  11  14
BRANCH  10   7
ATOM      7  N   UNL     1      -6.276  -9.359   9.759  0.00  0.00    -0.185 NA
ATOM     28  H   UNL     1      -6.325  -9.231  10.778  0.00  0.00    +0.148 HD
BRANCH   7   1
ATOM      1  S   UNL     1      -7.431  -8.569   8.798  0.00  0.00    +0.065 S 
ATOM      4  O   UNL     1      -7.009  -7.203   8.559  0.00  0.00    -0.153 OA
ATOM      5  O   UNL     1      -8.750  -8.840   9.339  0.00  0.00    -0.153 OA
BRANCH   1  16
ATOM      2  S   UNL     1      -8.086 -10.979   7.263  0.00  0.00    -0.077 S 
ATOM     16  C   UNL     1      -7.306  -9.454   7.273  0.00  0.00    +0.142 A 
ATOM     18  C   UNL     1      -6.703  -9.174   6.067  0.00  0.00    +0.036 A 
ATOM     20  C   UNL     1      -6.884 -10.225   5.122  0.00  0.00    +0.010 A 
ATOM     21  C   UNL     1      -7.617 -11.268   5.642  0.00  0.00    +0.047 A 
ENDBRANCH   1  16
ENDBRANCH   7   1
ENDBRANCH  10   7
TORSDOF 5
ENDMDL
MODEL 9
REMARK VINA RESULT:      -6.4     15.714     17.021
REMARK  Name = 25338365
REMARK  7 active torsions:
REMARK  status: ('A' for Active; 'I' for Inactive)
REMARK    1  A    between atoms: S_1  and  N_7
REMARK    2  A    between atoms: S_1  and  C_16
REMARK    3  A    between atoms: N_6  and  C_15
REMARK    4  A    between atoms: N_7  and  C_10
REMARK    5  A    between atoms: C_11  and  C_14
REMARK    6  A    between atoms: C_17  and  C_19
REMARK    7  A    between atoms: C_26  and  C_27
REMARK                            x       y       z     vdW  Elec       q    Type
REMARK                         _______ _______ _______ _____ _____    ______ ____
ROOT
ATOM      6  N   UNL     1     -10.140 -10.553  16.097  0.00  0.00    -0.293 NA
ATOM     10  C   UNL     1      -9.524 -10.795  18.334  0.00  0.00    +0.092 C 
ATOM     11  C   UNL     1     -11.173  -9.801  16.834  0.00  0.00    +0.147 C 
ATOM     12  C   UNL     1     -10.675  -9.793  18.292  0.00  0.00    +0.050 C 
ATOM     13  C   UNL     1      -9.642 -11.568  17.030  0.00  0.00    +0.105 C 
ATOM     15  C   UNL     1     -10.635 -11.147  14.861  0.00  0.00    +0.105 C 
ENDROOT
BRANCH  11  14
ATOM      3  O   UNL     1     -10.654  -7.413  16.825  0.00  0.00    -0.336 OA
ATOM      8  N   UNL     1     -12.251  -8.008  15.372  0.00  0.00    -0.190 NA
ATOM      9  N   UNL     1     -11.048  -6.236  16.177  0.00  0.00    -0.056 NA
ATOM     14  C   UNL     1     -11.411  -8.408  16.293  0.00  0.00    +0.245 A 
ATOM     17  C   UNL     1     -11.992  -6.668  15.335  0.00  0.00    +0.202 A 
BRANCH  17  19
ATOM     19  C   UNL     1     -12.694  -5.789  14.445  0.00  0.00    +0.022 A 
ATOM     22  C   UNL     1     -14.083  -5.861  14.344  0.00  0.00    +0.012 A 
ATOM     23  C   UNL     1     -11.986  -4.863  13.678  0.00  0.00    +0.012 A 
ATOM     24  C   UNL     1     -14.765  -5.006  13.479  0.00  0.00    +0.004 A 
ATOM     25  C   UNL     1     -12.669  -4.009  12.812  0.00  0.00    +0.004 A 
ATOM     26  C   UNL     1     -14.058  -4.080  12.713  0.00  0.00    -0.050 A 
ATOM     27  C   UNL     1     -14.787  -3.167  11.786  0.00  0.00    +0.044 C 
ENDBRANCH  17  19
ENDBRANCH  11  14
BRANCH  10   7
ATOM      7  N   UNL     1      -8.227 -10.074  18.380  0.00  0.00    -0.185 NA
ATOM     28  H   UNL     1      -8.304  -9.049  18.423  0.00  0.00    +0.148 HD
BRANCH   7   1
ATOM      1  S   UNL     1      -6.884 -10.804  19.119  0.00  0.00    +0.065 S 
ATOM      4  O   UNL     1      -7.182 -12.195  19.398  0.00  0.00    -0.153 OA
ATOM      5  O   UNL     1      -6.405  -9.934  20.176  0.00  0.00    -0.153 OA
BRANCH   1  16
ATOM      2  S   UNL     1      -6.204  -9.972  16.391  0.00  0.00    -0.077 S 
ATOM     16  C   UNL     1      -5.682 -10.753  17.823  0.00  0.00    +0.142 A 
ATOM     18  C   UNL     1      -4.389 -11.216  17.718  0.00  0.00    +0.036 A 
ATOM     20  C   UNL     1      -3.819 -10.927  16.444  0.00  0.00    +0.010 A 
ATOM     21  C   UNL     1      -4.699 -10.254  15.625  0.00  0.00    +0.047 A 
ENDBRANCH   1  16
ENDBRANCH   7   1
ENDBRANCH  10   7
TORSDOF 5
ENDMDL
MODEL 10
REMARK VINA RESULT:      -6.3     18.216     19.815
REMARK  Name = 25338365
REMARK  7 active torsions:
REMARK  status: ('A' for Active; 'I' for Inactive)
REMARK    1  A    between atoms: S_1  and  N_7
REMARK    2  A    between atoms: S_1  and  C_16
REMARK    3  A    between atoms: N_6  and  C_15
REMARK    4  A    between atoms: N_7  and  C_10
REMARK    5  A    between atoms: C_11  and  C_14
REMARK    6  A    between atoms: C_17  and  C_19
REMARK    7  A    between atoms: C_26  and  C_27
REMARK                            x       y       z     vdW  Elec       q    Type
REMARK                         _______ _______ _______ _____ _____    ______ ____
ROOT
ATOM      6  N   UNL     1      -7.240 -13.685  17.338  0.00  0.00    -0.293 NA
ATOM     10  C   UNL     1      -5.013 -12.992  17.299  0.00  0.00    +0.092 C 
ATOM     11  C   UNL     1      -7.123 -12.794  18.509  0.00  0.00    +0.147 C 
ATOM     12  C   UNL     1      -5.714 -12.182  18.387  0.00  0.00    +0.050 C 
ATOM     13  C   UNL     1      -5.894 -14.215  17.103  0.00  0.00    +0.105 C 
ATOM     15  C   UNL     1      -8.220 -14.748  17.521  0.00  0.00    +0.105 C 
ENDROOT
BRANCH  11  14
ATOM      3  O   UNL     1      -8.801 -11.566  19.793  0.00  0.00    -0.336 OA
ATOM      8  N   UNL     1      -8.677 -10.966  17.639  0.00  0.00    -0.190 NA
ATOM      9  N   UNL     1      -9.758 -10.560  19.613  0.00  0.00    -0.056 NA
ATOM     14  C   UNL     1      -8.210 -11.744  18.582  0.00  0.00    +0.245 A 
ATOM     17  C   UNL     1      -9.624 -10.257  18.318  0.00  0.00    +0.202 A 
BRANCH  17  19
ATOM     19  C   UNL     1     -10.421  -9.252  17.675  0.00  0.00    +0.022 A 
ATOM     22  C   UNL     1     -11.801  -9.421  17.563  0.00  0.00    +0.012 A 
ATOM     23  C   UNL     1      -9.815  -8.107  17.158  0.00  0.00    +0.012 A 
ATOM     24  C   UNL     1     -12.574  -8.445  16.937  0.00  0.00    +0.004 A 
ATOM     25  C   UNL     1     -10.589  -7.131  16.532  0.00  0.00    +0.004 A 
ATOM     26  C   UNL     1     -11.969  -7.300  16.421  0.00  0.00    -0.050 A 
ATOM     27  C   UNL     1     -12.797  -6.256  15.751  0.00  0.00    +0.044 C 
ENDBRANCH  17  19
ENDBRANCH  11  14
BRANCH  10   7
ATOM      7  N   UNL     1      -4.953 -12.204  16.042  0.00  0.00    -0.185 NA
ATOM     28  H   UNL     1      -5.789 -12.274  15.448  0.00  0.00    +0.148 HD
BRANCH   7   1
ATOM      1  S   UNL     1      -4.061 -10.760  15.995  0.00  0.00    +0.065 S 
ATOM      4  O   UNL     1      -2.834 -10.926  16.749  0.00  0.00    -0.153 OA
ATOM      5  O   UNL     1      -4.951  -9.653  16.284  0.00  0.00    -0.153 OA
BRANCH   1  16
ATOM      2  S   UNL     1      -1.960 -10.503  13.966  0.00  0.00    -0.077 S 
ATOM     16  C   UNL     1      -3.637 -10.648  14.282  0.00  0.00    +0.142 A 
ATOM     18  C   UNL     1      -4.382 -10.652  13.124  0.00  0.00    +0.036 A 
ATOM     20  C   UNL     1      -3.566 -10.535  11.962  0.00  0.00    +0.010 A 
ATOM     21  C   UNL     1      -2.228 -10.446  12.277  0.00  0.00    +0.047 A 
ENDBRANCH   1  16
ENDBRANCH   7   1
ENDBRANCH  10   7
TORSDOF 5
ENDMDL
