MODEL 1
REMARK VINA RESULT:      -7.2      0.000      0.000
REMARK  Name = 75536520
REMARK  11 active torsions:
REMARK  status: ('A' for Active; 'I' for Inactive)
REMARK    1  A    between atoms: O_3  and  C_8
REMARK    2  A    between atoms: N_5  and  C_7
REMARK    3  A    between atoms: N_5  and  C_13
REMARK    4  A    between atoms: N_6  and  C_11
REMARK    5  A    between atoms: C_9  and  C_11
REMARK    6  A    between atoms: C_12  and  C_14
REMARK    7  A    between atoms: C_12  and  C_16
REMARK    8  A    between atoms: C_12  and  C_17
REMARK    9  A    between atoms: C_12  and  C_18
REMARK   10  A    between atoms: C_13  and  C_19
REMARK   11  A    between atoms: C_14  and  C_15
REMARK                            x       y       z     vdW  Elec       q    Type
REMARK                         _______ _______ _______ _____ _____    ______ ____
ROOT
ATOM      2  O   UNL     1      10.575   8.543  20.040  0.00  0.00    -0.371 OA
ATOM      7  C   UNL     1      12.413   7.218  19.329  0.00  0.00    +0.111 C 
ATOM      8  C   UNL     1      12.343   7.194  20.845  0.00  0.00    +0.164 C 
ATOM      9  C   UNL     1      10.894   7.601  21.078  0.00  0.00    +0.165 C 
ATOM     10  C   UNL     1      11.572   8.443  19.009  0.00  0.00    +0.181 C 
ENDROOT
BRANCH   8   3
ATOM      3  O   UNL     1      12.625   5.917  21.385  0.00  0.00    -0.388 OA
ATOM     27  H   UNL     1      12.095   5.259  20.904  0.00  0.00    +0.210 HD
ENDBRANCH   8   3
BRANCH   7   5
ATOM      5  N   UNL     1      13.768   7.310  18.810  0.00  0.00    -0.305 NA
ATOM     25  H   UNL     1      13.751   7.813  17.924  0.00  0.00    +0.123 HD
BRANCH   5  13
ATOM     13  C   UNL     1      14.639   8.017  19.740  0.00  0.00    +0.116 C 
BRANCH  13  19
ATOM      1  F   UNL     1      19.643   5.479  20.272  0.00  0.00    -0.205 F 
ATOM     19  C   UNL     1      15.976   7.338  19.882  0.00  0.00    -0.033 A 
ATOM     20  C   UNL     1      16.850   7.727  20.897  0.00  0.00    +0.008 A 
ATOM     21  C   UNL     1      16.341   6.323  18.998  0.00  0.00    +0.008 A 
ATOM     22  C   UNL     1      18.089   7.099  21.029  0.00  0.00    +0.038 A 
ATOM     23  C   UNL     1      17.579   5.694  19.130  0.00  0.00    +0.038 A 
ATOM     24  C   UNL     1      18.453   6.083  20.146  0.00  0.00    +0.123 A 
ENDBRANCH  13  19
ENDBRANCH   5  13
ENDBRANCH   7   5
BRANCH   9  11
ATOM     11  C   UNL     1      10.659   8.235  22.437  0.00  0.00    +0.138 C 
BRANCH  11   6
ATOM      4  O   UNL     1      12.703  10.274  22.664  0.00  0.00    -0.276 OA
ATOM      6  N   UNL     1      10.486   9.666  22.331  0.00  0.00    -0.313 N 
ATOM     15  C   UNL     1      11.527  10.568  22.454  0.00  0.00    +0.214 C 
ATOM     26  H   UNL     1       9.548  10.012  22.146  0.00  0.00    +0.149 HD
BRANCH  15  14
ATOM     14  C   UNL     1      11.083  12.014  22.310  0.00  0.00    +0.102 C 
BRANCH  14  12
ATOM     12  C   UNL     1      11.155  12.845  23.613  0.00  0.00    -0.029 C 
ATOM     16  C   UNL     1      10.894  11.973  24.852  0.00  0.00    +0.011 C 
ATOM     17  C   UNL     1      12.522  13.534  23.757  0.00  0.00    +0.011 C 
ATOM     18  C   UNL     1      10.066  13.934  23.547  0.00  0.00    +0.011 C 
ENDBRANCH  14  12
ENDBRANCH  15  14
ENDBRANCH  11   6
ENDBRANCH   9  11
TORSDOF 8
ENDMDL
MODEL 2
REMARK VINA RESULT:      -6.4     27.196     29.210
REMARK  Name = 75536520
REMARK  11 active torsions:
REMARK  status: ('A' for Active; 'I' for Inactive)
REMARK    1  A    between atoms: O_3  and  C_8
REMARK    2  A    between atoms: N_5  and  C_7
REMARK    3  A    between atoms: N_5  and  C_13
REMARK    4  A    between atoms: N_6  and  C_11
REMARK    5  A    between atoms: C_9  and  C_11
REMARK    6  A    between atoms: C_12  and  C_14
REMARK    7  A    between atoms: C_12  and  C_16
REMARK    8  A    between atoms: C_12  and  C_17
REMARK    9  A    between atoms: C_12  and  C_18
REMARK   10  A    between atoms: C_13  and  C_19
REMARK   11  A    between atoms: C_14  and  C_15
REMARK                            x       y       z     vdW  Elec       q    Type
REMARK                         _______ _______ _______ _____ _____    ______ ____
ROOT
ATOM      2  O   UNL     1     -12.287  -7.685  16.774  0.00  0.00    -0.371 OA
ATOM      7  C   UNL     1      -9.915  -7.635  16.671  0.00  0.00    +0.111 C 
ATOM      8  C   UNL     1     -10.477  -6.784  15.547  0.00  0.00    +0.164 C 
ATOM      9  C   UNL     1     -11.880  -6.501  16.067  0.00  0.00    +0.165 C 
ATOM     10  C   UNL     1     -11.121  -8.485  17.036  0.00  0.00    +0.181 C 
ENDROOT
BRANCH   8   3
ATOM      3  O   UNL     1      -9.741  -5.593  15.343  0.00  0.00    -0.388 OA
ATOM     27  H   UNL     1      -9.442  -5.267  16.208  0.00  0.00    +0.210 HD
ENDBRANCH   8   3
BRANCH   7   5
ATOM      5  N   UNL     1      -8.761  -8.429  16.280  0.00  0.00    -0.305 NA
ATOM     25  H   UNL     1      -7.946  -7.820  16.214  0.00  0.00    +0.123 HD
BRANCH   5  13
ATOM     13  C   UNL     1      -8.491  -9.478  17.255  0.00  0.00    +0.116 C 
BRANCH  13  19
ATOM      1  F   UNL     1      -3.082 -11.057  17.191  0.00  0.00    -0.205 F 
ATOM     19  C   UNL     1      -7.046  -9.900  17.239  0.00  0.00    -0.033 A 
ATOM     20  C   UNL     1      -6.309  -9.816  16.057  0.00  0.00    +0.008 A 
ATOM     21  C   UNL     1      -6.444 -10.375  18.404  0.00  0.00    +0.008 A 
ATOM     22  C   UNL     1      -4.971 -10.207  16.042  0.00  0.00    +0.038 A 
ATOM     23  C   UNL     1      -5.105 -10.766  18.388  0.00  0.00    +0.038 A 
ATOM     24  C   UNL     1      -4.368 -10.682  17.206  0.00  0.00    +0.123 A 
ENDBRANCH  13  19
ENDBRANCH   5  13
ENDBRANCH   7   5
BRANCH   9  11
ATOM     11  C   UNL     1     -12.878  -6.193  14.965  0.00  0.00    +0.138 C 
BRANCH  11   6
ATOM      4  O   UNL     1     -14.238  -4.205  13.357  0.00  0.00    -0.276 OA
ATOM      6  N   UNL     1     -12.300  -5.340  13.951  0.00  0.00    -0.313 N 
ATOM     15  C   UNL     1     -13.033  -4.415  13.229  0.00  0.00    +0.214 C 
ATOM     26  H   UNL     1     -11.302  -5.430  13.776  0.00  0.00    +0.149 HD
BRANCH  15  14
ATOM     14  C   UNL     1     -12.196  -3.650  12.218  0.00  0.00    +0.102 C 
BRANCH  14  12
ATOM     12  C   UNL     1     -12.462  -4.026  10.741  0.00  0.00    -0.029 C 
ATOM     16  C   UNL     1     -12.562  -5.549  10.557  0.00  0.00    +0.011 C 
ATOM     17  C   UNL     1     -13.753  -3.367  10.226  0.00  0.00    +0.011 C 
ATOM     18  C   UNL     1     -11.281  -3.509   9.896  0.00  0.00    +0.011 C 
ENDBRANCH  14  12
ENDBRANCH  15  14
ENDBRANCH  11   6
ENDBRANCH   9  11
TORSDOF 8
ENDMDL
MODEL 3
REMARK VINA RESULT:      -6.1      1.477      2.202
REMARK  Name = 75536520
REMARK  11 active torsions:
REMARK  status: ('A' for Active; 'I' for Inactive)
REMARK    1  A    between atoms: O_3  and  C_8
REMARK    2  A    between atoms: N_5  and  C_7
REMARK    3  A    between atoms: N_5  and  C_13
REMARK    4  A    between atoms: N_6  and  C_11
REMARK    5  A    between atoms: C_9  and  C_11
REMARK    6  A    between atoms: C_12  and  C_14
REMARK    7  A    between atoms: C_12  and  C_16
REMARK    8  A    between atoms: C_12  and  C_17
REMARK    9  A    between atoms: C_12  and  C_18
REMARK   10  A    between atoms: C_13  and  C_19
REMARK   11  A    between atoms: C_14  and  C_15
REMARK                            x       y       z     vdW  Elec       q    Type
REMARK                         _______ _______ _______ _____ _____    ______ ____
ROOT
ATOM      2  O   UNL     1      11.744  10.341  20.856  0.00  0.00    -0.371 OA
ATOM      7  C   UNL     1      12.003   8.268  19.727  0.00  0.00    +0.111 C 
ATOM      8  C   UNL     1      11.488   8.006  21.130  0.00  0.00    +0.164 C 
ATOM      9  C   UNL     1      10.897   9.364  21.484  0.00  0.00    +0.165 C 
ATOM     10  C   UNL     1      12.550   9.679  19.867  0.00  0.00    +0.181 C 
ENDROOT
BRANCH   8   3
ATOM      3  O   UNL     1      10.514   6.981  21.172  0.00  0.00    -0.388 OA
ATOM     27  H   UNL     1       9.742   7.312  21.662  0.00  0.00    +0.210 HD
ENDBRANCH   8   3
BRANCH   7   5
ATOM      5  N   UNL     1      13.006   7.312  19.287  0.00  0.00    -0.305 NA
ATOM     25  H   UNL     1      13.721   7.804  18.751  0.00  0.00    +0.123 HD
BRANCH   5  13
ATOM     13  C   UNL     1      13.636   6.651  20.423  0.00  0.00    +0.116 C 
BRANCH  13  19
ATOM      1  F   UNL     1      19.109   7.931  20.827  0.00  0.00    -0.205 F 
ATOM     19  C   UNL     1      15.098   6.994  20.531  0.00  0.00    -0.033 A 
ATOM     20  C   UNL     1      16.035   6.298  19.766  0.00  0.00    +0.008 A 
ATOM     21  C   UNL     1      15.516   8.005  21.397  0.00  0.00    +0.008 A 
ATOM     22  C   UNL     1      17.389   6.615  19.867  0.00  0.00    +0.038 A 
ATOM     23  C   UNL     1      16.871   8.321  21.496  0.00  0.00    +0.038 A 
ATOM     24  C   UNL     1      17.807   7.626  20.731  0.00  0.00    +0.123 A 
ENDBRANCH  13  19
ENDBRANCH   5  13
ENDBRANCH   7   5
BRANCH   9  11
ATOM     11  C   UNL     1      10.836   9.622  22.979  0.00  0.00    +0.138 C 
BRANCH  11   6
ATOM      4  O   UNL     1      11.550  11.222  25.285  0.00  0.00    -0.276 OA
ATOM      6  N   UNL     1      10.427  10.978  23.266  0.00  0.00    -0.313 N 
ATOM     15  C   UNL     1      10.820  11.666  24.400  0.00  0.00    +0.214 C 
ATOM     26  H   UNL     1       9.827  11.439  22.587  0.00  0.00    +0.149 HD
BRANCH  15  14
ATOM     14  C   UNL     1      10.248  13.071  24.472  0.00  0.00    +0.102 C 
BRANCH  14  12
ATOM     12  C   UNL     1      10.898  14.085  23.502  0.00  0.00    -0.029 C 
ATOM     16  C   UNL     1      10.466  13.830  22.048  0.00  0.00    +0.011 C 
ATOM     17  C   UNL     1      10.544  15.531  23.890  0.00  0.00    +0.011 C 
ATOM     18  C   UNL     1      12.428  13.918  23.591  0.00  0.00    +0.011 C 
ENDBRANCH  14  12
ENDBRANCH  15  14
ENDBRANCH  11   6
ENDBRANCH   9  11
TORSDOF 8
ENDMDL
MODEL 4
REMARK VINA RESULT:      -6.1     33.139     34.873
REMARK  Name = 75536520
REMARK  11 active torsions:
REMARK  status: ('A' for Active; 'I' for Inactive)
REMARK    1  A    between atoms: O_3  and  C_8
REMARK    2  A    between atoms: N_5  and  C_7
REMARK    3  A    between atoms: N_5  and  C_13
REMARK    4  A    between atoms: N_6  and  C_11
REMARK    5  A    between atoms: C_9  and  C_11
REMARK    6  A    between atoms: C_12  and  C_14
REMARK    7  A    between atoms: C_12  and  C_16
REMARK    8  A    between atoms: C_12  and  C_17
REMARK    9  A    between atoms: C_12  and  C_18
REMARK   10  A    between atoms: C_13  and  C_19
REMARK   11  A    between atoms: C_14  and  C_15
REMARK                            x       y       z     vdW  Elec       q    Type
REMARK                         _______ _______ _______ _____ _____    ______ ____
ROOT
ATOM      2  O   UNL     1      -1.811 -15.578  -1.849  0.00  0.00    -0.371 OA
ATOM      7  C   UNL     1      -1.113 -14.191  -0.052  0.00  0.00    +0.111 C 
ATOM      8  C   UNL     1      -1.839 -13.341  -1.079  0.00  0.00    +0.164 C 
ATOM      9  C   UNL     1      -2.638 -14.402  -1.824  0.00  0.00    +0.165 C 
ATOM     10  C   UNL     1      -0.768 -15.424  -0.872  0.00  0.00    +0.181 C 
ENDROOT
BRANCH   8   3
ATOM      3  O   UNL     1      -2.678 -12.368  -0.489  0.00  0.00    -0.388 OA
ATOM     27  H   UNL     1      -3.171 -12.789   0.235  0.00  0.00    +0.210 HD
ENDBRANCH   8   3
BRANCH   7   5
ATOM      5  N   UNL     1       0.058 -13.544   0.517  0.00  0.00    -0.305 NA
ATOM     25  H   UNL     1      -0.227 -12.671   0.960  0.00  0.00    +0.123 HD
BRANCH   5  13
ATOM     13  C   UNL     1       0.696 -14.395   1.514  0.00  0.00    +0.116 C 
BRANCH  13  19
ATOM      1  F   UNL     1       6.043 -15.554   0.166  0.00  0.00    -0.205 F 
ATOM     19  C   UNL     1       2.125 -14.705   1.154  0.00  0.00    -0.033 A 
ATOM     20  C   UNL     1       2.739 -14.032   0.098  0.00  0.00    +0.008 A 
ATOM     21  C   UNL     1       2.834 -15.665   1.876  0.00  0.00    +0.008 A 
ATOM     22  C   UNL     1       4.062 -14.319  -0.235  0.00  0.00    +0.038 A 
ATOM     23  C   UNL     1       4.157 -15.952   1.543  0.00  0.00    +0.038 A 
ATOM     24  C   UNL     1       4.772 -15.278   0.487  0.00  0.00    +0.123 A 
ENDBRANCH  13  19
ENDBRANCH   5  13
ENDBRANCH   7   5
BRANCH   9  11
ATOM     11  C   UNL     1      -2.997 -13.997  -3.243  0.00  0.00    +0.138 C 
BRANCH  11   6
ATOM      4  O   UNL     1      -0.850 -14.375  -5.150  0.00  0.00    -0.276 OA
ATOM      6  N   UNL     1      -2.090 -12.994  -3.753  0.00  0.00    -0.313 N 
ATOM     15  C   UNL     1      -1.089 -13.269  -4.667  0.00  0.00    +0.214 C 
ATOM     26  H   UNL     1      -2.211 -12.040  -3.421  0.00  0.00    +0.149 HD
BRANCH  15  14
ATOM     14  C   UNL     1      -0.267 -12.046  -5.038  0.00  0.00    +0.102 C 
BRANCH  14  12
ATOM     12  C   UNL     1       1.196 -12.073  -4.535  0.00  0.00    -0.029 C 
ATOM     16  C   UNL     1       1.308 -12.761  -3.165  0.00  0.00    +0.011 C 
ATOM     17  C   UNL     1       2.114 -12.790  -5.539  0.00  0.00    +0.011 C 
ATOM     18  C   UNL     1       1.678 -10.616  -4.389  0.00  0.00    +0.011 C 
ENDBRANCH  14  12
ENDBRANCH  15  14
ENDBRANCH  11   6
ENDBRANCH   9  11
TORSDOF 8
ENDMDL
MODEL 5
REMARK VINA RESULT:      -6.0     27.229     30.007
REMARK  Name = 75536520
REMARK  11 active torsions:
REMARK  status: ('A' for Active; 'I' for Inactive)
REMARK    1  A    between atoms: O_3  and  C_8
REMARK    2  A    between atoms: N_5  and  C_7
REMARK    3  A    between atoms: N_5  and  C_13
REMARK    4  A    between atoms: N_6  and  C_11
REMARK    5  A    between atoms: C_9  and  C_11
REMARK    6  A    between atoms: C_12  and  C_14
REMARK    7  A    between atoms: C_12  and  C_16
REMARK    8  A    between atoms: C_12  and  C_17
REMARK    9  A    between atoms: C_12  and  C_18
REMARK   10  A    between atoms: C_13  and  C_19
REMARK   11  A    between atoms: C_14  and  C_15
REMARK                            x       y       z     vdW  Elec       q    Type
REMARK                         _______ _______ _______ _____ _____    ______ ____
ROOT
ATOM      2  O   UNL     1     -16.123   2.119  24.450  0.00  0.00    -0.371 OA
ATOM      7  C   UNL     1     -17.367   2.803  26.354  0.00  0.00    +0.111 C 
ATOM      8  C   UNL     1     -16.279   3.826  26.081  0.00  0.00    +0.164 C 
ATOM      9  C   UNL     1     -15.969   3.539  24.618  0.00  0.00    +0.165 C 
ATOM     10  C   UNL     1     -16.854   1.603  25.576  0.00  0.00    +0.181 C 
ENDROOT
BRANCH   8   3
ATOM      3  O   UNL     1     -16.718   5.156  26.275  0.00  0.00    -0.388 OA
ATOM     27  H   UNL     1     -16.835   5.570  25.403  0.00  0.00    +0.210 HD
ENDBRANCH   8   3
BRANCH   7   5
ATOM      5  N   UNL     1     -17.560   2.522  27.767  0.00  0.00    -0.305 NA
ATOM     25  H   UNL     1     -18.559   2.437  27.956  0.00  0.00    +0.123 HD
BRANCH   5  13
ATOM     13  C   UNL     1     -16.899   1.280  28.150  0.00  0.00    +0.116 C 
BRANCH  13  19
ATOM      1  F   UNL     1     -13.138   2.092  32.267  0.00  0.00    -0.205 F 
ATOM     19  C   UNL     1     -15.894   1.497  29.250  0.00  0.00    -0.033 A 
ATOM     20  C   UNL     1     -15.181   2.694  29.317  0.00  0.00    +0.008 A 
ATOM     21  C   UNL     1     -15.675   0.500  30.202  0.00  0.00    +0.008 A 
ATOM     22  C   UNL     1     -14.251   2.895  30.336  0.00  0.00    +0.038 A 
ATOM     23  C   UNL     1     -14.745   0.702  31.221  0.00  0.00    +0.038 A 
ATOM     24  C   UNL     1     -14.032   1.899  31.287  0.00  0.00    +0.123 A 
ENDBRANCH  13  19
ENDBRANCH   5  13
ENDBRANCH   7   5
BRANCH   9  11
ATOM     11  C   UNL     1     -14.567   3.954  24.209  0.00  0.00    +0.138 C 
BRANCH  11   6
ATOM      4  O   UNL     1     -15.040   4.862  21.500  0.00  0.00    -0.276 OA
ATOM      6  N   UNL     1     -14.538   5.315  23.723  0.00  0.00    -0.313 N 
ATOM     15  C   UNL     1     -14.778   5.655  22.403  0.00  0.00    +0.214 C 
ATOM     26  H   UNL     1     -14.340   6.049  24.397  0.00  0.00    +0.149 HD
BRANCH  15  14
ATOM     14  C   UNL     1     -14.681   7.149  22.146  0.00  0.00    +0.102 C 
BRANCH  14  12
ATOM     12  C   UNL     1     -13.547   7.566  21.179  0.00  0.00    -0.029 C 
ATOM     16  C   UNL     1     -12.395   6.549  21.191  0.00  0.00    +0.011 C 
ATOM     17  C   UNL     1     -14.072   7.721  19.742  0.00  0.00    +0.011 C 
ATOM     18  C   UNL     1     -12.999   8.929  21.646  0.00  0.00    +0.011 C 
ENDBRANCH  14  12
ENDBRANCH  15  14
ENDBRANCH  11   6
ENDBRANCH   9  11
TORSDOF 8
ENDMDL
MODEL 6
REMARK VINA RESULT:      -5.8     24.375     26.957
REMARK  Name = 75536520
REMARK  11 active torsions:
REMARK  status: ('A' for Active; 'I' for Inactive)
REMARK    1  A    between atoms: O_3  and  C_8
REMARK    2  A    between atoms: N_5  and  C_7
REMARK    3  A    between atoms: N_5  and  C_13
REMARK    4  A    between atoms: N_6  and  C_11
REMARK    5  A    between atoms: C_9  and  C_11
REMARK    6  A    between atoms: C_12  and  C_14
REMARK    7  A    between atoms: C_12  and  C_16
REMARK    8  A    between atoms: C_12  and  C_17
REMARK    9  A    between atoms: C_12  and  C_18
REMARK   10  A    between atoms: C_13  and  C_19
REMARK   11  A    between atoms: C_14  and  C_15
REMARK                            x       y       z     vdW  Elec       q    Type
REMARK                         _______ _______ _______ _____ _____    ______ ____
ROOT
ATOM      2  O   UNL     1     -10.640  10.646  15.822  0.00  0.00    -0.371 OA
ATOM      7  C   UNL     1      -9.827   9.459  17.711  0.00  0.00    +0.111 C 
ATOM      8  C   UNL     1     -10.689   8.529  16.877  0.00  0.00    +0.164 C 
ATOM      9  C   UNL     1     -10.665   9.238  15.529  0.00  0.00    +0.165 C 
ATOM     10  C   UNL     1     -10.271  10.820  17.200  0.00  0.00    +0.181 C 
ENDROOT
BRANCH   8   3
ATOM      3  O   UNL     1     -10.159   7.221  16.793  0.00  0.00    -0.388 OA
ATOM     27  H   UNL     1     -10.166   6.831  17.683  0.00  0.00    +0.210 HD
ENDBRANCH   8   3
BRANCH   7   5
ATOM      5  N   UNL     1     -10.018   9.302  19.144  0.00  0.00    -0.305 NA
ATOM     25  H   UNL     1      -9.324   9.864  19.636  0.00  0.00    +0.123 HD
BRANCH   5  13
ATOM     13  C   UNL     1     -11.350   9.735  19.546  0.00  0.00    +0.116 C 
BRANCH  13  19
ATOM      1  F   UNL     1     -14.045   5.759  22.493  0.00  0.00    -0.205 F 
ATOM     19  C   UNL     1     -12.071   8.673  20.334  0.00  0.00    -0.033 A 
ATOM     20  C   UNL     1     -11.619   7.353  20.300  0.00  0.00    +0.008 A 
ATOM     21  C   UNL     1     -13.190   9.008  21.096  0.00  0.00    +0.008 A 
ATOM     22  C   UNL     1     -12.286   6.370  21.029  0.00  0.00    +0.038 A 
ATOM     23  C   UNL     1     -13.857   8.024  21.826  0.00  0.00    +0.038 A 
ATOM     24  C   UNL     1     -13.405   6.704  21.792  0.00  0.00    +0.123 A 
ENDBRANCH  13  19
ENDBRANCH   5  13
ENDBRANCH   7   5
BRANCH   9  11
ATOM     11  C   UNL     1     -11.866   8.916  14.660  0.00  0.00    +0.138 C 
BRANCH  11   6
ATOM      4  O   UNL     1     -14.713   9.443  14.587  0.00  0.00    -0.276 OA
ATOM      6  N   UNL     1     -12.902   8.246  15.414  0.00  0.00    -0.313 N 
ATOM     15  C   UNL     1     -14.243   8.568  15.313  0.00  0.00    +0.214 C 
ATOM     26  H   UNL     1     -12.615   7.497  16.038  0.00  0.00    +0.149 HD
BRANCH  15  14
ATOM     14  C   UNL     1     -15.128   7.724  16.215  0.00  0.00    +0.102 C 
BRANCH  14  12
ATOM     12  C   UNL     1     -15.635   8.448  17.485  0.00  0.00    -0.029 C 
ATOM     16  C   UNL     1     -15.700   7.494  18.689  0.00  0.00    +0.011 C 
ATOM     17  C   UNL     1     -14.737   9.646  17.835  0.00  0.00    +0.011 C 
ATOM     18  C   UNL     1     -17.056   8.972  17.201  0.00  0.00    +0.011 C 
ENDBRANCH  14  12
ENDBRANCH  15  14
ENDBRANCH  11   6
ENDBRANCH   9  11
TORSDOF 8
ENDMDL
MODEL 7
REMARK VINA RESULT:      -5.8     26.305     28.213
REMARK  Name = 75536520
REMARK  11 active torsions:
REMARK  status: ('A' for Active; 'I' for Inactive)
REMARK    1  A    between atoms: O_3  and  C_8
REMARK    2  A    between atoms: N_5  and  C_7
REMARK    3  A    between atoms: N_5  and  C_13
REMARK    4  A    between atoms: N_6  and  C_11
REMARK    5  A    between atoms: C_9  and  C_11
REMARK    6  A    between atoms: C_12  and  C_14
REMARK    7  A    between atoms: C_12  and  C_16
REMARK    8  A    between atoms: C_12  and  C_17
REMARK    9  A    between atoms: C_12  and  C_18
REMARK   10  A    between atoms: C_13  and  C_19
REMARK   11  A    between atoms: C_14  and  C_15
REMARK                            x       y       z     vdW  Elec       q    Type
REMARK                         _______ _______ _______ _____ _____    ______ ____
ROOT
ATOM      2  O   UNL     1      -1.920 -11.206  12.116  0.00  0.00    -0.371 OA
ATOM      7  C   UNL     1      -1.965 -11.105  14.489  0.00  0.00    +0.111 C 
ATOM      8  C   UNL     1      -2.763 -12.312  14.030  0.00  0.00    +0.164 C 
ATOM      9  C   UNL     1      -2.201 -12.519  12.630  0.00  0.00    +0.165 C 
ATOM     10  C   UNL     1      -1.911 -10.278  13.215  0.00  0.00    +0.181 C 
ENDROOT
BRANCH   8   3
ATOM      3  O   UNL     1      -2.561 -13.446  14.851  0.00  0.00    -0.388 OA
ATOM     27  H   UNL     1      -3.421 -13.722  15.207  0.00  0.00    +0.210 HD
ENDBRANCH   8   3
BRANCH   7   5
ATOM      5  N   UNL     1      -2.573 -10.394  15.601  0.00  0.00    -0.305 NA
ATOM     25  H   UNL     1      -2.332  -9.405  15.535  0.00  0.00    +0.123 HD
BRANCH   5  13
ATOM     13  C   UNL     1      -4.024 -10.529  15.580  0.00  0.00    +0.116 C 
BRANCH  13  19
ATOM      1  F   UNL     1      -6.113 -11.529  20.718  0.00  0.00    -0.205 F 
ATOM     19  C   UNL     1      -4.582 -10.797  16.953  0.00  0.00    -0.033 A 
ATOM     20  C   UNL     1      -5.839 -10.305  17.302  0.00  0.00    +0.008 A 
ATOM     21  C   UNL     1      -3.841 -11.536  17.876  0.00  0.00    +0.008 A 
ATOM     22  C   UNL     1      -6.356 -10.552  18.574  0.00  0.00    +0.038 A 
ATOM     23  C   UNL     1      -4.358 -11.783  19.147  0.00  0.00    +0.038 A 
ATOM     24  C   UNL     1      -5.616 -11.291  19.496  0.00  0.00    +0.123 A 
ENDBRANCH  13  19
ENDBRANCH   5  13
ENDBRANCH   7   5
BRANCH   9  11
ATOM     11  C   UNL     1      -3.160 -13.239  11.698  0.00  0.00    +0.138 C 
BRANCH  11   6
ATOM      4  O   UNL     1      -5.876 -12.235  11.736  0.00  0.00    -0.276 OA
ATOM      6  N   UNL     1      -3.770 -12.327  10.758  0.00  0.00    -0.313 N 
ATOM     15  C   UNL     1      -5.082 -11.900  10.857  0.00  0.00    +0.214 C 
ATOM     26  H   UNL     1      -3.191 -11.983   9.996  0.00  0.00    +0.149 HD
BRANCH  15  14
ATOM     14  C   UNL     1      -5.486 -10.951   9.741  0.00  0.00    +0.102 C 
BRANCH  14  12
ATOM     12  C   UNL     1      -5.139  -9.465  10.000  0.00  0.00    -0.029 C 
ATOM     16  C   UNL     1      -3.693  -9.145   9.587  0.00  0.00    +0.011 C 
ATOM     17  C   UNL     1      -6.101  -8.532   9.245  0.00  0.00    +0.011 C 
ATOM     18  C   UNL     1      -5.285  -9.196  11.511  0.00  0.00    +0.011 C 
ENDBRANCH  14  12
ENDBRANCH  15  14
ENDBRANCH  11   6
ENDBRANCH   9  11
TORSDOF 8
ENDMDL
MODEL 8
REMARK VINA RESULT:      -5.7     26.324     28.119
REMARK  Name = 75536520
REMARK  11 active torsions:
REMARK  status: ('A' for Active; 'I' for Inactive)
REMARK    1  A    between atoms: O_3  and  C_8
REMARK    2  A    between atoms: N_5  and  C_7
REMARK    3  A    between atoms: N_5  and  C_13
REMARK    4  A    between atoms: N_6  and  C_11
REMARK    5  A    between atoms: C_9  and  C_11
REMARK    6  A    between atoms: C_12  and  C_14
REMARK    7  A    between atoms: C_12  and  C_16
REMARK    8  A    between atoms: C_12  and  C_17
REMARK    9  A    between atoms: C_12  and  C_18
REMARK   10  A    between atoms: C_13  and  C_19
REMARK   11  A    between atoms: C_14  and  C_15
REMARK                            x       y       z     vdW  Elec       q    Type
REMARK                         _______ _______ _______ _____ _____    ______ ____
ROOT
ATOM      2  O   UNL     1      -4.928 -11.891  16.078  0.00  0.00    -0.371 OA
ATOM      7  C   UNL     1      -2.900 -11.493  14.909  0.00  0.00    +0.111 C 
ATOM      8  C   UNL     1      -2.804 -10.873  16.291  0.00  0.00    +0.164 C 
ATOM      9  C   UNL     1      -3.883 -11.647  17.035  0.00  0.00    +0.165 C 
ATOM     10  C   UNL     1      -4.403 -11.662  14.759  0.00  0.00    +0.181 C 
ENDROOT
BRANCH   8   3
ATOM      3  O   UNL     1      -1.530 -11.047  16.881  0.00  0.00    -0.388 OA
ATOM     27  H   UNL     1      -1.027 -11.679  16.341  0.00  0.00    +0.210 HD
ENDBRANCH   8   3
BRANCH   7   5
ATOM      5  N   UNL     1      -2.315 -10.673  13.861  0.00  0.00    -0.305 NA
ATOM     25  H   UNL     1      -1.453 -10.254  14.208  0.00  0.00    +0.123 HD
BRANCH   5  13
ATOM     13  C   UNL     1      -2.011 -11.470  12.679  0.00  0.00    +0.116 C 
BRANCH  13  19
ATOM      1  F   UNL     1      -4.768  -9.608   8.130  0.00  0.00    -0.205 F 
ATOM     19  C   UNL     1      -2.748 -10.973  11.463  0.00  0.00    -0.033 A 
ATOM     20  C   UNL     1      -2.650  -9.633  11.088  0.00  0.00    +0.008 A 
ATOM     21  C   UNL     1      -3.529 -11.852  10.712  0.00  0.00    +0.008 A 
ATOM     22  C   UNL     1      -3.332  -9.172   9.963  0.00  0.00    +0.038 A 
ATOM     23  C   UNL     1      -4.211 -11.391   9.586  0.00  0.00    +0.038 A 
ATOM     24  C   UNL     1      -4.113 -10.051   9.212  0.00  0.00    +0.123 A 
ENDBRANCH  13  19
ENDBRANCH   5  13
ENDBRANCH   7   5
BRANCH   9  11
ATOM     11  C   UNL     1      -4.446 -10.897  18.229  0.00  0.00    +0.138 C 
BRANCH  11   6
ATOM      4  O   UNL     1      -6.333 -10.699  20.417  0.00  0.00    -0.276 OA
ATOM      6  N   UNL     1      -5.882 -10.758  18.138  0.00  0.00    -0.313 N 
ATOM     15  C   UNL     1      -6.707 -10.671  19.245  0.00  0.00    +0.214 C 
ATOM     26  H   UNL     1      -6.290 -10.715  17.208  0.00  0.00    +0.149 HD
BRANCH  15  14
ATOM     14  C   UNL     1      -8.177 -10.539  18.883  0.00  0.00    +0.102 C 
BRANCH  14  12
ATOM     12  C   UNL     1      -8.996 -11.845  19.017  0.00  0.00    -0.029 C 
ATOM     16  C   UNL     1      -8.095 -13.041  19.365  0.00  0.00    +0.011 C 
ATOM     17  C   UNL     1     -10.091 -11.706  20.088  0.00  0.00    +0.011 C 
ATOM     18  C   UNL     1      -9.674 -12.124  17.661  0.00  0.00    +0.011 C 
ENDBRANCH  14  12
ENDBRANCH  15  14
ENDBRANCH  11   6
ENDBRANCH   9  11
TORSDOF 8
ENDMDL
MODEL 9
REMARK VINA RESULT:      -5.7     26.320     28.089
REMARK  Name = 75536520
REMARK  11 active torsions:
REMARK  status: ('A' for Active; 'I' for Inactive)
REMARK    1  A    between atoms: O_3  and  C_8
REMARK    2  A    between atoms: N_5  and  C_7
REMARK    3  A    between atoms: N_5  and  C_13
REMARK    4  A    between atoms: N_6  and  C_11
REMARK    5  A    between atoms: C_9  and  C_11
REMARK    6  A    between atoms: C_12  and  C_14
REMARK    7  A    between atoms: C_12  and  C_16
REMARK    8  A    between atoms: C_12  and  C_17
REMARK    9  A    between atoms: C_12  and  C_18
REMARK   10  A    between atoms: C_13  and  C_19
REMARK   11  A    between atoms: C_14  and  C_15
REMARK                            x       y       z     vdW  Elec       q    Type
REMARK                         _______ _______ _______ _____ _____    ______ ____
ROOT
ATOM      2  O   UNL     1      -3.477 -12.453  15.670  0.00  0.00    -0.371 OA
ATOM      7  C   UNL     1      -1.873 -11.957  13.989  0.00  0.00    +0.111 C 
ATOM      8  C   UNL     1      -2.434 -10.657  14.538  0.00  0.00    +0.164 C 
ATOM      9  C   UNL     1      -2.985 -11.118  15.880  0.00  0.00    +0.165 C 
ATOM     10  C   UNL     1      -2.931 -12.952  14.437  0.00  0.00    +0.181 C 
ENDROOT
BRANCH   8   3
ATOM      3  O   UNL     1      -1.446  -9.657  14.689  0.00  0.00    -0.388 OA
ATOM     27  H   UNL     1      -1.779  -8.835  14.291  0.00  0.00    +0.210 HD
ENDBRANCH   8   3
BRANCH   7   5
ATOM      5  N   UNL     1      -1.679 -11.946  12.549  0.00  0.00    -0.305 NA
ATOM     25  H   UNL     1      -0.834 -12.470  12.323  0.00  0.00    +0.123 HD
BRANCH   5  13
ATOM     13  C   UNL     1      -2.812 -12.554  11.862  0.00  0.00    +0.116 C 
BRANCH  13  19
ATOM      1  F   UNL     1      -4.842  -9.217   7.800  0.00  0.00    -0.205 F 
ATOM     19  C   UNL     1      -3.354 -11.661  10.777  0.00  0.00    -0.033 A 
ATOM     20  C   UNL     1      -4.063 -12.214   9.710  0.00  0.00    +0.008 A 
ATOM     21  C   UNL     1      -3.147 -10.283  10.838  0.00  0.00    +0.008 A 
ATOM     22  C   UNL     1      -4.565 -11.388   8.705  0.00  0.00    +0.038 A 
ATOM     23  C   UNL     1      -3.650  -9.458   9.833  0.00  0.00    +0.038 A 
ATOM     24  C   UNL     1      -4.359 -10.010   8.766  0.00  0.00    +0.123 A 
ENDBRANCH  13  19
ENDBRANCH   5  13
ENDBRANCH   7   5
BRANCH   9  11
ATOM     11  C   UNL     1      -4.103 -10.236  16.406  0.00  0.00    +0.138 C 
BRANCH  11   6
ATOM      4  O   UNL     1      -6.849  -9.382  16.747  0.00  0.00    -0.276 OA
ATOM      6  N   UNL     1      -5.211 -11.022  16.898  0.00  0.00    -0.313 N 
ATOM     15  C   UNL     1      -6.496 -10.526  17.028  0.00  0.00    +0.214 C 
ATOM     26  H   UNL     1      -5.024 -11.990  17.149  0.00  0.00    +0.149 HD
BRANCH  15  14
ATOM     14  C   UNL     1      -7.477 -11.549  17.575  0.00  0.00    +0.102 C 
BRANCH  14  12
ATOM     12  C   UNL     1      -7.768 -11.420  19.089  0.00  0.00    -0.029 C 
ATOM     16  C   UNL     1      -6.639 -10.673  19.818  0.00  0.00    +0.011 C 
ATOM     17  C   UNL     1      -9.100 -10.694  19.338  0.00  0.00    +0.011 C 
ATOM     18  C   UNL     1      -7.871 -12.841  19.679  0.00  0.00    +0.011 C 
ENDBRANCH  14  12
ENDBRANCH  15  14
ENDBRANCH  11   6
ENDBRANCH   9  11
TORSDOF 8
ENDMDL
MODEL 10
REMARK VINA RESULT:      -5.7     14.802     16.432
REMARK  Name = 75536520
REMARK  11 active torsions:
REMARK  status: ('A' for Active; 'I' for Inactive)
REMARK    1  A    between atoms: O_3  and  C_8
REMARK    2  A    between atoms: N_5  and  C_7
REMARK    3  A    between atoms: N_5  and  C_13
REMARK    4  A    between atoms: N_6  and  C_11
REMARK    5  A    between atoms: C_9  and  C_11
REMARK    6  A    between atoms: C_12  and  C_14
REMARK    7  A    between atoms: C_12  and  C_16
REMARK    8  A    between atoms: C_12  and  C_17
REMARK    9  A    between atoms: C_12  and  C_18
REMARK   10  A    between atoms: C_13  and  C_19
REMARK   11  A    between atoms: C_14  and  C_15
REMARK                            x       y       z     vdW  Elec       q    Type
REMARK                         _______ _______ _______ _____ _____    ______ ____
ROOT
ATOM      2  O   UNL     1      13.665   9.172   3.683  0.00  0.00    -0.371 OA
ATOM      7  C   UNL     1      15.705   8.531   4.718  0.00  0.00    +0.111 C 
ATOM      8  C   UNL     1      14.824   7.305   4.559  0.00  0.00    +0.164 C 
ATOM      9  C   UNL     1      13.874   7.767   3.462  0.00  0.00    +0.165 C 
ATOM     10  C   UNL     1      14.689   9.652   4.572  0.00  0.00    +0.181 C 
ENDROOT
BRANCH   8   3
ATOM      3  O   UNL     1      15.552   6.155   4.175  0.00  0.00    -0.388 OA
ATOM     27  H   UNL     1      15.055   5.699   3.475  0.00  0.00    +0.210 HD
ENDBRANCH   8   3
BRANCH   7   5
ATOM      5  N   UNL     1      16.419   8.575   5.983  0.00  0.00    -0.305 NA
ATOM     25  H   UNL     1      16.704   7.630   6.237  0.00  0.00    +0.123 HD
BRANCH   5  13
ATOM     13  C   UNL     1      17.605   9.418   5.887  0.00  0.00    +0.116 C 
BRANCH  13  19
ATOM      1  F   UNL     1      22.245   6.398   4.837  0.00  0.00    -0.205 F 
ATOM     19  C   UNL     1      18.845   8.611   5.607  0.00  0.00    -0.033 A 
ATOM     20  C   UNL     1      19.056   8.077   4.335  0.00  0.00    +0.008 A 
ATOM     21  C   UNL     1      19.781   8.396   6.618  0.00  0.00    +0.008 A 
ATOM     22  C   UNL     1      20.204   7.330   4.076  0.00  0.00    +0.038 A 
ATOM     23  C   UNL     1      20.930   7.649   6.358  0.00  0.00    +0.038 A 
ATOM     24  C   UNL     1      21.141   7.115   5.086  0.00  0.00    +0.123 A 
ENDBRANCH  13  19
ENDBRANCH   5  13
ENDBRANCH   7   5
BRANCH   9  11
ATOM     11  C   UNL     1      12.540   7.042   3.477  0.00  0.00    +0.138 C 
BRANCH  11   6
ATOM      4  O   UNL     1      10.938   8.245   5.568  0.00  0.00    -0.276 OA
ATOM      6  N   UNL     1      12.250   6.496   4.783  0.00  0.00    -0.313 N 
ATOM     15  C   UNL     1      11.470   7.146   5.722  0.00  0.00    +0.214 C 
ATOM     26  H   UNL     1      12.637   5.582   5.005  0.00  0.00    +0.149 HD
BRANCH  15  14
ATOM     14  C   UNL     1      11.322   6.366   7.018  0.00  0.00    +0.102 C 
BRANCH  14  12
ATOM     12  C   UNL     1       9.883   5.886   7.322  0.00  0.00    -0.029 C 
ATOM     16  C   UNL     1       9.884   4.637   8.219  0.00  0.00    +0.011 C 
ATOM     17  C   UNL     1       9.059   6.995   7.999  0.00  0.00    +0.011 C 
ATOM     18  C   UNL     1       9.207   5.524   5.985  0.00  0.00    +0.011 C 
ENDBRANCH  14  12
ENDBRANCH  15  14
ENDBRANCH  11   6
ENDBRANCH   9  11
TORSDOF 8
ENDMDL
