MODEL 1
REMARK VINA RESULT:      -6.1      0.000      0.000
REMARK  Name = 11943278
REMARK  5 active torsions:
REMARK  status: ('A' for Active; 'I' for Inactive)
REMARK    1  A    between atoms: N_4  and  C_13
REMARK    2  A    between atoms: C_6  and  C_12
REMARK    3  A    between atoms: C_7  and  C_13
REMARK    4  A    between atoms: C_12  and  C_14
REMARK    5  A    between atoms: C_15  and  C_16
REMARK                            x       y       z     vdW  Elec       q    Type
REMARK                         _______ _______ _______ _____ _____    ______ ____
ROOT
ATOM      3  N   UNL     1      10.833   6.812   5.807  0.00  0.00    -0.298 NA
ATOM      5  C   UNL     1       8.623   7.361   7.062  0.00  0.00    -0.004 C 
ATOM      6  C   UNL     1       9.660   6.734   8.020  0.00  0.00    +0.006 C 
ATOM      7  C   UNL     1       9.677   6.218   5.084  0.00  0.00    +0.074 C 
ATOM      8  C   UNL     1       8.369   6.400   5.886  0.00  0.00    +0.024 C 
ATOM      9  C   UNL     1      10.892   6.298   7.196  0.00  0.00    +0.088 C 
ATOM     10  C   UNL     1       9.264   8.636   6.480  0.00  0.00    +0.019 C 
ATOM     11  C   UNL     1      10.630   8.280   5.866  0.00  0.00    +0.085 C 
ENDROOT
BRANCH   6  12
ATOM     12  C   UNL     1       9.097   5.579   8.846  0.00  0.00    +0.002 C 
ATOM     14  C   UNL     1       9.791   4.272   8.515  0.00  0.00    +0.004 C 
ENDBRANCH   6  12
BRANCH   7  13
ATOM     13  C   UNL     1       9.913   4.754   4.709  0.00  0.00    +0.123 C 
BRANCH  13   4
ATOM      1  O   UNL     1      10.213   4.173   1.966  0.00  0.00    -0.267 OA
ATOM      4  N   UNL     1      11.157   4.599   4.018  0.00  0.00    -0.307 N 
ATOM     15  C   UNL     1      11.229   4.309   2.649  0.00  0.00    +0.279 C 
ATOM     20  H   UNL     1      12.019   4.710   4.544  0.00  0.00    +0.149 HD
BRANCH  15  16
ATOM      2  O   UNL     1      13.307   5.335   2.091  0.00  0.00    -0.458 OA
ATOM     16  C   UNL     1      12.579   4.212   2.075  0.00  0.00    +0.189 A 
ATOM     17  C   UNL     1      13.213   3.161   1.528  0.00  0.00    +0.054 A 
ATOM     18  C   UNL     1      14.482   3.664   1.153  0.00  0.00    +0.042 A 
ATOM     19  C   UNL     1      14.489   4.990   1.516  0.00  0.00    +0.196 A 
ENDBRANCH  15  16
ENDBRANCH  13   4
ENDBRANCH   7  13
TORSDOF 4
ENDMDL
MODEL 2
REMARK VINA RESULT:      -5.9     15.207     16.487
REMARK  Name = 11943278
REMARK  5 active torsions:
REMARK  status: ('A' for Active; 'I' for Inactive)
REMARK    1  A    between atoms: N_4  and  C_13
REMARK    2  A    between atoms: C_6  and  C_12
REMARK    3  A    between atoms: C_7  and  C_13
REMARK    4  A    between atoms: C_12  and  C_14
REMARK    5  A    between atoms: C_15  and  C_16
REMARK                            x       y       z     vdW  Elec       q    Type
REMARK                         _______ _______ _______ _____ _____    ______ ____
ROOT
ATOM      3  N   UNL     1      13.944   8.780  21.064  0.00  0.00    -0.298 NA
ATOM      5  C   UNL     1      11.543   9.209  20.162  0.00  0.00    -0.004 C 
ATOM      6  C   UNL     1      11.498   8.507  21.537  0.00  0.00    +0.006 C 
ATOM      7  C   UNL     1      13.816   8.244  19.682  0.00  0.00    +0.074 C 
ATOM      8  C   UNL     1      12.360   8.352  19.178  0.00  0.00    +0.024 C 
ATOM      9  C   UNL     1      12.941   8.148  21.955  0.00  0.00    +0.088 C 
ATOM     10  C   UNL     1      12.309  10.532  20.360  0.00  0.00    +0.019 C 
ATOM     11  C   UNL     1      13.668  10.237  21.018  0.00  0.00    +0.085 C 
ENDROOT
BRANCH   6  12
ATOM     12  C   UNL     1      10.584   7.282  21.559  0.00  0.00    +0.002 C 
ATOM     14  C   UNL     1      11.385   5.995  21.589  0.00  0.00    +0.004 C 
ENDBRANCH   6  12
BRANCH   7  13
ATOM     13  C   UNL     1      14.358   6.819  19.556  0.00  0.00    +0.123 C 
BRANCH  13   4
ATOM      1  O   UNL     1      16.579   5.670  18.253  0.00  0.00    -0.267 OA
ATOM      4  N   UNL     1      15.684   6.728  20.086  0.00  0.00    -0.307 N 
ATOM     15  C   UNL     1      16.742   6.142  19.380  0.00  0.00    +0.279 C 
ATOM     20  H   UNL     1      15.862   7.112  21.011  0.00  0.00    +0.149 HD
BRANCH  15  16
ATOM      2  O   UNL     1      18.862   5.125  19.766  0.00  0.00    -0.458 OA
ATOM     16  C   UNL     1      18.052   6.153  20.044  0.00  0.00    +0.189 A 
ATOM     17  C   UNL     1      18.581   7.044  20.901  0.00  0.00    +0.054 A 
ATOM     18  C   UNL     1      19.865   6.532  21.204  0.00  0.00    +0.042 A 
ATOM     19  C   UNL     1      19.988   5.363  20.489  0.00  0.00    +0.196 A 
ENDBRANCH  15  16
ENDBRANCH  13   4
ENDBRANCH   7  13
TORSDOF 4
ENDMDL
MODEL 3
REMARK VINA RESULT:      -5.7      1.771      2.256
REMARK  Name = 11943278
REMARK  5 active torsions:
REMARK  status: ('A' for Active; 'I' for Inactive)
REMARK    1  A    between atoms: N_4  and  C_13
REMARK    2  A    between atoms: C_6  and  C_12
REMARK    3  A    between atoms: C_7  and  C_13
REMARK    4  A    between atoms: C_12  and  C_14
REMARK    5  A    between atoms: C_15  and  C_16
REMARK                            x       y       z     vdW  Elec       q    Type
REMARK                         _______ _______ _______ _____ _____    ______ ____
ROOT
ATOM      3  N   UNL     1      11.128   6.898   6.307  0.00  0.00    -0.298 NA
ATOM      5  C   UNL     1       8.865   6.715   7.574  0.00  0.00    -0.004 C 
ATOM      6  C   UNL     1      10.000   6.033   8.370  0.00  0.00    +0.006 C 
ATOM      7  C   UNL     1      10.085   6.338   5.406  0.00  0.00    +0.074 C 
ATOM      8  C   UNL     1       8.770   6.079   6.174  0.00  0.00    +0.024 C 
ATOM      9  C   UNL     1      11.282   6.045   7.510  0.00  0.00    +0.088 C 
ATOM     10  C   UNL     1       9.277   8.187   7.379  0.00  0.00    +0.019 C 
ATOM     11  C   UNL     1      10.679   8.241   6.748  0.00  0.00    +0.085 C 
ENDROOT
BRANCH   6  12
ATOM     12  C   UNL     1       9.646   4.621   8.834  0.00  0.00    +0.002 C 
ATOM     14  C   UNL     1       8.973   4.637  10.193  0.00  0.00    +0.004 C 
ENDBRANCH   6  12
BRANCH   7  13
ATOM     13  C   UNL     1      10.565   5.090   4.663  0.00  0.00    +0.123 C 
BRANCH  13   4
ATOM      1  O   UNL     1      11.450   3.271   2.698  0.00  0.00    -0.267 OA
ATOM      4  N   UNL     1      10.422   5.252   3.248  0.00  0.00    -0.307 N 
ATOM     15  C   UNL     1      10.888   4.303   2.328  0.00  0.00    +0.279 C 
ATOM     20  H   UNL     1       9.958   6.087   2.902  0.00  0.00    +0.149 HD
BRANCH  15  16
ATOM      2  O   UNL     1      11.333   3.869   0.028  0.00  0.00    -0.458 OA
ATOM     16  C   UNL     1      10.638   4.596   0.910  0.00  0.00    +0.189 A 
ATOM     17  C   UNL     1       9.809   5.491   0.344  0.00  0.00    +0.054 A 
ATOM     18  C   UNL     1       9.994   5.319  -1.049  0.00  0.00    +0.042 A 
ATOM     19  C   UNL     1      10.930   4.322  -1.189  0.00  0.00    +0.196 A 
ENDBRANCH  15  16
ENDBRANCH  13   4
ENDBRANCH   7  13
TORSDOF 4
ENDMDL
MODEL 4
REMARK VINA RESULT:      -5.7     12.365     14.646
REMARK  Name = 11943278
REMARK  5 active torsions:
REMARK  status: ('A' for Active; 'I' for Inactive)
REMARK    1  A    between atoms: N_4  and  C_13
REMARK    2  A    between atoms: C_6  and  C_12
REMARK    3  A    between atoms: C_7  and  C_13
REMARK    4  A    between atoms: C_12  and  C_14
REMARK    5  A    between atoms: C_15  and  C_16
REMARK                            x       y       z     vdW  Elec       q    Type
REMARK                         _______ _______ _______ _____ _____    ______ ____
ROOT
ATOM      3  N   UNL     1      11.478   7.421  19.874  0.00  0.00    -0.298 NA
ATOM      5  C   UNL     1      13.342   8.896  20.929  0.00  0.00    -0.004 C 
ATOM      6  C   UNL     1      11.941   9.391  21.353  0.00  0.00    +0.006 C 
ATOM      7  C   UNL     1      12.411   7.897  18.816  0.00  0.00    +0.074 C 
ATOM      8  C   UNL     1      13.440   8.895  19.392  0.00  0.00    +0.024 C 
ATOM      9  C   UNL     1      10.877   8.575  20.586  0.00  0.00    +0.088 C 
ATOM     10  C   UNL     1      13.459   7.432  21.395  0.00  0.00    +0.019 C 
ATOM     11  C   UNL     1      12.262   6.631  20.854  0.00  0.00    +0.085 C 
ENDROOT
BRANCH   6  12
ATOM     12  C   UNL     1      11.748  10.893  21.156  0.00  0.00    +0.002 C 
ATOM     14  C   UNL     1      12.656  11.692  22.071  0.00  0.00    +0.004 C 
ENDBRANCH   6  12
BRANCH   7  13
ATOM     13  C   UNL     1      11.675   8.474  17.606  0.00  0.00    +0.123 C 
BRANCH  13   4
ATOM      1  O   UNL     1      13.142   8.511  15.198  0.00  0.00    -0.267 OA
ATOM      4  N   UNL     1      12.377   9.600  17.072  0.00  0.00    -0.307 N 
ATOM     15  C   UNL     1      13.087   9.545  15.865  0.00  0.00    +0.279 C 
ATOM     20  H   UNL     1      12.351  10.475  17.588  0.00  0.00    +0.149 HD
BRANCH  15  16
ATOM      2  O   UNL     1      13.326  11.286  14.254  0.00  0.00    -0.458 OA
ATOM     16  C   UNL     1      13.729  10.794  15.431  0.00  0.00    +0.189 A 
ATOM     17  C   UNL     1      14.674  11.536  16.035  0.00  0.00    +0.054 A 
ATOM     18  C   UNL     1      14.898  12.619  15.150  0.00  0.00    +0.042 A 
ATOM     19  C   UNL     1      14.055  12.420  14.083  0.00  0.00    +0.196 A 
ENDBRANCH  15  16
ENDBRANCH  13   4
ENDBRANCH   7  13
TORSDOF 4
ENDMDL
MODEL 5
REMARK VINA RESULT:      -5.4     12.274     14.687
REMARK  Name = 11943278
REMARK  5 active torsions:
REMARK  status: ('A' for Active; 'I' for Inactive)
REMARK    1  A    between atoms: N_4  and  C_13
REMARK    2  A    between atoms: C_6  and  C_12
REMARK    3  A    between atoms: C_7  and  C_13
REMARK    4  A    between atoms: C_12  and  C_14
REMARK    5  A    between atoms: C_15  and  C_16
REMARK                            x       y       z     vdW  Elec       q    Type
REMARK                         _______ _______ _______ _____ _____    ______ ____
ROOT
ATOM      3  N   UNL     1      13.952   9.266  19.815  0.00  0.00    -0.298 NA
ATOM      5  C   UNL     1      13.508   7.134  21.236  0.00  0.00    -0.004 C 
ATOM      6  C   UNL     1      14.979   7.587  21.367  0.00  0.00    +0.006 C 
ATOM      7  C   UNL     1      13.318   8.216  18.973  0.00  0.00    +0.074 C 
ATOM      8  C   UNL     1      13.179   6.889  19.752  0.00  0.00    +0.024 C 
ATOM      9  C   UNL     1      15.221   8.763  20.395  0.00  0.00    +0.088 C 
ATOM     10  C   UNL     1      12.633   8.311  21.710  0.00  0.00    +0.019 C 
ATOM     11  C   UNL     1      13.026   9.579  20.931  0.00  0.00    +0.085 C 
ENDROOT
BRANCH   6  12
ATOM     12  C   UNL     1      15.981   6.455  21.142  0.00  0.00    +0.002 C 
ATOM     14  C   UNL     1      16.887   6.745  19.961  0.00  0.00    +0.004 C 
ENDBRANCH   6  12
BRANCH   7  13
ATOM     13  C   UNL     1      14.043   8.021  17.640  0.00  0.00    +0.123 C 
BRANCH  13   4
ATOM      1  O   UNL     1      12.693   8.835  15.302  0.00  0.00    -0.267 OA
ATOM      4  N   UNL     1      14.218   9.271  16.966  0.00  0.00    -0.307 N 
ATOM     15  C   UNL     1      13.511   9.609  15.805  0.00  0.00    +0.279 C 
ATOM     20  H   UNL     1      14.878   9.940  17.353  0.00  0.00    +0.149 HD
BRANCH  15  16
ATOM      2  O   UNL     1      13.127  11.247  14.118  0.00  0.00    -0.458 OA
ATOM     16  C   UNL     1      13.776  10.942  15.247  0.00  0.00    +0.189 A 
ATOM     17  C   UNL     1      14.579  11.923  15.695  0.00  0.00    +0.054 A 
ATOM     18  C   UNL     1      14.427  12.968  14.751  0.00  0.00    +0.042 A 
ATOM     19  C   UNL     1      13.535  12.507  13.812  0.00  0.00    +0.196 A 
ENDBRANCH  15  16
ENDBRANCH  13   4
ENDBRANCH   7  13
TORSDOF 4
ENDMDL
MODEL 6
REMARK VINA RESULT:      -5.4     23.705     26.102
REMARK  Name = 11943278
REMARK  5 active torsions:
REMARK  status: ('A' for Active; 'I' for Inactive)
REMARK    1  A    between atoms: N_4  and  C_13
REMARK    2  A    between atoms: C_6  and  C_12
REMARK    3  A    between atoms: C_7  and  C_13
REMARK    4  A    between atoms: C_12  and  C_14
REMARK    5  A    between atoms: C_15  and  C_16
REMARK                            x       y       z     vdW  Elec       q    Type
REMARK                         _______ _______ _______ _____ _____    ______ ____
ROOT
ATOM      3  N   UNL     1      -6.706 -12.676  18.081  0.00  0.00    -0.298 NA
ATOM      5  C   UNL     1      -5.355 -10.528  18.649  0.00  0.00    -0.004 C 
ATOM      6  C   UNL     1      -6.367 -10.259  17.513  0.00  0.00    +0.006 C 
ATOM      7  C   UNL     1      -5.247 -12.969  18.050  0.00  0.00    +0.074 C 
ATOM      8  C   UNL     1      -4.418 -11.679  18.236  0.00  0.00    +0.024 C 
ATOM      9  C   UNL     1      -7.034 -11.596  17.120  0.00  0.00    +0.088 C 
ATOM     10  C   UNL     1      -6.166 -11.014  19.866  0.00  0.00    +0.019 C 
ATOM     11  C   UNL     1      -7.048 -12.202  19.444  0.00  0.00    +0.085 C 
ENDROOT
BRANCH   6  12
ATOM     12  C   UNL     1      -5.745  -9.564  16.303  0.00  0.00    +0.002 C 
ATOM     14  C   UNL     1      -6.475  -9.921  15.023  0.00  0.00    +0.004 C 
ENDBRANCH   6  12
BRANCH   7  13
ATOM     13  C   UNL     1      -4.833 -13.734  16.792  0.00  0.00    +0.123 C 
BRANCH  13   4
ATOM      1  O   UNL     1      -5.265 -13.137  14.070  0.00  0.00    -0.267 OA
ATOM      4  N   UNL     1      -3.981 -12.935  15.966  0.00  0.00    -0.307 N 
ATOM     15  C   UNL     1      -4.260 -12.679  14.617  0.00  0.00    +0.279 C 
ATOM     20  H   UNL     1      -3.145 -12.533  16.380  0.00  0.00    +0.149 HD
BRANCH  15  16
ATOM      2  O   UNL     1      -2.982 -12.187  12.666  0.00  0.00    -0.458 OA
ATOM     16  C   UNL     1      -3.307 -11.813  13.909  0.00  0.00    +0.189 A 
ATOM     17  C   UNL     1      -2.696 -10.686  14.314  0.00  0.00    +0.054 A 
ATOM     18  C   UNL     1      -1.896 -10.297  13.212  0.00  0.00    +0.042 A 
ATOM     19  C   UNL     1      -2.105 -11.243  12.236  0.00  0.00    +0.196 A 
ENDBRANCH  15  16
ENDBRANCH  13   4
ENDBRANCH   7  13
TORSDOF 4
ENDMDL
MODEL 7
REMARK VINA RESULT:      -5.3     22.452     24.787
REMARK  Name = 11943278
REMARK  5 active torsions:
REMARK  status: ('A' for Active; 'I' for Inactive)
REMARK    1  A    between atoms: N_4  and  C_13
REMARK    2  A    between atoms: C_6  and  C_12
REMARK    3  A    between atoms: C_7  and  C_13
REMARK    4  A    between atoms: C_12  and  C_14
REMARK    5  A    between atoms: C_15  and  C_16
REMARK                            x       y       z     vdW  Elec       q    Type
REMARK                         _______ _______ _______ _____ _____    ______ ____
ROOT
ATOM      3  N   UNL     1      -4.108 -11.823  17.750  0.00  0.00    -0.298 NA
ATOM      5  C   UNL     1      -6.230 -10.621  16.848  0.00  0.00    -0.004 C 
ATOM      6  C   UNL     1      -6.227 -12.113  16.443  0.00  0.00    +0.006 C 
ATOM      7  C   UNL     1      -3.719 -10.600  16.998  0.00  0.00    +0.074 C 
ATOM      8  C   UNL     1      -4.947  -9.948  16.325  0.00  0.00    +0.024 C 
ATOM      9  C   UNL     1      -4.883 -12.738  16.878  0.00  0.00    +0.088 C 
ATOM     10  C   UNL     1      -6.176 -10.575  18.387  0.00  0.00    +0.019 C 
ATOM     11  C   UNL     1      -4.980 -11.410  18.877  0.00  0.00    +0.085 C 
ENDROOT
BRANCH   6  12
ATOM     12  C   UNL     1      -6.496 -12.334  14.956  0.00  0.00    +0.002 C 
ATOM     14  C   UNL     1      -5.386 -13.137  14.306  0.00  0.00    +0.004 C 
ENDBRANCH   6  12
BRANCH   7  13
ATOM     13  C   UNL     1      -2.595 -10.864  15.995  0.00  0.00    +0.123 C 
BRANCH  13   4
ATOM      1  O   UNL     1      -1.770 -11.929  13.518  0.00  0.00    -0.267 OA
ATOM      4  N   UNL     1      -2.926 -10.338  14.707  0.00  0.00    -0.307 N 
ATOM     15  C   UNL     1      -2.479 -10.922  13.514  0.00  0.00    +0.279 C 
ATOM     20  H   UNL     1      -3.515  -9.511  14.659  0.00  0.00    +0.149 HD
BRANCH  15  16
ATOM      2  O   UNL     1      -4.240 -10.021  12.184  0.00  0.00    -0.458 OA
ATOM     16  C   UNL     1      -2.931 -10.285  12.269  0.00  0.00    +0.189 A 
ATOM     17  C   UNL     1      -2.230  -9.917  11.182  0.00  0.00    +0.054 A 
ATOM     18  C   UNL     1      -3.194  -9.359  10.308  0.00  0.00    +0.042 A 
ATOM     19  C   UNL     1      -4.400  -9.446  10.963  0.00  0.00    +0.196 A 
ENDBRANCH  15  16
ENDBRANCH  13   4
ENDBRANCH   7  13
TORSDOF 4
ENDMDL
MODEL 8
REMARK VINA RESULT:      -5.2     16.146     18.464
REMARK  Name = 11943278
REMARK  5 active torsions:
REMARK  status: ('A' for Active; 'I' for Inactive)
REMARK    1  A    between atoms: N_4  and  C_13
REMARK    2  A    between atoms: C_6  and  C_12
REMARK    3  A    between atoms: C_7  and  C_13
REMARK    4  A    between atoms: C_12  and  C_14
REMARK    5  A    between atoms: C_15  and  C_16
REMARK                            x       y       z     vdW  Elec       q    Type
REMARK                         _______ _______ _______ _____ _____    ______ ____
ROOT
ATOM      3  N   UNL     1      21.048   7.179  20.417  0.00  0.00    -0.298 NA
ATOM      5  C   UNL     1      21.366   6.593  22.931  0.00  0.00    -0.004 C 
ATOM      6  C   UNL     1      22.215   5.662  22.035  0.00  0.00    +0.006 C 
ATOM      7  C   UNL     1      19.724   6.981  21.065  0.00  0.00    +0.074 C 
ATOM      8  C   UNL     1      19.886   6.486  22.519  0.00  0.00    +0.024 C 
ATOM      9  C   UNL     1      21.878   5.957  20.557  0.00  0.00    +0.088 C 
ATOM     10  C   UNL     1      21.820   8.035  22.633  0.00  0.00    +0.019 C 
ATOM     11  C   UNL     1      21.739   8.289  21.118  0.00  0.00    +0.085 C 
ENDROOT
BRANCH   6  12
ATOM     12  C   UNL     1      22.039   4.181  22.368  0.00  0.00    +0.002 C 
ATOM     14  C   UNL     1      21.585   3.392  21.155  0.00  0.00    +0.004 C 
ENDBRANCH   6  12
BRANCH   7  13
ATOM     13  C   UNL     1      18.808   6.064  20.252  0.00  0.00    +0.123 C 
BRANCH  13   4
ATOM      1  O   UNL     1      16.827   5.494  18.327  0.00  0.00    -0.267 OA
ATOM      4  N   UNL     1      17.459   6.541  20.273  0.00  0.00    -0.307 N 
ATOM     15  C   UNL     1      16.526   6.216  19.280  0.00  0.00    +0.279 C 
ATOM     20  H   UNL     1      17.169   7.134  21.046  0.00  0.00    +0.149 HD
BRANCH  15  16
ATOM      2  O   UNL     1      14.619   7.328  18.383  0.00  0.00    -0.458 OA
ATOM     16  C   UNL     1      15.171   6.756  19.458  0.00  0.00    +0.189 A 
ATOM     17  C   UNL     1      14.382   6.769  20.547  0.00  0.00    +0.054 A 
ATOM     18  C   UNL     1      13.198   7.419  20.121  0.00  0.00    +0.042 A 
ATOM     19  C   UNL     1      13.392   7.739  18.799  0.00  0.00    +0.196 A 
ENDBRANCH  15  16
ENDBRANCH  13   4
ENDBRANCH   7  13
TORSDOF 4
ENDMDL
MODEL 9
REMARK VINA RESULT:      -5.2     24.393     27.035
REMARK  Name = 11943278
REMARK  5 active torsions:
REMARK  status: ('A' for Active; 'I' for Inactive)
REMARK    1  A    between atoms: N_4  and  C_13
REMARK    2  A    between atoms: C_6  and  C_12
REMARK    3  A    between atoms: C_7  and  C_13
REMARK    4  A    between atoms: C_12  and  C_14
REMARK    5  A    between atoms: C_15  and  C_16
REMARK                            x       y       z     vdW  Elec       q    Type
REMARK                         _______ _______ _______ _____ _____    ______ ____
ROOT
ATOM      3  N   UNL     1     -13.721   8.119  19.162  0.00  0.00    -0.298 NA
ATOM      5  C   UNL     1     -13.583   7.593  21.705  0.00  0.00    -0.004 C 
ATOM      6  C   UNL     1     -13.793   9.105  21.466  0.00  0.00    +0.006 C 
ATOM      7  C   UNL     1     -12.493   7.331  19.452  0.00  0.00    +0.074 C 
ATOM      8  C   UNL     1     -12.308   7.133  20.973  0.00  0.00    +0.024 C 
ATOM      9  C   UNL     1     -13.723   9.378  19.947  0.00  0.00    +0.088 C 
ATOM     10  C   UNL     1     -14.773   6.866  21.050  0.00  0.00    +0.019 C 
ATOM     11  C   UNL     1     -14.893   7.312  19.582  0.00  0.00    +0.085 C 
ENDROOT
BRANCH   6  12
ATOM     12  C   UNL     1     -12.810   9.980  22.241  0.00  0.00    +0.002 C 
ATOM     14  C   UNL     1     -12.040  10.901  21.315  0.00  0.00    +0.004 C 
ENDBRANCH   6  12
BRANCH   7  13
ATOM     13  C   UNL     1     -11.246   7.933  18.802  0.00  0.00    +0.123 C 
BRANCH  13   4
ATOM      1  O   UNL     1      -9.868   9.579  16.973  0.00  0.00    -0.267 OA
ATOM      4  N   UNL     1     -11.321   7.844  17.376  0.00  0.00    -0.307 N 
ATOM     15  C   UNL     1     -10.606   8.699  16.526  0.00  0.00    +0.279 C 
ATOM     20  H   UNL     1     -11.914   7.127  16.967  0.00  0.00    +0.149 HD
BRANCH  15  16
ATOM      2  O   UNL     1     -10.124   7.395  14.591  0.00  0.00    -0.458 OA
ATOM     16  C   UNL     1     -10.762   8.462  15.085  0.00  0.00    +0.189 A 
ATOM     17  C   UNL     1     -11.453   9.156  14.163  0.00  0.00    +0.054 A 
ATOM     18  C   UNL     1     -11.234   8.458  12.951  0.00  0.00    +0.042 A 
ATOM     19  C   UNL     1     -10.419   7.396  13.264  0.00  0.00    +0.196 A 
ENDBRANCH  15  16
ENDBRANCH  13   4
ENDBRANCH   7  13
TORSDOF 4
ENDMDL
MODEL 10
REMARK VINA RESULT:      -5.2      2.331      7.035
REMARK  Name = 11943278
REMARK  5 active torsions:
REMARK  status: ('A' for Active; 'I' for Inactive)
REMARK    1  A    between atoms: N_4  and  C_13
REMARK    2  A    between atoms: C_6  and  C_12
REMARK    3  A    between atoms: C_7  and  C_13
REMARK    4  A    between atoms: C_12  and  C_14
REMARK    5  A    between atoms: C_15  and  C_16
REMARK                            x       y       z     vdW  Elec       q    Type
REMARK                         _______ _______ _______ _____ _____    ______ ____
ROOT
ATOM      3  N   UNL     1      13.027   5.623   1.644  0.00  0.00    -0.298 NA
ATOM      5  C   UNL     1      13.485   3.319   0.529  0.00  0.00    -0.004 C 
ATOM      6  C   UNL     1      12.969   4.341  -0.509  0.00  0.00    +0.006 C 
ATOM      7  C   UNL     1      12.328   4.546   2.395  0.00  0.00    +0.074 C 
ATOM      8  C   UNL     1      12.460   3.189   1.670  0.00  0.00    +0.024 C 
ATOM      9  C   UNL     1      12.578   5.640   0.231  0.00  0.00    +0.088 C 
ATOM     10  C   UNL     1      14.772   3.910   1.136  0.00  0.00    +0.019 C 
ATOM     11  C   UNL     1      14.480   5.325   1.663  0.00  0.00    +0.085 C 
ENDROOT
BRANCH   6  12
ATOM     12  C   UNL     1      11.816   3.808  -1.358  0.00  0.00    +0.002 C 
ATOM     14  C   UNL     1      12.159   2.467  -1.977  0.00  0.00    +0.004 C 
ENDBRANCH   6  12
BRANCH   7  13
ATOM     13  C   UNL     1      10.868   4.894   2.690  0.00  0.00    +0.123 C 
BRANCH  13   4
ATOM      1  O   UNL     1      11.110   6.911   4.645  0.00  0.00    -0.267 OA
ATOM      4  N   UNL     1      10.579   4.747   4.083  0.00  0.00    -0.307 N 
ATOM     15  C   UNL     1      10.723   5.797   5.000  0.00  0.00    +0.279 C 
ATOM     20  H   UNL     1      10.251   3.845   4.416  0.00  0.00    +0.149 HD
BRANCH  15  16
ATOM      2  O   UNL     1      10.665   6.437   7.295  0.00  0.00    -0.458 OA
ATOM     16  C   UNL     1      10.357   5.500   6.392  0.00  0.00    +0.189 A 
ATOM     17  C   UNL     1       9.750   4.419   6.915  0.00  0.00    +0.054 A 
ATOM     18  C   UNL     1       9.662   4.695   8.301  0.00  0.00    +0.042 A 
ATOM     19  C   UNL     1      10.232   5.933   8.481  0.00  0.00    +0.196 A 
ENDBRANCH  15  16
ENDBRANCH  13   4
ENDBRANCH   7  13
TORSDOF 4
ENDMDL
