MODEL 1
REMARK VINA RESULT:      -6.6      0.000      0.000
REMARK  Name = 26745329
REMARK  4 active torsions:
REMARK  status: ('A' for Active; 'I' for Inactive)
REMARK    1  A    between atoms: N_3  and  C_19
REMARK    2  A    between atoms: N_4  and  C_7
REMARK    3  A    between atoms: C_10  and  C_15
REMARK    4  A    between atoms: C_19  and  C_20
REMARK                            x       y       z     vdW  Elec       q    Type
REMARK                         _______ _______ _______ _____ _____    ______ ____
ROOT
ATOM      3  N   UNL     1      13.687   8.276  19.044  0.00  0.00    -0.281 NA
ATOM      5  N   UNL     1      10.478   8.453  17.151  0.00  0.00    -0.347 N 
ATOM      6  N   UNL     1      11.756   9.203  15.477  0.00  0.00    -0.240 NA
ATOM     10  C   UNL     1      14.368   9.334  18.255  0.00  0.00    +0.150 C 
ATOM     14  C   UNL     1      13.946   9.341  16.757  0.00  0.00    +0.085 C 
ATOM     16  C   UNL     1      12.208   8.351  19.039  0.00  0.00    +0.140 C 
ATOM     17  C   UNL     1      12.496   9.063  16.616  0.00  0.00    +0.065 A 
ATOM     18  C   UNL     1      11.733   8.600  17.659  0.00  0.00    +0.053 A 
ATOM     21  C   UNL     1      10.543   8.828  15.832  0.00  0.00    +0.197 A 
ATOM     28  H   UNL     1       9.655   8.135  17.645  0.00  0.00    +0.167 HD
ENDROOT
BRANCH  10  15
ATOM      2  O   UNL     1      13.168  11.382  18.540  0.00  0.00    -0.274 OA
ATOM      4  N   UNL     1      15.088  11.017  19.804  0.00  0.00    -0.311 N 
ATOM     15  C   UNL     1      14.121  10.682  18.871  0.00  0.00    +0.231 C 
ATOM     27  H   UNL     1      15.839  10.362  19.997  0.00  0.00    +0.149 HD
BRANCH   4   7
ATOM      7  C   UNL     1      15.093  12.271  20.524  0.00  0.00    +0.073 C 
ATOM      8  C   UNL     1      14.338  12.147  21.851  0.00  0.00    +0.022 C 
ATOM      9  C   UNL     1      16.524  12.774  20.744  0.00  0.00    +0.022 C 
ATOM     11  C   UNL     1      15.100  11.317  22.883  0.00  0.00    +0.002 C 
ATOM     12  C   UNL     1      17.283  11.943  21.779  0.00  0.00    +0.002 C 
ATOM     13  C   UNL     1      16.517  11.843  23.094  0.00  0.00    +0.000 C 
ENDBRANCH   4   7
ENDBRANCH  10  15
BRANCH   3  19
ATOM     19  C   UNL     1      14.208   8.141  20.401  0.00  0.00    +0.120 C 
BRANCH  19  20
ATOM      1 CL   UNL     1      19.803   5.929  20.440  0.00  0.00    -0.084 Cl
ATOM     20  C   UNL     1      15.608   7.587  20.412  0.00  0.00    -0.033 A 
ATOM     22  C   UNL     1      15.944   6.525  19.572  0.00  0.00    +0.006 A 
ATOM     23  C   UNL     1      16.569   8.137  21.260  0.00  0.00    +0.006 A 
ATOM     24  C   UNL     1      17.241   6.012  19.583  0.00  0.00    +0.020 A 
ATOM     25  C   UNL     1      17.866   7.624  21.271  0.00  0.00    +0.020 A 
ATOM     26  C   UNL     1      18.202   6.562  20.431  0.00  0.00    +0.041 A 
ENDBRANCH  19  20
ENDBRANCH   3  19
TORSDOF 4
ENDMDL
MODEL 2
REMARK VINA RESULT:      -6.4     13.561     17.094
REMARK  Name = 26745329
REMARK  4 active torsions:
REMARK  status: ('A' for Active; 'I' for Inactive)
REMARK    1  A    between atoms: N_3  and  C_19
REMARK    2  A    between atoms: N_4  and  C_7
REMARK    3  A    between atoms: C_10  and  C_15
REMARK    4  A    between atoms: C_19  and  C_20
REMARK                            x       y       z     vdW  Elec       q    Type
REMARK                         _______ _______ _______ _____ _____    ______ ____
ROOT
ATOM      3  N   UNL     1      11.065   6.928   4.484  0.00  0.00    -0.281 NA
ATOM      5  N   UNL     1      14.482   7.196   5.954  0.00  0.00    -0.347 N 
ATOM      6  N   UNL     1      15.066   7.920   3.920  0.00  0.00    -0.240 NA
ATOM     10  C   UNL     1      11.532   6.748   3.087  0.00  0.00    +0.150 C 
ATOM     14  C   UNL     1      12.831   7.546   2.772  0.00  0.00    +0.085 C 
ATOM     16  C   UNL     1      12.044   6.536   5.524  0.00  0.00    +0.140 C 
ATOM     17  C   UNL     1      13.762   7.511   3.925  0.00  0.00    +0.065 A 
ATOM     18  C   UNL     1      13.379   7.066   5.166  0.00  0.00    +0.053 A 
ATOM     21  C   UNL     1      15.473   7.716   5.158  0.00  0.00    +0.197 A 
ATOM     28  H   UNL     1      14.563   6.956   6.932  0.00  0.00    +0.167 HD
ENDROOT
BRANCH  10  15
ATOM      2  O   UNL     1      10.944   4.432   3.179  0.00  0.00    -0.274 OA
ATOM      4  N   UNL     1      12.895   5.055   2.073  0.00  0.00    -0.311 N 
ATOM     15  C   UNL     1      11.734   5.288   2.791  0.00  0.00    +0.231 C 
ATOM     27  H   UNL     1      13.480   5.841   1.807  0.00  0.00    +0.149 HD
BRANCH   4   7
ATOM      7  C   UNL     1      13.331   3.733   1.680  0.00  0.00    +0.073 C 
ATOM      8  C   UNL     1      12.748   3.343   0.318  0.00  0.00    +0.022 C 
ATOM      9  C   UNL     1      14.861   3.636   1.678  0.00  0.00    +0.022 C 
ATOM     11  C   UNL     1      13.384   4.118  -0.835  0.00  0.00    +0.002 C 
ATOM     12  C   UNL     1      15.494   4.411   0.522  0.00  0.00    +0.002 C 
ATOM     13  C   UNL     1      14.906   3.997  -0.824  0.00  0.00    +0.000 C 
ENDBRANCH   4   7
ENDBRANCH  10  15
BRANCH   3  19
ATOM     19  C   UNL     1       9.754   6.336   4.737  0.00  0.00    +0.120 C 
BRANCH  19  20
ATOM      1 CL   UNL     1       9.113   4.673  10.483  0.00  0.00    -0.084 Cl
ATOM     20  C   UNL     1       9.595   5.920   6.175  0.00  0.00    -0.033 A 
ATOM     22  C   UNL     1       9.164   6.846   7.125  0.00  0.00    +0.006 A 
ATOM     23  C   UNL     1       9.876   4.608   6.557  0.00  0.00    +0.006 A 
ATOM     24  C   UNL     1       9.017   6.460   8.458  0.00  0.00    +0.020 A 
ATOM     25  C   UNL     1       9.729   4.222   7.890  0.00  0.00    +0.020 A 
ATOM     26  C   UNL     1       9.299   5.148   8.839  0.00  0.00    +0.041 A 
ENDBRANCH  19  20
ENDBRANCH   3  19
TORSDOF 4
ENDMDL
MODEL 3
REMARK VINA RESULT:      -6.3      2.220      2.992
REMARK  Name = 26745329
REMARK  4 active torsions:
REMARK  status: ('A' for Active; 'I' for Inactive)
REMARK    1  A    between atoms: N_3  and  C_19
REMARK    2  A    between atoms: N_4  and  C_7
REMARK    3  A    between atoms: C_10  and  C_15
REMARK    4  A    between atoms: C_19  and  C_20
REMARK                            x       y       z     vdW  Elec       q    Type
REMARK                         _______ _______ _______ _____ _____    ______ ____
ROOT
ATOM      3  N   UNL     1      14.850   7.872  20.298  0.00  0.00    -0.281 NA
ATOM      5  N   UNL     1      12.047   7.150  17.946  0.00  0.00    -0.347 N 
ATOM      6  N   UNL     1      12.175   9.330  17.464  0.00  0.00    -0.240 NA
ATOM     10  C   UNL     1      14.503   9.303  20.487  0.00  0.00    +0.150 C 
ATOM     14  C   UNL     1      13.915   9.961  19.205  0.00  0.00    +0.085 C 
ATOM     16  C   UNL     1      13.722   7.008  19.879  0.00  0.00    +0.140 C 
ATOM     17  C   UNL     1      13.016   9.018  18.495  0.00  0.00    +0.065 A 
ATOM     18  C   UNL     1      12.958   7.683  18.806  0.00  0.00    +0.053 A 
ATOM     21  C   UNL     1      11.604   8.182  17.156  0.00  0.00    +0.197 A 
ATOM     28  H   UNL     1      11.749   6.185  17.896  0.00  0.00    +0.167 HD
ENDROOT
BRANCH  10  15
ATOM      2  O   UNL     1      12.921   8.506  22.093  0.00  0.00    -0.274 OA
ATOM      4  N   UNL     1      13.458  10.771  22.070  0.00  0.00    -0.311 N 
ATOM     15  C   UNL     1      13.546   9.458  21.636  0.00  0.00    +0.231 C 
ATOM     27  H   UNL     1      14.019  11.483  21.614  0.00  0.00    +0.149 HD
BRANCH   4   7
ATOM      7  C   UNL     1      12.591  11.191  23.148  0.00  0.00    +0.073 C 
ATOM      8  C   UNL     1      13.169  12.408  23.878  0.00  0.00    +0.022 C 
ATOM      9  C   UNL     1      11.173  11.472  22.637  0.00  0.00    +0.022 C 
ATOM     11  C   UNL     1      13.088  13.684  23.043  0.00  0.00    +0.002 C 
ATOM     12  C   UNL     1      11.096  12.751  21.803  0.00  0.00    +0.002 C 
ATOM     13  C   UNL     1      11.667  13.949  22.555  0.00  0.00    +0.000 C 
ENDBRANCH   4   7
ENDBRANCH  10  15
BRANCH   3  19
ATOM     19  C   UNL     1      15.569   7.296  21.431  0.00  0.00    +0.120 C 
BRANCH  19  20
ATOM      1 CL   UNL     1      21.495   7.044  20.428  0.00  0.00    -0.084 Cl
ATOM     20  C   UNL     1      17.052   7.233  21.181  0.00  0.00    -0.033 A 
ATOM     22  C   UNL     1      17.598   6.144  20.502  0.00  0.00    +0.006 A 
ATOM     23  C   UNL     1      17.879   8.264  21.627  0.00  0.00    +0.006 A 
ATOM     24  C   UNL     1      18.973   6.085  20.271  0.00  0.00    +0.020 A 
ATOM     25  C   UNL     1      19.254   8.205  21.396  0.00  0.00    +0.020 A 
ATOM     26  C   UNL     1      19.800   7.116  20.717  0.00  0.00    +0.041 A 
ENDBRANCH  19  20
ENDBRANCH   3  19
TORSDOF 4
ENDMDL
MODEL 4
REMARK VINA RESULT:      -6.2     28.051     29.531
REMARK  Name = 26745329
REMARK  4 active torsions:
REMARK  status: ('A' for Active; 'I' for Inactive)
REMARK    1  A    between atoms: N_3  and  C_19
REMARK    2  A    between atoms: N_4  and  C_7
REMARK    3  A    between atoms: C_10  and  C_15
REMARK    4  A    between atoms: C_19  and  C_20
REMARK                            x       y       z     vdW  Elec       q    Type
REMARK                         _______ _______ _______ _____ _____    ______ ____
ROOT
ATOM      3  N   UNL     1      -2.831 -12.613  12.845  0.00  0.00    -0.281 NA
ATOM      5  N   UNL     1      -1.877 -15.644  14.798  0.00  0.00    -0.347 N 
ATOM      6  N   UNL     1      -4.063 -15.780  15.245  0.00  0.00    -0.240 NA
ATOM     10  C   UNL     1      -4.052 -12.320  13.638  0.00  0.00    +0.150 C 
ATOM     14  C   UNL     1      -4.772 -13.604  14.142  0.00  0.00    +0.085 C 
ATOM     16  C   UNL     1      -1.801 -13.403  13.558  0.00  0.00    +0.140 C 
ATOM     17  C   UNL     1      -3.787 -14.630  14.562  0.00  0.00    +0.065 A 
ATOM     18  C   UNL     1      -2.449 -14.526  14.272  0.00  0.00    +0.053 A 
ATOM     21  C   UNL     1      -2.890 -16.369  15.374  0.00  0.00    +0.197 A 
ATOM     28  H   UNL     1      -0.897 -15.894  14.776  0.00  0.00    +0.167 HD
ENDROOT
BRANCH  10  15
ATOM      2  O   UNL     1      -2.672 -10.780  14.837  0.00  0.00    -0.274 OA
ATOM      4  N   UNL     1      -4.697 -11.444  15.775  0.00  0.00    -0.311 N 
ATOM     15  C   UNL     1      -3.717 -11.424  14.797  0.00  0.00    +0.231 C 
ATOM     27  H   UNL     1      -5.522 -12.019  15.639  0.00  0.00    +0.149 HD
BRANCH   4   7
ATOM      7  C   UNL     1      -4.605 -10.685  17.002  0.00  0.00    +0.073 C 
ATOM      8  C   UNL     1      -5.983 -10.179  17.442  0.00  0.00    +0.022 C 
ATOM      9  C   UNL     1      -3.936 -11.508  18.110  0.00  0.00    +0.022 C 
ATOM     11  C   UNL     1      -6.880 -11.302  17.963  0.00  0.00    +0.002 C 
ATOM     12  C   UNL     1      -4.837 -12.628  18.630  0.00  0.00    +0.002 C 
ATOM     13  C   UNL     1      -6.198 -12.099  19.071  0.00  0.00    +0.000 C 
ENDBRANCH   4   7
ENDBRANCH  10  15
BRANCH   3  19
ATOM     19  C   UNL     1      -2.253 -11.430  12.215  0.00  0.00    +0.120 C 
BRANCH  19  20
ATOM      1 CL   UNL     1      -5.367  -9.723   7.359  0.00  0.00    -0.084 Cl
ATOM     20  C   UNL     1      -3.033 -11.003  11.000  0.00  0.00    -0.033 A 
ATOM     22  C   UNL     1      -3.101  -9.654  10.655  0.00  0.00    +0.006 A 
ATOM     23  C   UNL     1      -3.686 -11.957  10.220  0.00  0.00    +0.006 A 
ATOM     24  C   UNL     1      -3.825  -9.258   9.529  0.00  0.00    +0.020 A 
ATOM     25  C   UNL     1      -4.410 -11.562   9.095  0.00  0.00    +0.020 A 
ATOM     26  C   UNL     1      -4.478 -10.212   8.749  0.00  0.00    +0.041 A 
ENDBRANCH  19  20
ENDBRANCH   3  19
TORSDOF 4
ENDMDL
MODEL 5
REMARK VINA RESULT:      -6.1     24.435     26.741
REMARK  Name = 26745329
REMARK  4 active torsions:
REMARK  status: ('A' for Active; 'I' for Inactive)
REMARK    1  A    between atoms: N_3  and  C_19
REMARK    2  A    between atoms: N_4  and  C_7
REMARK    3  A    between atoms: C_10  and  C_15
REMARK    4  A    between atoms: C_19  and  C_20
REMARK                            x       y       z     vdW  Elec       q    Type
REMARK                         _______ _______ _______ _____ _____    ______ ____
ROOT
ATOM      3  N   UNL     1     -11.638   8.862  19.194  0.00  0.00    -0.281 NA
ATOM      5  N   UNL     1     -12.879   8.288  15.724  0.00  0.00    -0.347 N 
ATOM      6  N   UNL     1     -10.732   8.529  15.147  0.00  0.00    -0.240 NA
ATOM     10  C   UNL     1     -10.446   9.647  18.784  0.00  0.00    +0.150 C 
ATOM     14  C   UNL     1      -9.834   9.163  17.437  0.00  0.00    +0.085 C 
ATOM     16  C   UNL     1     -12.751   8.863  18.218  0.00  0.00    +0.140 C 
ATOM     17  C   UNL     1     -10.901   8.790  16.477  0.00  0.00    +0.065 A 
ATOM     18  C   UNL     1     -12.212   8.643  16.857  0.00  0.00    +0.053 A 
ATOM     21  C   UNL     1     -11.944   8.231  14.721  0.00  0.00    +0.197 A 
ATOM     28  H   UNL     1     -13.869   8.104  15.634  0.00  0.00    +0.167 HD
ENDROOT
BRANCH  10  15
ATOM      2  O   UNL     1     -11.683  11.603  19.385  0.00  0.00    -0.274 OA
ATOM      4  N   UNL     1     -10.007  11.780  17.780  0.00  0.00    -0.311 N 
ATOM     15  C   UNL     1     -10.789  11.108  18.704  0.00  0.00    +0.231 C 
ATOM     27  H   UNL     1      -9.297  11.268  17.266  0.00  0.00    +0.149 HD
BRANCH   4   7
ATOM      7  C   UNL     1     -10.152  13.190  17.497  0.00  0.00    +0.073 C 
ATOM      8  C   UNL     1      -8.786  13.857  17.304  0.00  0.00    +0.022 C 
ATOM      9  C   UNL     1     -11.057  13.417  16.280  0.00  0.00    +0.022 C 
ATOM     11  C   UNL     1      -8.117  13.454  15.991  0.00  0.00    +0.002 C 
ATOM     12  C   UNL     1     -10.384  13.014  14.968  0.00  0.00    +0.002 C 
ATOM     13  C   UNL     1      -9.032  13.699  14.794  0.00  0.00    +0.000 C 
ENDBRANCH   4   7
ENDBRANCH  10  15
BRANCH   3  19
ATOM     19  C   UNL     1     -12.108   9.184  20.539  0.00  0.00    +0.120 C 
BRANCH  19  20
ATOM      1 CL   UNL     1     -14.914   4.526  23.111  0.00  0.00    -0.084 Cl
ATOM     20  C   UNL     1     -12.811   8.018  21.182  0.00  0.00    -0.033 A 
ATOM     22  C   UNL     1     -12.251   6.743  21.113  0.00  0.00    +0.006 A 
ATOM     23  C   UNL     1     -14.021   8.214  21.847  0.00  0.00    +0.006 A 
ATOM     24  C   UNL     1     -12.903   5.662  21.709  0.00  0.00    +0.020 A 
ATOM     25  C   UNL     1     -14.673   7.134  22.443  0.00  0.00    +0.020 A 
ATOM     26  C   UNL     1     -14.113   5.859  22.374  0.00  0.00    +0.041 A 
ENDBRANCH  19  20
ENDBRANCH   3  19
TORSDOF 4
ENDMDL
MODEL 6
REMARK VINA RESULT:      -5.9     27.683     29.844
REMARK  Name = 26745329
REMARK  4 active torsions:
REMARK  status: ('A' for Active; 'I' for Inactive)
REMARK    1  A    between atoms: N_3  and  C_19
REMARK    2  A    between atoms: N_4  and  C_7
REMARK    3  A    between atoms: C_10  and  C_15
REMARK    4  A    between atoms: C_19  and  C_20
REMARK                            x       y       z     vdW  Elec       q    Type
REMARK                         _______ _______ _______ _____ _____    ______ ____
ROOT
ATOM      3  N   UNL     1      -6.867 -10.656  15.991  0.00  0.00    -0.281 NA
ATOM      5  N   UNL     1      -5.471 -12.910  18.615  0.00  0.00    -0.347 N 
ATOM      6  N   UNL     1      -3.670 -11.591  18.485  0.00  0.00    -0.240 NA
ATOM     10  C   UNL     1      -5.547 -10.250  15.446  0.00  0.00    +0.150 C 
ATOM     14  C   UNL     1      -4.441 -10.154  16.537  0.00  0.00    +0.085 C 
ATOM     16  C   UNL     1      -6.875 -11.960  16.694  0.00  0.00    +0.140 C 
ATOM     17  C   UNL     1      -4.582 -11.249  17.527  0.00  0.00    +0.065 A 
ATOM     18  C   UNL     1      -5.700 -12.043  17.590  0.00  0.00    +0.053 A 
ATOM     21  C   UNL     1      -4.235 -12.597  19.124  0.00  0.00    +0.197 A 
ATOM     28  H   UNL     1      -6.086 -13.644  18.940  0.00  0.00    +0.167 HD
ENDROOT
BRANCH  10  15
ATOM      2  O   UNL     1      -4.995 -12.400  14.556  0.00  0.00    -0.274 OA
ATOM      4  N   UNL     1      -4.881 -10.540  13.160  0.00  0.00    -0.311 N 
ATOM     15  C   UNL     1      -5.121 -11.195  14.357  0.00  0.00    +0.231 C 
ATOM     27  H   UNL     1      -5.013  -9.535  13.109  0.00  0.00    +0.149 HD
BRANCH   4   7
ATOM      7  C   UNL     1      -4.439 -11.219  11.963  0.00  0.00    +0.073 C 
ATOM      8  C   UNL     1      -4.886 -10.466  10.705  0.00  0.00    +0.022 C 
ATOM      9  C   UNL     1      -2.919 -11.424  11.975  0.00  0.00    +0.022 C 
ATOM     11  C   UNL     1      -4.116  -9.163  10.498  0.00  0.00    +0.002 C 
ATOM     12  C   UNL     1      -2.152 -10.118  11.765  0.00  0.00    +0.002 C 
ATOM     13  C   UNL     1      -2.607  -9.393  10.503  0.00  0.00    +0.000 C 
ENDBRANCH   4   7
ENDBRANCH  10  15
BRANCH   3  19
ATOM     19  C   UNL     1      -7.948 -10.571  15.013  0.00  0.00    +0.120 C 
BRANCH  19  20
ATOM      1 CL   UNL     1     -11.815  -6.154  16.326  0.00  0.00    -0.084 Cl
ATOM     20  C   UNL     1      -8.916  -9.466  15.342  0.00  0.00    -0.033 A 
ATOM     22  C   UNL     1      -8.828  -8.804  16.566  0.00  0.00    +0.006 A 
ATOM     23  C   UNL     1      -9.900  -9.105  14.421  0.00  0.00    +0.006 A 
ATOM     24  C   UNL     1      -9.726  -7.780  16.870  0.00  0.00    +0.020 A 
ATOM     25  C   UNL     1     -10.798  -8.082  14.726  0.00  0.00    +0.020 A 
ATOM     26  C   UNL     1     -10.710  -7.419  15.950  0.00  0.00    +0.041 A 
ENDBRANCH  19  20
ENDBRANCH   3  19
TORSDOF 4
ENDMDL
MODEL 7
REMARK VINA RESULT:      -5.8     12.137     14.647
REMARK  Name = 26745329
REMARK  4 active torsions:
REMARK  status: ('A' for Active; 'I' for Inactive)
REMARK    1  A    between atoms: N_3  and  C_19
REMARK    2  A    between atoms: N_4  and  C_7
REMARK    3  A    between atoms: C_10  and  C_15
REMARK    4  A    between atoms: C_19  and  C_20
REMARK                            x       y       z     vdW  Elec       q    Type
REMARK                         _______ _______ _______ _____ _____    ______ ____
ROOT
ATOM      3  N   UNL     1      10.243   6.940   5.630  0.00  0.00    -0.281 NA
ATOM      5  N   UNL     1      10.656   4.619   8.520  0.00  0.00    -0.347 N 
ATOM      6  N   UNL     1       8.793   5.589   9.288  0.00  0.00    -0.240 NA
ATOM     10  C   UNL     1       9.491   7.970   6.390  0.00  0.00    +0.150 C 
ATOM     14  C   UNL     1       8.565   7.363   7.484  0.00  0.00    +0.085 C 
ATOM     16  C   UNL     1      11.109   6.066   6.455  0.00  0.00    +0.140 C 
ATOM     17  C   UNL     1       9.224   6.214   8.152  0.00  0.00    +0.065 A 
ATOM     18  C   UNL     1      10.365   5.633   7.659  0.00  0.00    +0.053 A 
ATOM     21  C   UNL     1       9.679   4.632   9.484  0.00  0.00    +0.197 A 
ATOM     28  H   UNL     1      11.438   3.980   8.466  0.00  0.00    +0.167 HD
ENDROOT
BRANCH  10  15
ATOM      2  O   UNL     1      11.627   8.698   7.179  0.00  0.00    -0.274 OA
ATOM      4  N   UNL     1       9.812  10.146   7.346  0.00  0.00    -0.311 N 
ATOM     15  C   UNL     1      10.441   8.960   7.003  0.00  0.00    +0.231 C 
ATOM     27  H   UNL     1       8.820  10.253   7.159  0.00  0.00    +0.149 HD
BRANCH   4   7
ATOM      7  C   UNL     1      10.499  11.253   7.973  0.00  0.00    +0.073 C 
ATOM      8  C   UNL     1       9.885  12.592   7.550  0.00  0.00    +0.022 C 
ATOM      9  C   UNL     1      10.506  11.103   9.499  0.00  0.00    +0.022 C 
ATOM     11  C   UNL     1       8.509  12.828   8.170  0.00  0.00    +0.002 C 
ATOM     12  C   UNL     1       9.129  11.342  10.116  0.00  0.00    +0.002 C 
ATOM     13  C   UNL     1       8.544  12.685   9.690  0.00  0.00    +0.000 C 
ENDBRANCH   4   7
ENDBRANCH  10  15
BRANCH   3  19
ATOM     19  C   UNL     1      10.970   7.482   4.485  0.00  0.00    +0.120 C 
BRANCH  19  20
ATOM      1 CL   UNL     1      12.992   3.134   0.852  0.00  0.00    -0.084 Cl
ATOM     20  C   UNL     1      11.476   6.394   3.575  0.00  0.00    -0.033 A 
ATOM     22  C   UNL     1      12.724   6.518   2.967  0.00  0.00    +0.006 A 
ATOM     23  C   UNL     1      10.696   5.261   3.342  0.00  0.00    +0.006 A 
ATOM     24  C   UNL     1      13.192   5.510   2.123  0.00  0.00    +0.020 A 
ATOM     25  C   UNL     1      11.163   4.253   2.499  0.00  0.00    +0.020 A 
ATOM     26  C   UNL     1      12.412   4.378   1.890  0.00  0.00    +0.041 A 
ENDBRANCH  19  20
ENDBRANCH   3  19
TORSDOF 4
ENDMDL
MODEL 8
REMARK VINA RESULT:      -5.8     14.058     18.360
REMARK  Name = 26745329
REMARK  4 active torsions:
REMARK  status: ('A' for Active; 'I' for Inactive)
REMARK    1  A    between atoms: N_3  and  C_19
REMARK    2  A    between atoms: N_4  and  C_7
REMARK    3  A    between atoms: C_10  and  C_15
REMARK    4  A    between atoms: C_19  and  C_20
REMARK                            x       y       z     vdW  Elec       q    Type
REMARK                         _______ _______ _______ _____ _____    ______ ____
ROOT
ATOM      3  N   UNL     1      10.610   7.024   4.131  0.00  0.00    -0.281 NA
ATOM      5  N   UNL     1      12.615   6.483   7.229  0.00  0.00    -0.347 N 
ATOM      6  N   UNL     1      14.337   7.162   5.974  0.00  0.00    -0.240 NA
ATOM     10  C   UNL     1      11.745   6.815   3.197  0.00  0.00    +0.150 C 
ATOM     14  C   UNL     1      13.100   7.330   3.762  0.00  0.00    +0.085 C 
ATOM     16  C   UNL     1      10.768   6.382   5.456  0.00  0.00    +0.140 C 
ATOM     17  C   UNL     1      13.210   7.042   5.212  0.00  0.00    +0.065 A 
ATOM     18  C   UNL     1      12.136   6.630   5.962  0.00  0.00    +0.053 A 
ATOM     21  C   UNL     1      13.946   6.816   7.185  0.00  0.00    +0.197 A 
ATOM     28  H   UNL     1      12.097   6.185   8.044  0.00  0.00    +0.167 HD
ENDROOT
BRANCH  10  15
ATOM      2  O   UNL     1      10.983   4.549   3.129  0.00  0.00    -0.274 OA
ATOM      4  N   UNL     1      13.030   5.079   2.155  0.00  0.00    -0.311 N 
ATOM     15  C   UNL     1      11.854   5.361   2.829  0.00  0.00    +0.231 C 
ATOM     27  H   UNL     1      13.685   5.830   1.963  0.00  0.00    +0.149 HD
BRANCH   4   7
ATOM      7  C   UNL     1      13.387   3.750   1.710  0.00  0.00    +0.073 C 
ATOM      8  C   UNL     1      12.762   3.440   0.346  0.00  0.00    +0.022 C 
ATOM      9  C   UNL     1      14.909   3.570   1.677  0.00  0.00    +0.022 C 
ATOM     11  C   UNL     1      13.421   4.219  -0.791  0.00  0.00    +0.002 C 
ATOM     12  C   UNL     1      15.565   4.350   0.537  0.00  0.00    +0.002 C 
ATOM     13  C   UNL     1      14.933   4.016  -0.811  0.00  0.00    +0.000 C 
ENDBRANCH   4   7
ENDBRANCH  10  15
BRANCH   3  19
ATOM     19  C   UNL     1       9.310   6.715   3.541  0.00  0.00    +0.120 C 
BRANCH  19  20
ATOM      1 CL   UNL     1       6.115  11.689   2.428  0.00  0.00    -0.084 Cl
ATOM     20  C   UNL     1       8.510   7.959   3.262  0.00  0.00    -0.033 A 
ATOM     22  C   UNL     1       7.749   8.540   4.276  0.00  0.00    +0.006 A 
ATOM     23  C   UNL     1       8.531   8.531   1.990  0.00  0.00    +0.006 A 
ATOM     24  C   UNL     1       7.007   9.693   4.017  0.00  0.00    +0.020 A 
ATOM     25  C   UNL     1       7.789   9.684   1.731  0.00  0.00    +0.020 A 
ATOM     26  C   UNL     1       7.028  10.265   2.745  0.00  0.00    +0.041 A 
ENDBRANCH  19  20
ENDBRANCH   3  19
TORSDOF 4
ENDMDL
MODEL 9
REMARK VINA RESULT:      -5.7     14.763     17.498
REMARK  Name = 26745329
REMARK  4 active torsions:
REMARK  status: ('A' for Active; 'I' for Inactive)
REMARK    1  A    between atoms: N_3  and  C_19
REMARK    2  A    between atoms: N_4  and  C_7
REMARK    3  A    between atoms: C_10  and  C_15
REMARK    4  A    between atoms: C_19  and  C_20
REMARK                            x       y       z     vdW  Elec       q    Type
REMARK                         _______ _______ _______ _____ _____    ______ ____
ROOT
ATOM      3  N   UNL     1      11.482   5.414   1.999  0.00  0.00    -0.281 NA
ATOM      5  N   UNL     1      11.334   4.517  -1.618  0.00  0.00    -0.347 N 
ATOM      6  N   UNL     1      12.674   2.826  -1.032  0.00  0.00    -0.240 NA
ATOM     10  C   UNL     1      12.803   4.780   2.242  0.00  0.00    +0.150 C 
ATOM     14  C   UNL     1      13.025   3.495   1.393  0.00  0.00    +0.085 C 
ATOM     16  C   UNL     1      11.229   5.807   0.594  0.00  0.00    +0.140 C 
ATOM     17  C   UNL     1      12.470   3.662   0.028  0.00  0.00    +0.065 A 
ATOM     18  C   UNL     1      11.645   4.708  -0.306  0.00  0.00    +0.053 A 
ATOM     21  C   UNL     1      11.977   3.370  -2.011  0.00  0.00    +0.197 A 
ATOM     28  H   UNL     1      10.748   5.105  -2.196  0.00  0.00    +0.167 HD
ENDROOT
BRANCH  10  15
ATOM      2  O   UNL     1      14.462   5.854   0.897  0.00  0.00    -0.274 OA
ATOM      4  N   UNL     1      14.211   6.513   3.116  0.00  0.00    -0.311 N 
ATOM     15  C   UNL     1      13.908   5.767   1.989  0.00  0.00    +0.231 C 
ATOM     27  H   UNL     1      13.689   6.354   3.971  0.00  0.00    +0.149 HD
BRANCH   4   7
ATOM      7  C   UNL     1      15.252   7.516   3.143  0.00  0.00    +0.073 C 
ATOM      8  C   UNL     1      14.672   8.918   2.929  0.00  0.00    +0.022 C 
ATOM      9  C   UNL     1      16.055   7.441   4.447  0.00  0.00    +0.022 C 
ATOM     11  C   UNL     1      13.878   9.415   4.137  0.00  0.00    +0.002 C 
ATOM     12  C   UNL     1      15.259   7.940   5.653  0.00  0.00    +0.002 C 
ATOM     13  C   UNL     1      14.701   9.341   5.420  0.00  0.00    +0.000 C 
ENDBRANCH   4   7
ENDBRANCH  10  15
BRANCH   3  19
ATOM     19  C   UNL     1      11.189   6.510   2.919  0.00  0.00    +0.120 C 
BRANCH  19  20
ATOM      1 CL   UNL     1       9.751   4.510   8.407  0.00  0.00    -0.084 Cl
ATOM     20  C   UNL     1      10.829   6.008   4.292  0.00  0.00    -0.033 A 
ATOM     22  C   UNL     1      11.316   6.664   5.423  0.00  0.00    +0.006 A 
ATOM     23  C   UNL     1      10.008   4.890   4.434  0.00  0.00    +0.006 A 
ATOM     24  C   UNL     1      10.983   6.199   6.696  0.00  0.00    +0.020 A 
ATOM     25  C   UNL     1       9.676   4.425   5.706  0.00  0.00    +0.020 A 
ATOM     26  C   UNL     1      10.163   5.080   6.836  0.00  0.00    +0.041 A 
ENDBRANCH  19  20
ENDBRANCH   3  19
TORSDOF 4
ENDMDL
MODEL 10
REMARK VINA RESULT:      -5.6     13.110     15.350
REMARK  Name = 26745329
REMARK  4 active torsions:
REMARK  status: ('A' for Active; 'I' for Inactive)
REMARK    1  A    between atoms: N_3  and  C_19
REMARK    2  A    between atoms: N_4  and  C_7
REMARK    3  A    between atoms: C_10  and  C_15
REMARK    4  A    between atoms: C_19  and  C_20
REMARK                            x       y       z     vdW  Elec       q    Type
REMARK                         _______ _______ _______ _____ _____    ______ ____
ROOT
ATOM      3  N   UNL     1      10.004   6.851   5.472  0.00  0.00    -0.281 NA
ATOM      5  N   UNL     1      10.503   4.344   8.188  0.00  0.00    -0.347 N 
ATOM      6  N   UNL     1       8.877   5.471   9.232  0.00  0.00    -0.240 NA
ATOM     10  C   UNL     1       9.478   7.914   6.364  0.00  0.00    +0.150 C 
ATOM     14  C   UNL     1       8.633   7.355   7.545  0.00  0.00    +0.085 C 
ATOM     16  C   UNL     1      10.859   5.843   6.141  0.00  0.00    +0.140 C 
ATOM     17  C   UNL     1       9.231   6.106   8.075  0.00  0.00    +0.065 A 
ATOM     18  C   UNL     1      10.226   5.430   7.414  0.00  0.00    +0.053 A 
ATOM     21  C   UNL     1       9.663   4.413   9.272  0.00  0.00    +0.197 A 
ATOM     28  H   UNL     1      11.192   3.627   8.007  0.00  0.00    +0.167 HD
ENDROOT
BRANCH  10  15
ATOM      2  O   UNL     1      10.691   9.067   8.073  0.00  0.00    -0.274 OA
ATOM      4  N   UNL     1      11.482   9.142   5.884  0.00  0.00    -0.311 N 
ATOM     15  C   UNL     1      10.606   8.759   6.887  0.00  0.00    +0.231 C 
ATOM     27  H   UNL     1      11.312   8.833   4.933  0.00  0.00    +0.149 HD
BRANCH   4   7
ATOM      7  C   UNL     1      12.639   9.977   6.121  0.00  0.00    +0.073 C 
ATOM      8  C   UNL     1      13.827   9.145   6.615  0.00  0.00    +0.022 C 
ATOM      9  C   UNL     1      13.006  10.777   4.866  0.00  0.00    +0.022 C 
ATOM     11  C   UNL     1      14.427   8.270   5.515  0.00  0.00    +0.002 C 
ATOM     12  C   UNL     1      13.608   9.900   3.768  0.00  0.00    +0.002 C 
ATOM     13  C   UNL     1      14.795   9.090   4.282  0.00  0.00    +0.000 C 
ENDBRANCH   4   7
ENDBRANCH  10  15
BRANCH   3  19
ATOM     19  C   UNL     1      10.639   7.371   4.265  0.00  0.00    +0.120 C 
BRANCH  19  20
ATOM      1 CL   UNL     1      13.058   2.980   0.938  0.00  0.00    -0.084 Cl
ATOM     20  C   UNL     1      11.244   6.272   3.431  0.00  0.00    -0.033 A 
ATOM     22  C   UNL     1      12.527   6.423   2.905  0.00  0.00    +0.006 A 
ATOM     23  C   UNL     1      10.522   5.103   3.188  0.00  0.00    +0.006 A 
ATOM     24  C   UNL     1      13.087   5.404   2.132  0.00  0.00    +0.020 A 
ATOM     25  C   UNL     1      11.082   4.086   2.415  0.00  0.00    +0.020 A 
ATOM     26  C   UNL     1      12.364   4.237   1.888  0.00  0.00    +0.041 A 
ENDBRANCH  19  20
ENDBRANCH   3  19
TORSDOF 4
ENDMDL
