MODEL 1
REMARK VINA RESULT:      -6.9      0.000      0.000
REMARK  Name = 40777646
REMARK  11 active torsions:
REMARK  status: ('A' for Active; 'I' for Inactive)
REMARK    1  A    between atoms: N_2  and  C_8
REMARK    2  A    between atoms: N_2  and  C_14
REMARK    3  A    between atoms: N_3  and  C_17
REMARK    4  A    between atoms: N_5  and  C_25
REMARK    5  A    between atoms: N_5  and  C_30
REMARK    6  A    between atoms: N_5  and  C_31
REMARK    7  A    between atoms: C_6  and  C_9
REMARK    8  A    between atoms: C_12  and  C_15
REMARK    9  A    between atoms: C_13  and  C_16
REMARK   10  A    between atoms: C_14  and  C_18
REMARK   11  A    between atoms: C_28  and  C_29
REMARK                            x       y       z     vdW  Elec       q    Type
REMARK                         _______ _______ _______ _____ _____    ______ ____
ROOT
ATOM      6  C   UNL     1      -4.324 -11.752  14.458  0.00  0.00    +0.047 C 
ATOM      7  C   UNL     1      -3.019 -10.937  14.417  0.00  0.00    +0.035 C 
ATOM      8  C   UNL     1      -1.927 -11.898  13.918  0.00  0.00    +0.078 C 
ATOM     10  C   UNL     1      -3.816 -13.162  14.538  0.00  0.00    -0.021 C 
ATOM     11  C   UNL     1      -2.515 -13.237  14.236  0.00  0.00    -0.012 C 
ENDROOT
BRANCH   6   9
ATOM      3  N   UNL     1      -6.977 -10.772  16.786  0.00  0.00    -0.236 N 
ATOM      4  N   UNL     1      -5.975 -10.805  17.681  0.00  0.00    -0.171 NA
ATOM      9  C   UNL     1      -5.246 -11.350  15.586  0.00  0.00    +0.003 A 
ATOM     12  C   UNL     1      -6.593 -11.090  15.516  0.00  0.00    +0.046 A 
ATOM     13  C   UNL     1      -4.920 -11.159  16.942  0.00  0.00    +0.064 A 
ATOM     15  C   UNL     1      -7.524 -11.119  14.371  0.00  0.00    +0.066 C 
ATOM     16  C   UNL     1      -3.603 -11.306  17.584  0.00  0.00    +0.068 C 
BRANCH   3  17
ATOM      1 CL   UNL     1     -10.628  -7.215  17.054  0.00  0.00    -0.083 Cl
ATOM     17  C   UNL     1      -8.264 -10.431  17.201  0.00  0.00    +0.067 A 
ATOM     19  C   UNL     1      -8.760  -9.149  16.958  0.00  0.00    +0.048 A 
ATOM     20  C   UNL     1      -9.057 -11.371  17.858  0.00  0.00    +0.028 A 
ATOM     26  C   UNL     1     -10.048  -8.809  17.373  0.00  0.00    +0.046 A 
ATOM     27  C   UNL     1     -10.345 -11.032  18.272  0.00  0.00    +0.007 A 
ATOM     28  C   UNL     1     -10.841  -9.750  18.030  0.00  0.00    -0.032 A 
ATOM     29  C   UNL     1     -12.226  -9.425  18.488  0.00  0.00    +0.045 C 
ENDBRANCH   3  17
ENDBRANCH   6   9
BRANCH   8   2
ATOM      2  N   UNL     1      -1.679 -11.749  12.488  0.00  0.00    -0.306 NA
ATOM     32  H   UNL     1      -2.303 -12.370  11.973  0.00  0.00    +0.123 HD
BRANCH   2  14
ATOM     14  C   UNL     1      -1.914 -10.378  12.057  0.00  0.00    +0.116 C 
BRANCH  14  18
ATOM     18  C   UNL     1      -2.863 -10.312  10.890  0.00  0.00    -0.033 A 
ATOM     21  C   UNL     1      -3.520 -11.464  10.458  0.00  0.00    +0.007 A 
ATOM     22  C   UNL     1      -3.086  -9.098  10.240  0.00  0.00    +0.007 A 
ATOM     23  C   UNL     1      -4.399 -11.404   9.377  0.00  0.00    +0.023 A 
ATOM     24  C   UNL     1      -3.965  -9.037   9.159  0.00  0.00    +0.023 A 
ATOM     25  C   UNL     1      -4.621 -10.190   8.728  0.00  0.00    +0.029 A 
BRANCH  25   5
ATOM      5  N   UNL     1      -5.510 -10.128   7.634  0.00  0.00    -0.336 N 
ATOM     30  C   UNL     1      -6.702  -9.305   7.703  0.00  0.00    +0.129 C 
ATOM     31  C   UNL     1      -5.248 -10.892   6.431  0.00  0.00    +0.129 C 
ENDBRANCH  25   5
ENDBRANCH  14  18
ENDBRANCH   2  14
ENDBRANCH   8   2
TORSDOF 6
ENDMDL
MODEL 2
REMARK VINA RESULT:      -6.9      2.011      2.400
REMARK  Name = 40777646
REMARK  11 active torsions:
REMARK  status: ('A' for Active; 'I' for Inactive)
REMARK    1  A    between atoms: N_2  and  C_8
REMARK    2  A    between atoms: N_2  and  C_14
REMARK    3  A    between atoms: N_3  and  C_17
REMARK    4  A    between atoms: N_5  and  C_25
REMARK    5  A    between atoms: N_5  and  C_30
REMARK    6  A    between atoms: N_5  and  C_31
REMARK    7  A    between atoms: C_6  and  C_9
REMARK    8  A    between atoms: C_12  and  C_15
REMARK    9  A    between atoms: C_13  and  C_16
REMARK   10  A    between atoms: C_14  and  C_18
REMARK   11  A    between atoms: C_28  and  C_29
REMARK                            x       y       z     vdW  Elec       q    Type
REMARK                         _______ _______ _______ _____ _____    ______ ____
ROOT
ATOM      6  C   UNL     1      -4.686 -11.247  16.254  0.00  0.00    +0.047 C 
ATOM      7  C   UNL     1      -3.410 -10.455  16.592  0.00  0.00    +0.035 C 
ATOM      8  C   UNL     1      -2.334 -10.928  15.600  0.00  0.00    +0.078 C 
ATOM     10  C   UNL     1      -4.136 -12.445  15.538  0.00  0.00    -0.021 C 
ATOM     11  C   UNL     1      -2.860 -12.264  15.178  0.00  0.00    -0.012 C 
ENDROOT
BRANCH   6   9
ATOM      3  N   UNL     1      -7.184 -11.947  18.840  0.00  0.00    -0.236 N 
ATOM      4  N   UNL     1      -6.096 -12.129  19.608  0.00  0.00    -0.171 NA
ATOM      9  C   UNL     1      -5.529 -11.569  17.467  0.00  0.00    +0.003 A 
ATOM     12  C   UNL     1      -6.899 -11.610  17.549  0.00  0.00    +0.046 A 
ATOM     13  C   UNL     1      -5.087 -11.898  18.763  0.00  0.00    +0.064 A 
ATOM     15  C   UNL     1      -7.936 -11.363  16.528  0.00  0.00    +0.066 C 
ATOM     16  C   UNL     1      -3.700 -12.004  19.246  0.00  0.00    +0.068 C 
BRANCH   3  17
ATOM      1 CL   UNL     1     -11.563  -9.767  20.298  0.00  0.00    -0.083 Cl
ATOM     17  C   UNL     1      -8.455 -12.106  19.393  0.00  0.00    +0.067 A 
ATOM     19  C   UNL     1      -9.289 -10.999  19.558  0.00  0.00    +0.048 A 
ATOM     20  C   UNL     1      -8.894 -13.372  19.780  0.00  0.00    +0.028 A 
ATOM     26  C   UNL     1     -10.560 -11.159  20.110  0.00  0.00    +0.046 A 
ATOM     27  C   UNL     1     -10.165 -13.532  20.331  0.00  0.00    +0.007 A 
ATOM     28  C   UNL     1     -10.998 -12.425  20.497  0.00  0.00    -0.032 A 
ATOM     29  C   UNL     1     -12.353 -12.638  21.090  0.00  0.00    +0.045 C 
ENDBRANCH   3  17
ENDBRANCH   6   9
BRANCH   8   2
ATOM      2  N   UNL     1      -2.202 -10.023  14.464  0.00  0.00    -0.306 NA
ATOM     32  H   UNL     1      -1.433  -9.376  14.637  0.00  0.00    +0.123 HD
BRANCH   2  14
ATOM     14  C   UNL     1      -1.932 -10.761  13.237  0.00  0.00    +0.116 C 
BRANCH  14  18
ATOM     18  C   UNL     1      -2.860 -10.355  12.123  0.00  0.00    -0.033 A 
ATOM     21  C   UNL     1      -4.213 -10.688  12.186  0.00  0.00    +0.007 A 
ATOM     22  C   UNL     1      -2.366  -9.646  11.028  0.00  0.00    +0.007 A 
ATOM     23  C   UNL     1      -5.073 -10.312  11.154  0.00  0.00    +0.023 A 
ATOM     24  C   UNL     1      -3.226  -9.269   9.996  0.00  0.00    +0.023 A 
ATOM     25  C   UNL     1      -4.579  -9.602  10.060  0.00  0.00    +0.029 A 
BRANCH  25   5
ATOM      5  N   UNL     1      -5.449  -9.222   9.015  0.00  0.00    -0.336 N 
ATOM     30  C   UNL     1      -6.468  -8.216   9.239  0.00  0.00    +0.129 C 
ATOM     31  C   UNL     1      -5.340  -9.839   7.708  0.00  0.00    +0.129 C 
ENDBRANCH  25   5
ENDBRANCH  14  18
ENDBRANCH   2  14
ENDBRANCH   8   2
TORSDOF 6
ENDMDL
MODEL 3
REMARK VINA RESULT:      -6.8     19.911     23.089
REMARK  Name = 40777646
REMARK  11 active torsions:
REMARK  status: ('A' for Active; 'I' for Inactive)
REMARK    1  A    between atoms: N_2  and  C_8
REMARK    2  A    between atoms: N_2  and  C_14
REMARK    3  A    between atoms: N_3  and  C_17
REMARK    4  A    between atoms: N_5  and  C_25
REMARK    5  A    between atoms: N_5  and  C_30
REMARK    6  A    between atoms: N_5  and  C_31
REMARK    7  A    between atoms: C_6  and  C_9
REMARK    8  A    between atoms: C_12  and  C_15
REMARK    9  A    between atoms: C_13  and  C_16
REMARK   10  A    between atoms: C_14  and  C_18
REMARK   11  A    between atoms: C_28  and  C_29
REMARK                            x       y       z     vdW  Elec       q    Type
REMARK                         _______ _______ _______ _____ _____    ______ ____
ROOT
ATOM      6  C   UNL     1     -15.692   3.639  23.828  0.00  0.00    +0.047 C 
ATOM      7  C   UNL     1     -16.111   3.902  25.286  0.00  0.00    +0.035 C 
ATOM      8  C   UNL     1     -17.154   2.827  25.635  0.00  0.00    +0.078 C 
ATOM     10  C   UNL     1     -16.861   2.862  23.298  0.00  0.00    -0.021 C 
ATOM     11  C   UNL     1     -17.648   2.416  24.283  0.00  0.00    -0.012 C 
ENDROOT
BRANCH   6   9
ATOM      3  N   UNL     1     -14.368   6.517  21.989  0.00  0.00    -0.236 N 
ATOM      4  N   UNL     1     -15.660   6.884  21.962  0.00  0.00    -0.171 NA
ATOM      9  C   UNL     1     -15.374   4.901  23.060  0.00  0.00    +0.003 A 
ATOM     12  C   UNL     1     -14.143   5.337  22.635  0.00  0.00    +0.046 A 
ATOM     13  C   UNL     1     -16.271   5.892  22.617  0.00  0.00    +0.064 A 
ATOM     15  C   UNL     1     -12.802   4.739  22.787  0.00  0.00    +0.066 C 
ATOM     16  C   UNL     1     -17.732   5.935  22.798  0.00  0.00    +0.068 C 
BRANCH   3  17
ATOM      1 CL   UNL     1     -12.349  11.179  21.492  0.00  0.00    -0.083 Cl
ATOM     17  C   UNL     1     -13.406   7.329  21.388  0.00  0.00    +0.067 A 
ATOM     19  C   UNL     1     -13.350   8.689  21.692  0.00  0.00    +0.048 A 
ATOM     20  C   UNL     1     -12.497   6.780  20.483  0.00  0.00    +0.028 A 
ATOM     26  C   UNL     1     -12.388   9.500  21.091  0.00  0.00    +0.046 A 
ATOM     27  C   UNL     1     -11.534   7.590  19.883  0.00  0.00    +0.007 A 
ATOM     28  C   UNL     1     -11.479   8.951  20.186  0.00  0.00    -0.032 A 
ATOM     29  C   UNL     1     -10.432   9.785  19.523  0.00  0.00    +0.045 C 
ENDBRANCH   3  17
ENDBRANCH   6   9
BRANCH   8   2
ATOM      2  N   UNL     1     -16.562   1.703  26.352  0.00  0.00    -0.306 NA
ATOM     32  H   UNL     1     -15.610   1.943  26.628  0.00  0.00    +0.123 HD
BRANCH   2  14
ATOM     14  C   UNL     1     -17.334   1.378  27.544  0.00  0.00    +0.116 C 
BRANCH  14  18
ATOM     18  C   UNL     1     -16.559   1.653  28.806  0.00  0.00    -0.033 A 
ATOM     21  C   UNL     1     -16.564   2.932  29.362  0.00  0.00    +0.007 A 
ATOM     22  C   UNL     1     -15.838   0.628  29.418  0.00  0.00    +0.007 A 
ATOM     23  C   UNL     1     -15.847   3.187  30.531  0.00  0.00    +0.023 A 
ATOM     24  C   UNL     1     -15.121   0.883  30.587  0.00  0.00    +0.023 A 
ATOM     25  C   UNL     1     -15.126   2.162  31.143  0.00  0.00    +0.029 A 
BRANCH  25   5
ATOM      5  N   UNL     1     -14.400   2.420  32.326  0.00  0.00    -0.336 N 
ATOM     30  C   UNL     1     -13.279   3.338  32.313  0.00  0.00    +0.129 C 
ATOM     31  C   UNL     1     -14.761   1.762  33.566  0.00  0.00    +0.129 C 
ENDBRANCH  25   5
ENDBRANCH  14  18
ENDBRANCH   2  14
ENDBRANCH   8   2
TORSDOF 6
ENDMDL
MODEL 4
REMARK VINA RESULT:      -6.8      3.101      8.689
REMARK  Name = 40777646
REMARK  11 active torsions:
REMARK  status: ('A' for Active; 'I' for Inactive)
REMARK    1  A    between atoms: N_2  and  C_8
REMARK    2  A    between atoms: N_2  and  C_14
REMARK    3  A    between atoms: N_3  and  C_17
REMARK    4  A    between atoms: N_5  and  C_25
REMARK    5  A    between atoms: N_5  and  C_30
REMARK    6  A    between atoms: N_5  and  C_31
REMARK    7  A    between atoms: C_6  and  C_9
REMARK    8  A    between atoms: C_12  and  C_15
REMARK    9  A    between atoms: C_13  and  C_16
REMARK   10  A    between atoms: C_14  and  C_18
REMARK   11  A    between atoms: C_28  and  C_29
REMARK                            x       y       z     vdW  Elec       q    Type
REMARK                         _______ _______ _______ _____ _____    ______ ____
ROOT
ATOM      6  C   UNL     1      -2.808 -11.056  12.820  0.00  0.00    +0.047 C 
ATOM      7  C   UNL     1      -3.816 -10.857  13.967  0.00  0.00    +0.035 C 
ATOM      8  C   UNL     1      -3.790 -12.156  14.791  0.00  0.00    +0.078 C 
ATOM     10  C   UNL     1      -2.718 -12.551  12.731  0.00  0.00    -0.021 C 
ATOM     11  C   UNL     1      -3.246 -13.144  13.808  0.00  0.00    -0.012 C 
ENDROOT
BRANCH   6   9
ATOM      3  N   UNL     1      -4.309  -9.683   9.773  0.00  0.00    -0.236 N 
ATOM      4  N   UNL     1      -3.132  -9.041   9.681  0.00  0.00    -0.171 NA
ATOM      9  C   UNL     1      -3.220 -10.371  11.537  0.00  0.00    +0.003 A 
ATOM     12  C   UNL     1      -4.413 -10.493  10.867  0.00  0.00    +0.046 A 
ATOM     13  C   UNL     1      -2.471  -9.465  10.762  0.00  0.00    +0.064 A 
ATOM     15  C   UNL     1      -5.614 -11.294  11.172  0.00  0.00    +0.066 C 
ATOM     16  C   UNL     1      -1.108  -8.969  11.017  0.00  0.00    +0.068 C 
BRANCH   3  17
ATOM      1 CL   UNL     1      -6.024 -10.803   5.098  0.00  0.00    -0.083 Cl
ATOM     17  C   UNL     1      -5.284  -9.485   8.795  0.00  0.00    +0.067 A 
ATOM     19  C   UNL     1      -5.193 -10.155   7.574  0.00  0.00    +0.048 A 
ATOM     20  C   UNL     1      -6.349  -8.619   9.037  0.00  0.00    +0.028 A 
ATOM     26  C   UNL     1      -6.168  -9.957   6.596  0.00  0.00    +0.046 A 
ATOM     27  C   UNL     1      -7.325  -8.422   8.060  0.00  0.00    +0.007 A 
ATOM     28  C   UNL     1      -7.234  -9.091   6.838  0.00  0.00    -0.032 A 
ATOM     29  C   UNL     1      -8.299  -8.853   5.817  0.00  0.00    +0.045 C 
ENDBRANCH   3  17
ENDBRANCH   6   9
BRANCH   8   2
ATOM      2  N   UNL     1      -2.931 -12.041  15.965  0.00  0.00    -0.306 NA
ATOM     32  H   UNL     1      -1.965 -11.913  15.663  0.00  0.00    +0.123 HD
BRANCH   2  14
ATOM     14  C   UNL     1      -3.323 -10.908  16.791  0.00  0.00    +0.116 C 
BRANCH  14  18
ATOM     18  C   UNL     1      -4.636 -11.149  17.488  0.00  0.00    -0.033 A 
ATOM     21  C   UNL     1      -4.784 -12.248  18.335  0.00  0.00    +0.007 A 
ATOM     22  C   UNL     1      -5.703 -10.274  17.288  0.00  0.00    +0.007 A 
ATOM     23  C   UNL     1      -6.000 -12.472  18.981  0.00  0.00    +0.023 A 
ATOM     24  C   UNL     1      -6.919 -10.498  17.934  0.00  0.00    +0.023 A 
ATOM     25  C   UNL     1      -7.067 -11.597  18.780  0.00  0.00    +0.029 A 
BRANCH  25   5
ATOM      5  N   UNL     1      -8.297 -11.823  19.434  0.00  0.00    -0.336 N 
ATOM     30  C   UNL     1      -8.587 -13.114  20.025  0.00  0.00    +0.129 C 
ATOM     31  C   UNL     1      -9.290 -10.771  19.513  0.00  0.00    +0.129 C 
ENDBRANCH  25   5
ENDBRANCH  14  18
ENDBRANCH   2  14
ENDBRANCH   8   2
TORSDOF 6
ENDMDL
MODEL 5
REMARK VINA RESULT:      -6.6      1.784      2.686
REMARK  Name = 40777646
REMARK  11 active torsions:
REMARK  status: ('A' for Active; 'I' for Inactive)
REMARK    1  A    between atoms: N_2  and  C_8
REMARK    2  A    between atoms: N_2  and  C_14
REMARK    3  A    between atoms: N_3  and  C_17
REMARK    4  A    between atoms: N_5  and  C_25
REMARK    5  A    between atoms: N_5  and  C_30
REMARK    6  A    between atoms: N_5  and  C_31
REMARK    7  A    between atoms: C_6  and  C_9
REMARK    8  A    between atoms: C_12  and  C_15
REMARK    9  A    between atoms: C_13  and  C_16
REMARK   10  A    between atoms: C_14  and  C_18
REMARK   11  A    between atoms: C_28  and  C_29
REMARK                            x       y       z     vdW  Elec       q    Type
REMARK                         _______ _______ _______ _____ _____    ______ ____
ROOT
ATOM      6  C   UNL     1      -5.056 -11.659  16.879  0.00  0.00    +0.047 C 
ATOM      7  C   UNL     1      -4.868 -11.733  15.353  0.00  0.00    +0.035 C 
ATOM      8  C   UNL     1      -3.378 -11.456  15.089  0.00  0.00    +0.078 C 
ATOM     10  C   UNL     1      -3.880 -10.829  17.304  0.00  0.00    -0.021 C 
ATOM     11  C   UNL     1      -2.968 -10.728  16.331  0.00  0.00    -0.012 C 
ENDROOT
BRANCH   6   9
ATOM      3  N   UNL     1      -8.343 -10.107  17.330  0.00  0.00    -0.236 N 
ATOM      4  N   UNL     1      -8.228 -10.612  18.569  0.00  0.00    -0.171 NA
ATOM      9  C   UNL     1      -6.401 -11.103  17.289  0.00  0.00    +0.003 A 
ATOM     12  C   UNL     1      -7.276 -10.372  16.523  0.00  0.00    +0.046 A 
ATOM     13  C   UNL     1      -7.039 -11.221  18.539  0.00  0.00    +0.064 A 
ATOM     15  C   UNL     1      -7.184  -9.917  15.122  0.00  0.00    +0.066 C 
ATOM     16  C   UNL     1      -6.549 -11.912  19.743  0.00  0.00    +0.068 C 
BRANCH   3  17
ATOM      1 CL   UNL     1     -13.095 -10.175  15.465  0.00  0.00    -0.083 Cl
ATOM     17  C   UNL     1      -9.485  -9.385  16.981  0.00  0.00    +0.067 A 
ATOM     19  C   UNL     1     -10.597 -10.046  16.458  0.00  0.00    +0.048 A 
ATOM     20  C   UNL     1      -9.516  -8.001  17.156  0.00  0.00    +0.028 A 
ATOM     26  C   UNL     1     -11.738  -9.324  16.109  0.00  0.00    +0.046 A 
ATOM     27  C   UNL     1     -10.657  -7.279  16.808  0.00  0.00    +0.007 A 
ATOM     28  C   UNL     1     -11.769  -7.940  16.284  0.00  0.00    -0.032 A 
ATOM     29  C   UNL     1     -12.973  -7.131  15.925  0.00  0.00    +0.045 C 
ENDBRANCH   3  17
ENDBRANCH   6   9
BRANCH   8   2
ATOM      2  N   UNL     1      -2.615 -12.686  14.915  0.00  0.00    -0.306 NA
ATOM     32  H   UNL     1      -3.256 -13.456  14.725  0.00  0.00    +0.123 HD
BRANCH   2  14
ATOM     14  C   UNL     1      -1.677 -12.567  13.806  0.00  0.00    +0.116 C 
BRANCH  14  18
ATOM     18  C   UNL     1      -2.329 -11.984  12.581  0.00  0.00    -0.033 A 
ATOM     21  C   UNL     1      -3.189 -12.766  11.809  0.00  0.00    +0.007 A 
ATOM     22  C   UNL     1      -2.074 -10.662  12.218  0.00  0.00    +0.007 A 
ATOM     23  C   UNL     1      -3.794 -12.225  10.674  0.00  0.00    +0.023 A 
ATOM     24  C   UNL     1      -2.678 -10.121  11.083  0.00  0.00    +0.023 A 
ATOM     25  C   UNL     1      -3.538 -10.903  10.311  0.00  0.00    +0.029 A 
BRANCH  25   5
ATOM      5  N   UNL     1      -4.149 -10.356   9.163  0.00  0.00    -0.336 N 
ATOM     30  C   UNL     1      -4.608 -11.221   8.094  0.00  0.00    +0.129 C 
ATOM     31  C   UNL     1      -4.317  -8.923   9.033  0.00  0.00    +0.129 C 
ENDBRANCH  25   5
ENDBRANCH  14  18
ENDBRANCH   2  14
ENDBRANCH   8   2
TORSDOF 6
ENDMDL
MODEL 6
REMARK VINA RESULT:      -6.5     19.325     20.251
REMARK  Name = 40777646
REMARK  11 active torsions:
REMARK  status: ('A' for Active; 'I' for Inactive)
REMARK    1  A    between atoms: N_2  and  C_8
REMARK    2  A    between atoms: N_2  and  C_14
REMARK    3  A    between atoms: N_3  and  C_17
REMARK    4  A    between atoms: N_5  and  C_25
REMARK    5  A    between atoms: N_5  and  C_30
REMARK    6  A    between atoms: N_5  and  C_31
REMARK    7  A    between atoms: C_6  and  C_9
REMARK    8  A    between atoms: C_12  and  C_15
REMARK    9  A    between atoms: C_13  and  C_16
REMARK   10  A    between atoms: C_14  and  C_18
REMARK   11  A    between atoms: C_28  and  C_29
REMARK                            x       y       z     vdW  Elec       q    Type
REMARK                         _______ _______ _______ _____ _____    ______ ____
ROOT
ATOM      6  C   UNL     1     -13.989   6.790  20.660  0.00  0.00    +0.047 C 
ATOM      7  C   UNL     1     -13.845   8.133  21.399  0.00  0.00    +0.035 C 
ATOM      8  C   UNL     1     -12.367   8.538  21.271  0.00  0.00    +0.078 C 
ATOM     10  C   UNL     1     -12.581   6.270  20.669  0.00  0.00    -0.021 C 
ATOM     11  C   UNL     1     -11.703   7.225  20.994  0.00  0.00    -0.012 C 
ENDROOT
BRANCH   6   9
ATOM      3  N   UNL     1     -16.052   4.467  22.602  0.00  0.00    -0.236 N 
ATOM      4  N   UNL     1     -16.944   4.705  21.627  0.00  0.00    -0.171 NA
ATOM      9  C   UNL     1     -15.006   5.866  21.291  0.00  0.00    +0.003 A 
ATOM     12  C   UNL     1     -14.874   5.139  22.449  0.00  0.00    +0.046 A 
ATOM     13  C   UNL     1     -16.300   5.561  20.828  0.00  0.00    +0.064 A 
ATOM     15  C   UNL     1     -13.749   5.031  23.399  0.00  0.00    +0.066 C 
ATOM     16  C   UNL     1     -16.971   6.067  19.619  0.00  0.00    +0.068 C 
BRANCH   3  17
ATOM      1 CL   UNL     1     -15.890   3.460  27.604  0.00  0.00    -0.083 Cl
ATOM     17  C   UNL     1     -16.379   3.597  23.643  0.00  0.00    +0.067 A 
ATOM     19  C   UNL     1     -16.021   3.910  24.954  0.00  0.00    +0.048 A 
ATOM     20  C   UNL     1     -17.066   2.413  23.372  0.00  0.00    +0.028 A 
ATOM     26  C   UNL     1     -16.349   3.040  25.994  0.00  0.00    +0.046 A 
ATOM     27  C   UNL     1     -17.395   1.544  24.411  0.00  0.00    +0.007 A 
ATOM     28  C   UNL     1     -17.036   1.856  25.723  0.00  0.00    -0.032 A 
ATOM     29  C   UNL     1     -17.407   0.899  26.808  0.00  0.00    +0.045 C 
ENDBRANCH   3  17
ENDBRANCH   6   9
BRANCH   8   2
ATOM      2  N   UNL     1     -12.151   9.485  20.184  0.00  0.00    -0.306 NA
ATOM     32  H   UNL     1     -12.004  10.416  20.573  0.00  0.00    +0.123 HD
BRANCH   2  14
ATOM     14  C   UNL     1     -10.986   9.115  19.391  0.00  0.00    +0.116 C 
BRANCH  14  18
ATOM     18  C   UNL     1     -11.342   8.882  17.946  0.00  0.00    -0.033 A 
ATOM     21  C   UNL     1     -12.667   8.638  17.585  0.00  0.00    +0.007 A 
ATOM     22  C   UNL     1     -10.346   8.912  16.970  0.00  0.00    +0.007 A 
ATOM     23  C   UNL     1     -12.997   8.424  16.246  0.00  0.00    +0.023 A 
ATOM     24  C   UNL     1     -10.676   8.697  15.632  0.00  0.00    +0.023 A 
ATOM     25  C   UNL     1     -12.001   8.453  15.270  0.00  0.00    +0.029 A 
BRANCH  25   5
ATOM      5  N   UNL     1     -12.334   8.236  13.917  0.00  0.00    -0.336 N 
ATOM     30  C   UNL     1     -11.560   8.859  12.862  0.00  0.00    +0.129 C 
ATOM     31  C   UNL     1     -13.460   7.394  13.564  0.00  0.00    +0.129 C 
ENDBRANCH  25   5
ENDBRANCH  14  18
ENDBRANCH   2  14
ENDBRANCH   8   2
TORSDOF 6
ENDMDL
MODEL 7
REMARK VINA RESULT:      -6.4      2.547      8.629
REMARK  Name = 40777646
REMARK  11 active torsions:
REMARK  status: ('A' for Active; 'I' for Inactive)
REMARK    1  A    between atoms: N_2  and  C_8
REMARK    2  A    between atoms: N_2  and  C_14
REMARK    3  A    between atoms: N_3  and  C_17
REMARK    4  A    between atoms: N_5  and  C_25
REMARK    5  A    between atoms: N_5  and  C_30
REMARK    6  A    between atoms: N_5  and  C_31
REMARK    7  A    between atoms: C_6  and  C_9
REMARK    8  A    between atoms: C_12  and  C_15
REMARK    9  A    between atoms: C_13  and  C_16
REMARK   10  A    between atoms: C_14  and  C_18
REMARK   11  A    between atoms: C_28  and  C_29
REMARK                            x       y       z     vdW  Elec       q    Type
REMARK                         _______ _______ _______ _____ _____    ______ ____
ROOT
ATOM      6  C   UNL     1      -3.726  -9.995  11.463  0.00  0.00    +0.047 C 
ATOM      7  C   UNL     1      -3.864 -10.995  12.626  0.00  0.00    +0.035 C 
ATOM      8  C   UNL     1      -2.509 -10.997  13.354  0.00  0.00    +0.078 C 
ATOM     10  C   UNL     1      -2.239  -9.941  11.265  0.00  0.00    -0.021 C 
ATOM     11  C   UNL     1      -1.582 -10.479  12.298  0.00  0.00    -0.012 C 
ENDROOT
BRANCH   6   9
ATOM      3  N   UNL     1      -5.810 -10.412   8.479  0.00  0.00    -0.236 N 
ATOM      4  N   UNL     1      -5.355 -11.674   8.540  0.00  0.00    -0.171 NA
ATOM      9  C   UNL     1      -4.511 -10.395  10.234  0.00  0.00    +0.003 A 
ATOM     12  C   UNL     1      -5.335  -9.605   9.471  0.00  0.00    +0.046 A 
ATOM     13  C   UNL     1      -4.560 -11.659   9.614  0.00  0.00    +0.064 A 
ATOM     15  C   UNL     1      -5.700  -8.180   9.603  0.00  0.00    +0.066 C 
ATOM     16  C   UNL     1      -3.860 -12.890  10.014  0.00  0.00    +0.068 C 
BRANCH   3  17
ATOM      1 CL   UNL     1     -10.642  -9.729   6.981  0.00  0.00    -0.083 Cl
ATOM     17  C   UNL     1      -6.689 -10.041   7.461  0.00  0.00    +0.067 A 
ATOM     19  C   UNL     1      -8.066 -10.062   7.685  0.00  0.00    +0.048 A 
ATOM     20  C   UNL     1      -6.191  -9.649   6.218  0.00  0.00    +0.028 A 
ATOM     26  C   UNL     1      -8.944  -9.691   6.667  0.00  0.00    +0.046 A 
ATOM     27  C   UNL     1      -7.069  -9.277   5.200  0.00  0.00    +0.007 A 
ATOM     28  C   UNL     1      -8.447  -9.299   5.424  0.00  0.00    -0.032 A 
ATOM     29  C   UNL     1      -9.354  -8.893   4.308  0.00  0.00    +0.045 C 
ENDBRANCH   3  17
ENDBRANCH   6   9
BRANCH   8   2
ATOM      2  N   UNL     1      -2.517 -10.131  14.528  0.00  0.00    -0.306 NA
ATOM     32  H   UNL     1      -3.305  -9.487  14.465  0.00  0.00    +0.123 HD
BRANCH   2  14
ATOM     14  C   UNL     1      -2.640 -10.912  15.752  0.00  0.00    +0.116 C 
BRANCH  14  18
ATOM     18  C   UNL     1      -3.994 -10.745  16.389  0.00  0.00    -0.033 A 
ATOM     21  C   UNL     1      -4.987 -10.014  15.737  0.00  0.00    +0.007 A 
ATOM     22  C   UNL     1      -4.256 -11.323  17.631  0.00  0.00    +0.007 A 
ATOM     23  C   UNL     1      -6.242  -9.860  16.327  0.00  0.00    +0.023 A 
ATOM     24  C   UNL     1      -5.510 -11.169  18.221  0.00  0.00    +0.023 A 
ATOM     25  C   UNL     1      -6.503 -10.438  17.569  0.00  0.00    +0.029 A 
BRANCH  25   5
ATOM      5  N   UNL     1      -7.772 -10.282  18.167  0.00  0.00    -0.336 N 
ATOM     30  C   UNL     1      -8.746  -9.375  17.594  0.00  0.00    +0.129 C 
ATOM     31  C   UNL     1      -8.114 -11.021  19.366  0.00  0.00    +0.129 C 
ENDBRANCH  25   5
ENDBRANCH  14  18
ENDBRANCH   2  14
ENDBRANCH   8   2
TORSDOF 6
ENDMDL
MODEL 8
REMARK VINA RESULT:      -6.4      3.474      9.654
REMARK  Name = 40777646
REMARK  11 active torsions:
REMARK  status: ('A' for Active; 'I' for Inactive)
REMARK    1  A    between atoms: N_2  and  C_8
REMARK    2  A    between atoms: N_2  and  C_14
REMARK    3  A    between atoms: N_3  and  C_17
REMARK    4  A    between atoms: N_5  and  C_25
REMARK    5  A    between atoms: N_5  and  C_30
REMARK    6  A    between atoms: N_5  and  C_31
REMARK    7  A    between atoms: C_6  and  C_9
REMARK    8  A    between atoms: C_12  and  C_15
REMARK    9  A    between atoms: C_13  and  C_16
REMARK   10  A    between atoms: C_14  and  C_18
REMARK   11  A    between atoms: C_28  and  C_29
REMARK                            x       y       z     vdW  Elec       q    Type
REMARK                         _______ _______ _______ _____ _____    ______ ____
ROOT
ATOM      6  C   UNL     1      -4.022 -10.914  10.962  0.00  0.00    +0.047 C 
ATOM      7  C   UNL     1      -3.357 -12.288  11.163  0.00  0.00    +0.035 C 
ATOM      8  C   UNL     1      -2.254 -12.081  12.214  0.00  0.00    +0.078 C 
ATOM     10  C   UNL     1      -2.955  -9.971  11.435  0.00  0.00    -0.021 C 
ATOM     11  C   UNL     1      -2.000 -10.609  12.122  0.00  0.00    -0.012 C 
ENDROOT
BRANCH   6   9
ATOM      3  N   UNL     1      -5.010 -10.896   7.434  0.00  0.00    -0.236 N 
ATOM      4  N   UNL     1      -5.329  -9.619   7.701  0.00  0.00    -0.171 NA
ATOM      9  C   UNL     1      -4.489 -10.677   9.544  0.00  0.00    +0.003 A 
ATOM     12  C   UNL     1      -4.502 -11.574   8.504  0.00  0.00    +0.046 A 
ATOM     13  C   UNL     1      -5.009  -9.490   8.992  0.00  0.00    +0.064 A 
ATOM     15  C   UNL     1      -4.084 -12.988   8.444  0.00  0.00    +0.066 C 
ATOM     16  C   UNL     1      -5.222  -8.198   9.665  0.00  0.00    +0.068 C 
BRANCH   3  17
ATOM      1 CL   UNL     1      -2.935 -12.658   3.116  0.00  0.00    -0.083 Cl
ATOM     17  C   UNL     1      -5.209 -11.406   6.151  0.00  0.00    +0.067 A 
ATOM     19  C   UNL     1      -4.114 -11.743   5.355  0.00  0.00    +0.048 A 
ATOM     20  C   UNL     1      -6.505 -11.579   5.663  0.00  0.00    +0.028 A 
ATOM     26  C   UNL     1      -4.314 -12.252   4.072  0.00  0.00    +0.046 A 
ATOM     27  C   UNL     1      -6.705 -12.090   4.381  0.00  0.00    +0.007 A 
ATOM     28  C   UNL     1      -5.610 -12.426   3.584  0.00  0.00    -0.032 A 
ATOM     29  C   UNL     1      -5.866 -12.970   2.216  0.00  0.00    +0.045 C 
ENDBRANCH   3  17
ENDBRANCH   6   9
BRANCH   8   2
ATOM      2  N   UNL     1      -2.694 -12.464  13.551  0.00  0.00    -0.306 NA
ATOM     32  H   UNL     1      -2.227 -13.328  13.825  0.00  0.00    +0.123 HD
BRANCH   2  14
ATOM     14  C   UNL     1      -2.377 -11.427  14.523  0.00  0.00    +0.116 C 
BRANCH  14  18
ATOM     18  C   UNL     1      -3.578 -11.044  15.348  0.00  0.00    -0.033 A 
ATOM     21  C   UNL     1      -3.500 -11.060  16.741  0.00  0.00    +0.007 A 
ATOM     22  C   UNL     1      -4.766 -10.674  14.719  0.00  0.00    +0.007 A 
ATOM     23  C   UNL     1      -4.612 -10.705  17.505  0.00  0.00    +0.023 A 
ATOM     24  C   UNL     1      -5.877 -10.319  15.484  0.00  0.00    +0.023 A 
ATOM     25  C   UNL     1      -5.800 -10.335  16.876  0.00  0.00    +0.029 A 
BRANCH  25   5
ATOM      5  N   UNL     1      -6.925  -9.977  17.649  0.00  0.00    -0.336 N 
ATOM     30  C   UNL     1      -7.935  -9.091  17.107  0.00  0.00    +0.129 C 
ATOM     31  C   UNL     1      -7.080 -10.483  18.998  0.00  0.00    +0.129 C 
ENDBRANCH  25   5
ENDBRANCH  14  18
ENDBRANCH   2  14
ENDBRANCH   8   2
TORSDOF 6
ENDMDL
MODEL 9
REMARK VINA RESULT:      -6.4      2.628      4.958
REMARK  Name = 40777646
REMARK  11 active torsions:
REMARK  status: ('A' for Active; 'I' for Inactive)
REMARK    1  A    between atoms: N_2  and  C_8
REMARK    2  A    between atoms: N_2  and  C_14
REMARK    3  A    between atoms: N_3  and  C_17
REMARK    4  A    between atoms: N_5  and  C_25
REMARK    5  A    between atoms: N_5  and  C_30
REMARK    6  A    between atoms: N_5  and  C_31
REMARK    7  A    between atoms: C_6  and  C_9
REMARK    8  A    between atoms: C_12  and  C_15
REMARK    9  A    between atoms: C_13  and  C_16
REMARK   10  A    between atoms: C_14  and  C_18
REMARK   11  A    between atoms: C_28  and  C_29
REMARK                            x       y       z     vdW  Elec       q    Type
REMARK                         _______ _______ _______ _____ _____    ______ ____
ROOT
ATOM      6  C   UNL     1      -7.352 -11.306  16.930  0.00  0.00    +0.047 C 
ATOM      7  C   UNL     1      -6.281 -10.983  17.988  0.00  0.00    +0.035 C 
ATOM      8  C   UNL     1      -5.602 -12.318  18.335  0.00  0.00    +0.078 C 
ATOM     10  C   UNL     1      -7.593 -12.769  17.159  0.00  0.00    -0.021 C 
ATOM     11  C   UNL     1      -6.635 -13.317  17.916  0.00  0.00    -0.012 C 
ENDROOT
BRANCH   6   9
ATOM      3  N   UNL     1     -10.241  -9.072  16.645  0.00  0.00    -0.236 N 
ATOM      4  N   UNL     1     -10.426  -9.418  17.930  0.00  0.00    -0.171 NA
ATOM      9  C   UNL     1      -8.585 -10.439  17.043  0.00  0.00    +0.003 A 
ATOM     12  C   UNL     1      -9.152  -9.656  16.067  0.00  0.00    +0.046 A 
ATOM     13  C   UNL     1      -9.412 -10.254  18.167  0.00  0.00    +0.064 A 
ATOM     15  C   UNL     1      -8.754  -9.422  14.664  0.00  0.00    +0.066 C 
ATOM     16  C   UNL     1      -9.272 -10.861  19.502  0.00  0.00    +0.068 C 
BRANCH   3  17
ATOM      1 CL   UNL     1     -14.549  -8.425  13.984  0.00  0.00    -0.083 Cl
ATOM     17  C   UNL     1     -11.128  -8.187  16.032  0.00  0.00    +0.067 A 
ATOM     19  C   UNL     1     -12.265  -8.673  15.386  0.00  0.00    +0.048 A 
ATOM     20  C   UNL     1     -10.880  -6.814  16.066  0.00  0.00    +0.028 A 
ATOM     26  C   UNL     1     -13.152  -7.788  14.774  0.00  0.00    +0.046 A 
ATOM     27  C   UNL     1     -11.767  -5.929  15.455  0.00  0.00    +0.007 A 
ATOM     28  C   UNL     1     -12.904  -6.415  14.808  0.00  0.00    -0.032 A 
ATOM     29  C   UNL     1     -13.830  -5.434  14.165  0.00  0.00    +0.045 C 
ENDBRANCH   3  17
ENDBRANCH   6   9
BRANCH   8   2
ATOM      2  N   UNL     1      -4.354 -12.503  17.602  0.00  0.00    -0.306 NA
ATOM     32  H   UNL     1      -4.555 -12.921  16.694  0.00  0.00    +0.123 HD
BRANCH   2  14
ATOM     14  C   UNL     1      -3.675 -11.230  17.397  0.00  0.00    +0.116 C 
BRANCH  14  18
ATOM     18  C   UNL     1      -3.331 -11.006  15.948  0.00  0.00    -0.033 A 
ATOM     21  C   UNL     1      -4.262 -11.311  14.955  0.00  0.00    +0.007 A 
ATOM     22  C   UNL     1      -2.083 -10.491  15.600  0.00  0.00    +0.007 A 
ATOM     23  C   UNL     1      -3.944 -11.103  13.613  0.00  0.00    +0.023 A 
ATOM     24  C   UNL     1      -1.764 -10.283  14.258  0.00  0.00    +0.023 A 
ATOM     25  C   UNL     1      -2.695 -10.588  13.265  0.00  0.00    +0.029 A 
BRANCH  25   5
ATOM      5  N   UNL     1      -2.373 -10.378  11.907  0.00  0.00    -0.336 N 
ATOM     30  C   UNL     1      -3.192 -10.955  10.860  0.00  0.00    +0.129 C 
ATOM     31  C   UNL     1      -1.213  -9.589  11.542  0.00  0.00    +0.129 C 
ENDBRANCH  25   5
ENDBRANCH  14  18
ENDBRANCH   2  14
ENDBRANCH   8   2
TORSDOF 6
ENDMDL
MODEL 10
REMARK VINA RESULT:      -6.4      4.773      8.277
REMARK  Name = 40777646
REMARK  11 active torsions:
REMARK  status: ('A' for Active; 'I' for Inactive)
REMARK    1  A    between atoms: N_2  and  C_8
REMARK    2  A    between atoms: N_2  and  C_14
REMARK    3  A    between atoms: N_3  and  C_17
REMARK    4  A    between atoms: N_5  and  C_25
REMARK    5  A    between atoms: N_5  and  C_30
REMARK    6  A    between atoms: N_5  and  C_31
REMARK    7  A    between atoms: C_6  and  C_9
REMARK    8  A    between atoms: C_12  and  C_15
REMARK    9  A    between atoms: C_13  and  C_16
REMARK   10  A    between atoms: C_14  and  C_18
REMARK   11  A    between atoms: C_28  and  C_29
REMARK                            x       y       z     vdW  Elec       q    Type
REMARK                         _______ _______ _______ _____ _____    ______ ____
ROOT
ATOM      6  C   UNL     1     -10.645  -8.098  14.794  0.00  0.00    +0.047 C 
ATOM      7  C   UNL     1     -11.938  -8.733  15.339  0.00  0.00    +0.035 C 
ATOM      8  C   UNL     1     -12.790  -7.573  15.881  0.00  0.00    +0.078 C 
ATOM     10  C   UNL     1     -10.593  -6.795  15.535  0.00  0.00    -0.021 C 
ATOM     11  C   UNL     1     -11.763  -6.510  16.118  0.00  0.00    -0.012 C 
ENDROOT
BRANCH   6   9
ATOM      3  N   UNL     1      -7.711 -10.053  15.786  0.00  0.00    -0.236 N 
ATOM      4  N   UNL     1      -7.723 -10.419  14.493  0.00  0.00    -0.171 NA
ATOM      9  C   UNL     1      -9.427  -8.975  14.974  0.00  0.00    +0.003 A 
ATOM     12  C   UNL     1      -8.711  -9.190  16.126  0.00  0.00    +0.046 A 
ATOM     13  C   UNL     1      -8.775  -9.758  14.002  0.00  0.00    +0.064 A 
ATOM     15  C   UNL     1      -8.893  -8.656  17.490  0.00  0.00    +0.066 C 
ATOM     16  C   UNL     1      -9.123  -9.907  12.579  0.00  0.00    +0.068 C 
BRANCH   3  17
ATOM      1 CL   UNL     1      -2.737 -10.710  16.730  0.00  0.00    -0.083 Cl
ATOM     17  C   UNL     1      -6.727 -10.557  16.638  0.00  0.00    +0.067 A 
ATOM     19  C   UNL     1      -5.379 -10.409  16.313  0.00  0.00    +0.048 A 
ATOM     20  C   UNL     1      -7.092 -11.207  17.817  0.00  0.00    +0.028 A 
ATOM     26  C   UNL     1      -4.396 -10.912  17.165  0.00  0.00    +0.046 A 
ATOM     27  C   UNL     1      -6.110 -11.709  18.670  0.00  0.00    +0.007 A 
ATOM     28  C   UNL     1      -4.761 -11.562  18.344  0.00  0.00    -0.032 A 
ATOM     29  C   UNL     1      -3.738 -12.114  19.284  0.00  0.00    +0.045 C 
ENDBRANCH   3  17
ENDBRANCH   6   9
BRANCH   8   2
ATOM      2  N   UNL     1     -13.797  -7.137  14.920  0.00  0.00    -0.306 NA
ATOM     32  H   UNL     1     -14.725  -7.347  15.286  0.00  0.00    +0.123 HD
BRANCH   2  14
ATOM     14  C   UNL     1     -13.698  -5.705  14.672  0.00  0.00    +0.116 C 
BRANCH  14  18
ATOM     18  C   UNL     1     -13.094  -5.409  13.325  0.00  0.00    -0.033 A 
ATOM     21  C   UNL     1     -12.903  -6.440  12.405  0.00  0.00    +0.007 A 
ATOM     22  C   UNL     1     -12.725  -4.105  12.998  0.00  0.00    +0.007 A 
ATOM     23  C   UNL     1     -12.343  -6.167  11.157  0.00  0.00    +0.023 A 
ATOM     24  C   UNL     1     -12.166  -3.831  11.750  0.00  0.00    +0.023 A 
ATOM     25  C   UNL     1     -11.975  -4.862  10.829  0.00  0.00    +0.029 A 
BRANCH  25   5
ATOM      5  N   UNL     1     -11.409  -4.585   9.567  0.00  0.00    -0.336 N 
ATOM     30  C   UNL     1     -10.541  -5.551   8.924  0.00  0.00    +0.129 C 
ATOM     31  C   UNL     1     -11.680  -3.326   8.901  0.00  0.00    +0.129 C 
ENDBRANCH  25   5
ENDBRANCH  14  18
ENDBRANCH   2  14
ENDBRANCH   8   2
TORSDOF 6
ENDMDL
