MODEL 1
REMARK VINA RESULT:      -6.5      0.000      0.000
REMARK  Name = 38030429
REMARK  13 active torsions:
REMARK  status: ('A' for Active; 'I' for Inactive)
REMARK    1  A    between atoms: N_2  and  C_14
REMARK    2  A    between atoms: N_2  and  C_20
REMARK    3  A    between atoms: N_2  and  C_21
REMARK    4  A    between atoms: C_7  and  C_11
REMARK    5  A    between atoms: C_8  and  C_14
REMARK    6  A    between atoms: C_10  and  C_15
REMARK    7  A    between atoms: C_11  and  C_16
REMARK    8  A    between atoms: C_11  and  C_17
REMARK    9  A    between atoms: C_12  and  C_18
REMARK   10  A    between atoms: C_15  and  C_19
REMARK   11  A    between atoms: C_20  and  C_22
REMARK   12  A    between atoms: C_22  and  C_24
REMARK   13  A    between atoms: C_23  and  C_25
REMARK                            x       y       z     vdW  Elec       q    Type
REMARK                         _______ _______ _______ _____ _____    ______ ____
ROOT
ATOM      7  C   UNL     1      15.325   8.826  20.716  0.00  0.00    +0.000 C 
ATOM      8  C   UNL     1      14.554   7.676  20.028  0.00  0.00    +0.029 C 
ATOM      9  C   UNL     1      16.503   8.274  21.531  0.00  0.00    +0.012 C 
ATOM     10  C   UNL     1      17.484   7.429  20.691  0.00  0.00    +0.024 C 
ATOM     12  C   UNL     1      16.784   6.540  19.675  0.00  0.00    -0.073 C 
ATOM     13  C   UNL     1      15.472   6.658  19.401  0.00  0.00    -0.023 C 
ATOM     18  C   UNL     1      17.628   5.544  18.925  0.00  0.00    +0.039 C 
ENDROOT
BRANCH   7  11
ATOM     11  C   UNL     1      15.798   9.872  19.696  0.00  0.00    -0.013 C 
ATOM     16  C   UNL     1      14.663  10.239  18.746  0.00  0.00    +0.007 C 
ATOM     17  C   UNL     1      16.329  11.110  20.411  0.00  0.00    +0.007 C 
ENDBRANCH   7  11
BRANCH   8  14
ATOM     14  C   UNL     1      13.607   6.967  21.002  0.00  0.00    +0.092 C 
BRANCH  14   2
ATOM      2  N   UNL     1      12.307   6.751  20.390  0.00  0.00    -0.304 NA
ATOM     21  C   UNL     1      11.345   6.249  21.374  0.00  0.00    +0.104 C 
BRANCH   2  20
ATOM     20  C   UNL     1      11.807   7.986  19.781  0.00  0.00    +0.099 C 
BRANCH  20  22
ATOM     22  C   UNL     1      11.046   8.816  20.811  0.00  0.00    +0.134 C 
BRANCH  22  24
ATOM      5  N   UNL     1      12.252  11.111  21.248  0.00  0.00    -0.197 NA
ATOM     24  C   UNL     1      11.719  10.100  21.055  0.00  0.00    +0.064 C 
ENDBRANCH  22  24
ENDBRANCH  20  22
ENDBRANCH   2  20
ENDBRANCH  14   2
ENDBRANCH   8  14
BRANCH  10  15
ATOM     15  C   UNL     1      18.393   6.642  21.646  0.00  0.00    +0.105 C 
BRANCH  15  19
ATOM      1  O   UNL     1      20.462   5.421  21.222  0.00  0.00    -0.420 OA
ATOM      3  N   UNL     1      20.543   7.583  20.656  0.00  0.00    -0.112 NA
ATOM      4  N   UNL     1      21.771   7.019  20.365  0.00  0.00    -0.107 NA
ATOM     19  C   UNL     1      19.811   6.614  21.153  0.00  0.00    +0.218 A 
ATOM     23  C   UNL     1      21.679   5.756  20.712  0.00  0.00    +0.250 A 
BRANCH  23  25
ATOM      6  N   UNL     1      24.820   3.933  19.915  0.00  0.00    -0.263 NA
ATOM     25  C   UNL     1      22.642   4.697  20.636  0.00  0.00    +0.057 A 
ATOM     26  C   UNL     1      22.376   3.445  21.181  0.00  0.00    +0.016 A 
ATOM     27  C   UNL     1      23.868   4.888  20.020  0.00  0.00    +0.124 A 
ATOM     28  C   UNL     1      23.330   2.437  21.092  0.00  0.00    +0.020 A 
ATOM     29  C   UNL     1      24.525   2.730  20.455  0.00  0.00    +0.111 A 
ENDBRANCH  23  25
ENDBRANCH  15  19
ENDBRANCH  10  15
TORSDOF 9
ENDMDL
MODEL 2
REMARK VINA RESULT:      -6.1     26.981     30.582
REMARK  Name = 38030429
REMARK  13 active torsions:
REMARK  status: ('A' for Active; 'I' for Inactive)
REMARK    1  A    between atoms: N_2  and  C_14
REMARK    2  A    between atoms: N_2  and  C_20
REMARK    3  A    between atoms: N_2  and  C_21
REMARK    4  A    between atoms: C_7  and  C_11
REMARK    5  A    between atoms: C_8  and  C_14
REMARK    6  A    between atoms: C_10  and  C_15
REMARK    7  A    between atoms: C_11  and  C_16
REMARK    8  A    between atoms: C_11  and  C_17
REMARK    9  A    between atoms: C_12  and  C_18
REMARK   10  A    between atoms: C_15  and  C_19
REMARK   11  A    between atoms: C_20  and  C_22
REMARK   12  A    between atoms: C_22  and  C_24
REMARK   13  A    between atoms: C_23  and  C_25
REMARK                            x       y       z     vdW  Elec       q    Type
REMARK                         _______ _______ _______ _____ _____    ______ ____
ROOT
ATOM      7  C   UNL     1      -3.821 -11.868  12.282  0.00  0.00    +0.000 C 
ATOM      8  C   UNL     1      -2.851 -11.341  13.365  0.00  0.00    +0.029 C 
ATOM      9  C   UNL     1      -4.223 -10.738  11.324  0.00  0.00    +0.012 C 
ATOM     10  C   UNL     1      -3.017 -10.055  10.644  0.00  0.00    +0.024 C 
ATOM     12  C   UNL     1      -1.833  -9.867  11.581  0.00  0.00    -0.073 C 
ATOM     13  C   UNL     1      -1.783 -10.441  12.797  0.00  0.00    -0.023 C 
ATOM     18  C   UNL     1      -0.671  -9.055  11.078  0.00  0.00    +0.039 C 
ENDROOT
BRANCH   7  11
ATOM     11  C   UNL     1      -3.217 -13.054  11.518  0.00  0.00    -0.013 C 
ATOM     16  C   UNL     1      -2.698 -14.105  12.494  0.00  0.00    +0.007 C 
ATOM     17  C   UNL     1      -4.248 -13.658  10.571  0.00  0.00    +0.007 C 
ENDBRANCH   7  11
BRANCH   8  14
ATOM     14  C   UNL     1      -3.596 -10.598  14.479  0.00  0.00    +0.092 C 
BRANCH  14   2
ATOM      2  N   UNL     1      -3.220 -11.118  15.783  0.00  0.00    -0.304 NA
ATOM     21  C   UNL     1      -1.839 -10.754  16.110  0.00  0.00    +0.104 C 
BRANCH   2  20
ATOM     20  C   UNL     1      -4.129 -10.628  16.822  0.00  0.00    +0.099 C 
BRANCH  20  22
ATOM     22  C   UNL     1      -4.710 -11.795  17.615  0.00  0.00    +0.134 C 
BRANCH  22  24
ATOM      5  N   UNL     1      -3.361 -12.186  19.838  0.00  0.00    -0.197 NA
ATOM     24  C   UNL     1      -3.957 -12.014  18.857  0.00  0.00    +0.064 C 
ENDBRANCH  22  24
ENDBRANCH  20  22
ENDBRANCH   2  20
ENDBRANCH  14   2
ENDBRANCH   8  14
BRANCH  10  15
ATOM     15  C   UNL     1      -3.491  -8.740  10.012  0.00  0.00    +0.105 C 
BRANCH  15  19
ATOM      1  O   UNL     1      -5.782  -8.061   9.518  0.00  0.00    -0.420 OA
ATOM      3  N   UNL     1      -5.073  -9.821   8.334  0.00  0.00    -0.112 NA
ATOM      4  N   UNL     1      -6.375  -9.549   7.957  0.00  0.00    -0.107 NA
ATOM     19  C   UNL     1      -4.769  -8.929   9.246  0.00  0.00    +0.218 A 
ATOM     23  C   UNL     1      -6.749  -8.514   8.673  0.00  0.00    +0.250 A 
BRANCH  23  25
ATOM      6  N   UNL     1      -9.250  -5.820   8.118  0.00  0.00    -0.263 NA
ATOM     25  C   UNL     1      -7.992  -7.801   8.702  0.00  0.00    +0.057 A 
ATOM     26  C   UNL     1      -9.120  -8.348   9.305  0.00  0.00    +0.016 A 
ATOM     27  C   UNL     1      -8.110  -6.546   8.127  0.00  0.00    +0.124 A 
ATOM     28  C   UNL     1     -10.312  -7.632   9.316  0.00  0.00    +0.020 A 
ATOM     29  C   UNL     1     -10.324  -6.384   8.715  0.00  0.00    +0.111 A 
ENDBRANCH  23  25
ENDBRANCH  15  19
ENDBRANCH  10  15
TORSDOF 9
ENDMDL
MODEL 3
REMARK VINA RESULT:      -6.0     27.037     30.041
REMARK  Name = 38030429
REMARK  13 active torsions:
REMARK  status: ('A' for Active; 'I' for Inactive)
REMARK    1  A    between atoms: N_2  and  C_14
REMARK    2  A    between atoms: N_2  and  C_20
REMARK    3  A    between atoms: N_2  and  C_21
REMARK    4  A    between atoms: C_7  and  C_11
REMARK    5  A    between atoms: C_8  and  C_14
REMARK    6  A    between atoms: C_10  and  C_15
REMARK    7  A    between atoms: C_11  and  C_16
REMARK    8  A    between atoms: C_11  and  C_17
REMARK    9  A    between atoms: C_12  and  C_18
REMARK   10  A    between atoms: C_15  and  C_19
REMARK   11  A    between atoms: C_20  and  C_22
REMARK   12  A    between atoms: C_22  and  C_24
REMARK   13  A    between atoms: C_23  and  C_25
REMARK                            x       y       z     vdW  Elec       q    Type
REMARK                         _______ _______ _______ _____ _____    ______ ____
ROOT
ATOM      7  C   UNL     1      -5.473 -10.501  10.626  0.00  0.00    +0.000 C 
ATOM      8  C   UNL     1      -4.666 -10.191   9.344  0.00  0.00    +0.029 C 
ATOM      9  C   UNL     1      -4.580 -11.179  11.674  0.00  0.00    +0.012 C 
ATOM     10  C   UNL     1      -3.331 -10.350  12.042  0.00  0.00    +0.024 C 
ATOM     12  C   UNL     1      -2.699  -9.661  10.842  0.00  0.00    -0.073 C 
ATOM     13  C   UNL     1      -3.306  -9.611   9.642  0.00  0.00    -0.023 C 
ATOM     18  C   UNL     1      -1.378  -8.972  11.052  0.00  0.00    +0.039 C 
ENDROOT
BRANCH   7  11
ATOM     11  C   UNL     1      -6.130  -9.234  11.193  0.00  0.00    -0.013 C 
ATOM     16  C   UNL     1      -7.208  -8.724  10.242  0.00  0.00    +0.007 C 
ATOM     17  C   UNL     1      -6.713  -9.511  12.575  0.00  0.00    +0.007 C 
ENDBRANCH   7  11
BRANCH   8  14
ATOM     14  C   UNL     1      -4.501 -11.436   8.465  0.00  0.00    +0.092 C 
BRANCH  14   2
ATOM      2  N   UNL     1      -5.362 -11.357   7.298  0.00  0.00    -0.304 NA
ATOM     21  C   UNL     1      -6.629 -12.053   7.538  0.00  0.00    +0.104 C 
BRANCH   2  20
ATOM     20  C   UNL     1      -5.615  -9.962   6.929  0.00  0.00    +0.099 C 
BRANCH  20  22
ATOM     22  C   UNL     1      -6.551  -9.891   5.726  0.00  0.00    +0.134 C 
BRANCH  22  24
ATOM      5  N   UNL     1      -8.001  -7.699   5.790  0.00  0.00    -0.197 NA
ATOM     24  C   UNL     1      -7.362  -8.666   5.761  0.00  0.00    +0.064 C 
ENDBRANCH  22  24
ENDBRANCH  20  22
ENDBRANCH   2  20
ENDBRANCH  14   2
ENDBRANCH   8  14
BRANCH  10  15
ATOM     15  C   UNL     1      -2.347 -11.255  12.796  0.00  0.00    +0.105 C 
BRANCH  15  19
ATOM      1  O   UNL     1      -3.716 -10.924  14.789  0.00  0.00    -0.420 OA
ATOM      3  N   UNL     1      -1.518 -11.027  15.194  0.00  0.00    -0.112 NA
ATOM      4  N   UNL     1      -2.167 -10.838  16.400  0.00  0.00    -0.107 NA
ATOM     19  C   UNL     1      -2.461 -11.071  14.282  0.00  0.00    +0.218 A 
ATOM     23  C   UNL     1      -3.447 -10.783  16.116  0.00  0.00    +0.250 A 
BRANCH  23  25
ATOM      6  N   UNL     1      -6.802  -9.696  17.293  0.00  0.00    -0.263 NA
ATOM     25  C   UNL     1      -4.584 -10.604  16.971  0.00  0.00    +0.057 A 
ATOM     26  C   UNL     1      -4.605 -11.131  18.258  0.00  0.00    +0.016 A 
ATOM     27  C   UNL     1      -5.698  -9.902  16.540  0.00  0.00    +0.124 A 
ATOM     28  C   UNL     1      -5.723 -10.940  19.063  0.00  0.00    +0.020 A 
ATOM     29  C   UNL     1      -6.785 -10.222  18.538  0.00  0.00    +0.111 A 
ENDBRANCH  23  25
ENDBRANCH  15  19
ENDBRANCH  10  15
TORSDOF 9
ENDMDL
MODEL 4
REMARK VINA RESULT:      -6.0     27.036     30.100
REMARK  Name = 38030429
REMARK  13 active torsions:
REMARK  status: ('A' for Active; 'I' for Inactive)
REMARK    1  A    between atoms: N_2  and  C_14
REMARK    2  A    between atoms: N_2  and  C_20
REMARK    3  A    between atoms: N_2  and  C_21
REMARK    4  A    between atoms: C_7  and  C_11
REMARK    5  A    between atoms: C_8  and  C_14
REMARK    6  A    between atoms: C_10  and  C_15
REMARK    7  A    between atoms: C_11  and  C_16
REMARK    8  A    between atoms: C_11  and  C_17
REMARK    9  A    between atoms: C_12  and  C_18
REMARK   10  A    between atoms: C_15  and  C_19
REMARK   11  A    between atoms: C_20  and  C_22
REMARK   12  A    between atoms: C_22  and  C_24
REMARK   13  A    between atoms: C_23  and  C_25
REMARK                            x       y       z     vdW  Elec       q    Type
REMARK                         _______ _______ _______ _____ _____    ______ ____
ROOT
ATOM      7  C   UNL     1      -5.498 -10.464  10.632  0.00  0.00    +0.000 C 
ATOM      8  C   UNL     1      -4.678 -10.162   9.356  0.00  0.00    +0.029 C 
ATOM      9  C   UNL     1      -4.628 -11.178  11.675  0.00  0.00    +0.012 C 
ATOM     10  C   UNL     1      -3.358 -10.387  12.057  0.00  0.00    +0.024 C 
ATOM     12  C   UNL     1      -2.704  -9.702  10.866  0.00  0.00    -0.073 C 
ATOM     13  C   UNL     1      -3.305  -9.622   9.665  0.00  0.00    -0.023 C 
ATOM     18  C   UNL     1      -1.366  -9.051  11.089  0.00  0.00    +0.039 C 
ENDROOT
BRANCH   7  11
ATOM     11  C   UNL     1      -6.123  -9.187  11.211  0.00  0.00    -0.013 C 
ATOM     16  C   UNL     1      -7.002  -8.505  10.167  0.00  0.00    +0.007 C 
ATOM     17  C   UNL     1      -6.926  -9.511  12.467  0.00  0.00    +0.007 C 
ENDBRANCH   7  11
BRANCH   8  14
ATOM     14  C   UNL     1      -4.543 -11.401   8.463  0.00  0.00    +0.092 C 
BRANCH  14   2
ATOM      2  N   UNL     1      -5.592 -11.426   7.458  0.00  0.00    -0.304 NA
ATOM     21  C   UNL     1      -5.760 -10.103   6.849  0.00  0.00    +0.104 C 
BRANCH   2  20
ATOM     20  C   UNL     1      -5.299 -12.422   6.425  0.00  0.00    +0.099 C 
BRANCH  20  22
ATOM     22  C   UNL     1      -4.280 -11.873   5.429  0.00  0.00    +0.134 C 
BRANCH  22  24
ATOM      5  N   UNL     1      -2.205 -13.474   5.227  0.00  0.00    -0.197 NA
ATOM     24  C   UNL     1      -3.120 -12.767   5.317  0.00  0.00    +0.064 C 
ENDBRANCH  22  24
ENDBRANCH  20  22
ENDBRANCH   2  20
ENDBRANCH  14   2
ENDBRANCH   8  14
BRANCH  10  15
ATOM     15  C   UNL     1      -2.402 -11.327  12.803  0.00  0.00    +0.105 C 
BRANCH  15  19
ATOM      1  O   UNL     1      -3.675 -11.071  14.869  0.00  0.00    -0.420 OA
ATOM      3  N   UNL     1      -1.461 -10.889  15.129  0.00  0.00    -0.112 NA
ATOM      4  N   UNL     1      -2.052 -10.724  16.368  0.00  0.00    -0.107 NA
ATOM     19  C   UNL     1      -2.445 -11.089  14.285  0.00  0.00    +0.218 A 
ATOM     23  C   UNL     1      -3.344 -10.838  16.169  0.00  0.00    +0.250 A 
BRANCH  23  25
ATOM      6  N   UNL     1      -6.686 -10.001  17.566  0.00  0.00    -0.263 NA
ATOM     25  C   UNL     1      -4.439 -10.758  17.091  0.00  0.00    +0.057 A 
ATOM     26  C   UNL     1      -4.355 -11.326  18.357  0.00  0.00    +0.016 A 
ATOM     27  C   UNL     1      -5.616 -10.113  16.747  0.00  0.00    +0.124 A 
ATOM     28  C   UNL     1      -5.435 -11.232  19.228  0.00  0.00    +0.020 A 
ATOM     29  C   UNL     1      -6.566 -10.565  18.788  0.00  0.00    +0.111 A 
ENDBRANCH  23  25
ENDBRANCH  15  19
ENDBRANCH  10  15
TORSDOF 9
ENDMDL
MODEL 5
REMARK VINA RESULT:      -6.0     27.317     29.588
REMARK  Name = 38030429
REMARK  13 active torsions:
REMARK  status: ('A' for Active; 'I' for Inactive)
REMARK    1  A    between atoms: N_2  and  C_14
REMARK    2  A    between atoms: N_2  and  C_20
REMARK    3  A    between atoms: N_2  and  C_21
REMARK    4  A    between atoms: C_7  and  C_11
REMARK    5  A    between atoms: C_8  and  C_14
REMARK    6  A    between atoms: C_10  and  C_15
REMARK    7  A    between atoms: C_11  and  C_16
REMARK    8  A    between atoms: C_11  and  C_17
REMARK    9  A    between atoms: C_12  and  C_18
REMARK   10  A    between atoms: C_15  and  C_19
REMARK   11  A    between atoms: C_20  and  C_22
REMARK   12  A    between atoms: C_22  and  C_24
REMARK   13  A    between atoms: C_23  and  C_25
REMARK                            x       y       z     vdW  Elec       q    Type
REMARK                         _______ _______ _______ _____ _____    ______ ____
ROOT
ATOM      7  C   UNL     1      -3.759  -9.919  11.659  0.00  0.00    +0.000 C 
ATOM      8  C   UNL     1      -5.010 -10.813  11.495  0.00  0.00    +0.029 C 
ATOM      9  C   UNL     1      -2.776 -10.545  12.658  0.00  0.00    +0.012 C 
ATOM     10  C   UNL     1      -2.338 -11.974  12.271  0.00  0.00    +0.024 C 
ATOM     12  C   UNL     1      -3.474 -12.810  11.702  0.00  0.00    -0.073 C 
ATOM     13  C   UNL     1      -4.664 -12.275  11.372  0.00  0.00    -0.023 C 
ATOM     18  C   UNL     1      -3.206 -14.270  11.456  0.00  0.00    +0.039 C 
ENDROOT
BRANCH   7  11
ATOM     11  C   UNL     1      -3.081  -9.652  10.308  0.00  0.00    -0.013 C 
ATOM     16  C   UNL     1      -4.022  -8.884   9.384  0.00  0.00    +0.007 C 
ATOM     17  C   UNL     1      -1.777  -8.887  10.509  0.00  0.00    +0.007 C 
ENDBRANCH   7  11
BRANCH   8  14
ATOM     14  C   UNL     1      -5.996 -10.624  12.654  0.00  0.00    +0.092 C 
BRANCH  14   2
ATOM      2  N   UNL     1      -7.305 -10.238  12.156  0.00  0.00    -0.304 NA
ATOM     21  C   UNL     1      -8.217  -9.945  13.265  0.00  0.00    +0.104 C 
BRANCH   2  20
ATOM     20  C   UNL     1      -7.204  -9.078  11.267  0.00  0.00    +0.099 C 
BRANCH  20  22
ATOM     22  C   UNL     1      -8.022  -9.307   9.999  0.00  0.00    +0.134 C 
BRANCH  22  24
ATOM      5  N   UNL     1      -7.858  -7.238   8.385  0.00  0.00    -0.197 NA
ATOM     24  C   UNL     1      -7.929  -8.150   9.097  0.00  0.00    +0.064 C 
ENDBRANCH  22  24
ENDBRANCH  20  22
ENDBRANCH   2  20
ENDBRANCH  14   2
ENDBRANCH   8  14
BRANCH  10  15
ATOM     15  C   UNL     1      -1.669 -12.627  13.488  0.00  0.00    +0.105 C 
BRANCH  15  19
ATOM      1  O   UNL     1      -3.222 -11.846  15.200  0.00  0.00    -0.420 OA
ATOM      3  N   UNL     1      -1.115 -11.158  15.494  0.00  0.00    -0.112 NA
ATOM      4  N   UNL     1      -1.879 -10.646  16.526  0.00  0.00    -0.107 NA
ATOM     19  C   UNL     1      -1.939 -11.851  14.745  0.00  0.00    +0.218 A 
ATOM     23  C   UNL     1      -3.102 -11.073  16.314  0.00  0.00    +0.250 A 
BRANCH  23  25
ATOM      6  N   UNL     1      -6.525  -9.900  17.168  0.00  0.00    -0.263 NA
ATOM     25  C   UNL     1      -4.306 -10.856  17.061  0.00  0.00    +0.057 A 
ATOM     26  C   UNL     1      -4.453 -11.359  18.349  0.00  0.00    +0.016 A 
ATOM     27  C   UNL     1      -5.363 -10.140  16.521  0.00  0.00    +0.124 A 
ATOM     28  C   UNL     1      -5.634 -11.133  19.047  0.00  0.00    +0.020 A 
ATOM     29  C   UNL     1      -6.630 -10.404  18.418  0.00  0.00    +0.111 A 
ENDBRANCH  23  25
ENDBRANCH  15  19
ENDBRANCH  10  15
TORSDOF 9
ENDMDL
MODEL 6
REMARK VINA RESULT:      -5.9     27.099     30.656
REMARK  Name = 38030429
REMARK  13 active torsions:
REMARK  status: ('A' for Active; 'I' for Inactive)
REMARK    1  A    between atoms: N_2  and  C_14
REMARK    2  A    between atoms: N_2  and  C_20
REMARK    3  A    between atoms: N_2  and  C_21
REMARK    4  A    between atoms: C_7  and  C_11
REMARK    5  A    between atoms: C_8  and  C_14
REMARK    6  A    between atoms: C_10  and  C_15
REMARK    7  A    between atoms: C_11  and  C_16
REMARK    8  A    between atoms: C_11  and  C_17
REMARK    9  A    between atoms: C_12  and  C_18
REMARK   10  A    between atoms: C_15  and  C_19
REMARK   11  A    between atoms: C_20  and  C_22
REMARK   12  A    between atoms: C_22  and  C_24
REMARK   13  A    between atoms: C_23  and  C_25
REMARK                            x       y       z     vdW  Elec       q    Type
REMARK                         _______ _______ _______ _____ _____    ______ ____
ROOT
ATOM      7  C   UNL     1      -3.861 -11.967  12.397  0.00  0.00    +0.000 C 
ATOM      8  C   UNL     1      -2.930 -11.351  13.467  0.00  0.00    +0.029 C 
ATOM      9  C   UNL     1      -4.323 -10.893  11.402  0.00  0.00    +0.012 C 
ATOM     10  C   UNL     1      -3.155 -10.161  10.707  0.00  0.00    +0.024 C 
ATOM     12  C   UNL     1      -1.991  -9.875  11.643  0.00  0.00    -0.073 C 
ATOM     13  C   UNL     1      -1.914 -10.407  12.877  0.00  0.00    -0.023 C 
ATOM     18  C   UNL     1      -0.875  -9.011  11.120  0.00  0.00    +0.039 C 
ENDROOT
BRANCH   7  11
ATOM     11  C   UNL     1      -3.183 -13.138  11.673  0.00  0.00    -0.013 C 
ATOM     16  C   UNL     1      -2.599 -14.121  12.683  0.00  0.00    +0.007 C 
ATOM     17  C   UNL     1      -4.174 -13.838  10.749  0.00  0.00    +0.007 C 
ENDBRANCH   7  11
BRANCH   8  14
ATOM     14  C   UNL     1      -3.725 -10.620  14.555  0.00  0.00    +0.092 C 
BRANCH  14   2
ATOM      2  N   UNL     1      -3.410 -11.156  15.868  0.00  0.00    -0.304 NA
ATOM     21  C   UNL     1      -2.070 -10.741  16.293  0.00  0.00    +0.104 C 
BRANCH   2  20
ATOM     20  C   UNL     1      -4.405 -10.732  16.856  0.00  0.00    +0.099 C 
BRANCH  20  22
ATOM     22  C   UNL     1      -4.416 -11.688  18.045  0.00  0.00    +0.134 C 
BRANCH  22  24
ATOM      5  N   UNL     1      -6.073 -10.855  19.909  0.00  0.00    -0.197 NA
ATOM     24  C   UNL     1      -5.341 -11.223  19.088  0.00  0.00    +0.064 C 
ENDBRANCH  22  24
ENDBRANCH  20  22
ENDBRANCH   2  20
ENDBRANCH  14   2
ENDBRANCH   8  14
BRANCH  10  15
ATOM     15  C   UNL     1      -3.703  -8.896  10.033  0.00  0.00    +0.105 C 
BRANCH  15  19
ATOM      1  O   UNL     1      -4.400  -9.940   7.941  0.00  0.00    -0.420 OA
ATOM      3  N   UNL     1      -6.055  -8.928   9.055  0.00  0.00    -0.112 NA
ATOM      4  N   UNL     1      -6.587  -9.470   7.900  0.00  0.00    -0.107 NA
ATOM     19  C   UNL     1      -4.777  -9.226   9.037  0.00  0.00    +0.218 A 
ATOM     23  C   UNL     1      -5.586 -10.051   7.281  0.00  0.00    +0.250 A 
BRANCH  23  25
ATOM      6  N   UNL     1      -6.559 -11.241   3.895  0.00  0.00    -0.263 NA
ATOM     25  C   UNL     1      -5.549 -10.772   6.042  0.00  0.00    +0.057 A 
ATOM     26  C   UNL     1      -4.524 -11.669   5.763  0.00  0.00    +0.016 A 
ATOM     27  C   UNL     1      -6.534 -10.595   5.083  0.00  0.00    +0.124 A 
ATOM     28  C   UNL     1      -4.516 -12.352   4.552  0.00  0.00    +0.020 A 
ATOM     29  C   UNL     1      -5.547 -12.105   3.661  0.00  0.00    +0.111 A 
ENDBRANCH  23  25
ENDBRANCH  15  19
ENDBRANCH  10  15
TORSDOF 9
ENDMDL
MODEL 7
REMARK VINA RESULT:      -5.9      2.114      3.047
REMARK  Name = 38030429
REMARK  13 active torsions:
REMARK  status: ('A' for Active; 'I' for Inactive)
REMARK    1  A    between atoms: N_2  and  C_14
REMARK    2  A    between atoms: N_2  and  C_20
REMARK    3  A    between atoms: N_2  and  C_21
REMARK    4  A    between atoms: C_7  and  C_11
REMARK    5  A    between atoms: C_8  and  C_14
REMARK    6  A    between atoms: C_10  and  C_15
REMARK    7  A    between atoms: C_11  and  C_16
REMARK    8  A    between atoms: C_11  and  C_17
REMARK    9  A    between atoms: C_12  and  C_18
REMARK   10  A    between atoms: C_15  and  C_19
REMARK   11  A    between atoms: C_20  and  C_22
REMARK   12  A    between atoms: C_22  and  C_24
REMARK   13  A    between atoms: C_23  and  C_25
REMARK                            x       y       z     vdW  Elec       q    Type
REMARK                         _______ _______ _______ _____ _____    ______ ____
ROOT
ATOM      7  C   UNL     1      15.337   8.824  20.740  0.00  0.00    +0.000 C 
ATOM      8  C   UNL     1      14.530   7.701  20.049  0.00  0.00    +0.029 C 
ATOM      9  C   UNL     1      16.539   8.238  21.494  0.00  0.00    +0.012 C 
ATOM     10  C   UNL     1      17.480   7.408  20.594  0.00  0.00    +0.024 C 
ATOM     12  C   UNL     1      16.733   6.555  19.580  0.00  0.00    -0.073 C 
ATOM     13  C   UNL     1      15.413   6.693  19.359  0.00  0.00    -0.023 C 
ATOM     18  C   UNL     1      17.538   5.574  18.772  0.00  0.00    +0.039 C 
ENDROOT
BRANCH   7  11
ATOM     11  C   UNL     1      15.782   9.894  19.732  0.00  0.00    -0.013 C 
ATOM     16  C   UNL     1      14.623  10.277  18.818  0.00  0.00    +0.007 C 
ATOM     17  C   UNL     1      16.325  11.118  20.462  0.00  0.00    +0.007 C 
ENDBRANCH   7  11
BRANCH   8  14
ATOM     14  C   UNL     1      13.613   6.973  21.038  0.00  0.00    +0.092 C 
BRANCH  14   2
ATOM      2  N   UNL     1      12.307   6.733  20.447  0.00  0.00    -0.304 NA
ATOM     21  C   UNL     1      11.347   6.298  21.465  0.00  0.00    +0.104 C 
BRANCH   2  20
ATOM     20  C   UNL     1      11.813   7.934  19.769  0.00  0.00    +0.099 C 
BRANCH  20  22
ATOM     22  C   UNL     1      10.951   8.763  20.716  0.00  0.00    +0.134 C 
BRANCH  22  24
ATOM      5  N   UNL     1      12.141  11.023  21.340  0.00  0.00    -0.197 NA
ATOM     24  C   UNL     1      11.616  10.025  21.066  0.00  0.00    +0.064 C 
ENDBRANCH  22  24
ENDBRANCH  20  22
ENDBRANCH   2  20
ENDBRANCH  14   2
ENDBRANCH   8  14
BRANCH  10  15
ATOM     15  C   UNL     1      18.416   6.587  21.491  0.00  0.00    +0.105 C 
BRANCH  15  19
ATOM      1  O   UNL     1      20.371   7.905  20.863  0.00  0.00    -0.420 OA
ATOM      3  N   UNL     1      20.670   5.694  20.709  0.00  0.00    -0.112 NA
ATOM      4  N   UNL     1      21.846   6.312  20.327  0.00  0.00    -0.107 NA
ATOM     19  C   UNL     1      19.837   6.662  21.014  0.00  0.00    +0.218 A 
ATOM     23  C   UNL     1      21.626   7.601  20.432  0.00  0.00    +0.250 A 
BRANCH  23  25
ATOM      6  N   UNL     1      22.782  11.115  20.058  0.00  0.00    -0.263 NA
ATOM     25  C   UNL     1      22.486   8.718  20.169  0.00  0.00    +0.057 A 
ATOM     26  C   UNL     1      23.810   8.529  19.787  0.00  0.00    +0.016 A 
ATOM     27  C   UNL     1      22.026  10.019  20.290  0.00  0.00    +0.124 A 
ATOM     28  C   UNL     1      24.620   9.632  19.540  0.00  0.00    +0.020 A 
ATOM     29  C   UNL     1      24.063  10.892  19.688  0.00  0.00    +0.111 A 
ENDBRANCH  23  25
ENDBRANCH  15  19
ENDBRANCH  10  15
TORSDOF 9
ENDMDL
MODEL 8
REMARK VINA RESULT:      -5.9     28.193     30.202
REMARK  Name = 38030429
REMARK  13 active torsions:
REMARK  status: ('A' for Active; 'I' for Inactive)
REMARK    1  A    between atoms: N_2  and  C_14
REMARK    2  A    between atoms: N_2  and  C_20
REMARK    3  A    between atoms: N_2  and  C_21
REMARK    4  A    between atoms: C_7  and  C_11
REMARK    5  A    between atoms: C_8  and  C_14
REMARK    6  A    between atoms: C_10  and  C_15
REMARK    7  A    between atoms: C_11  and  C_16
REMARK    8  A    between atoms: C_11  and  C_17
REMARK    9  A    between atoms: C_12  and  C_18
REMARK   10  A    between atoms: C_15  and  C_19
REMARK   11  A    between atoms: C_20  and  C_22
REMARK   12  A    between atoms: C_22  and  C_24
REMARK   13  A    between atoms: C_23  and  C_25
REMARK                            x       y       z     vdW  Elec       q    Type
REMARK                         _______ _______ _______ _____ _____    ______ ____
ROOT
ATOM      7  C   UNL     1      -7.019 -12.090  16.890  0.00  0.00    +0.000 C 
ATOM      8  C   UNL     1      -7.182 -11.750  18.390  0.00  0.00    +0.029 C 
ATOM      9  C   UNL     1      -5.726 -11.476  16.336  0.00  0.00    +0.012 C 
ATOM     10  C   UNL     1      -4.462 -11.918  17.102  0.00  0.00    +0.024 C 
ATOM     12  C   UNL     1      -4.676 -12.001  18.606  0.00  0.00    -0.073 C 
ATOM     13  C   UNL     1      -5.898 -11.912  19.163  0.00  0.00    -0.023 C 
ATOM     18  C   UNL     1      -3.467 -12.250  19.468  0.00  0.00    +0.039 C 
ENDROOT
BRANCH   7  11
ATOM     11  C   UNL     1      -7.059 -13.606  16.652  0.00  0.00    -0.013 C 
ATOM     16  C   UNL     1      -8.268 -14.221  17.351  0.00  0.00    +0.007 C 
ATOM     17  C   UNL     1      -7.085 -13.909  15.158  0.00  0.00    +0.007 C 
ENDBRANCH   7  11
BRANCH   8  14
ATOM     14  C   UNL     1      -7.716 -10.328  18.593  0.00  0.00    +0.092 C 
BRANCH  14   2
ATOM      2  N   UNL     1      -8.929 -10.120  17.821  0.00  0.00    -0.304 NA
ATOM     21  C   UNL     1     -10.115 -10.244  18.673  0.00  0.00    +0.104 C 
BRANCH   2  20
ATOM     20  C   UNL     1      -8.914  -8.809  17.168  0.00  0.00    +0.099 C 
BRANCH  20  22
ATOM     22  C   UNL     1     -10.290  -8.155  17.255  0.00  0.00    +0.134 C 
BRANCH  22  24
ATOM      5  N   UNL     1     -10.499  -6.171  15.542  0.00  0.00    -0.197 NA
ATOM     24  C   UNL     1     -10.408  -7.047  16.297  0.00  0.00    +0.064 C 
ENDBRANCH  22  24
ENDBRANCH  20  22
ENDBRANCH   2  20
ENDBRANCH  14   2
ENDBRANCH   8  14
BRANCH  10  15
ATOM     15  C   UNL     1      -3.304 -10.988  16.716  0.00  0.00    +0.105 C 
BRANCH  15  19
ATOM      1  O   UNL     1      -3.726 -10.411  14.383  0.00  0.00    -0.420 OA
ATOM      3  N   UNL     1      -2.015 -11.820  14.682  0.00  0.00    -0.112 NA
ATOM      4  N   UNL     1      -2.141 -11.582  13.326  0.00  0.00    -0.107 NA
ATOM     19  C   UNL     1      -2.960 -11.116  15.260  0.00  0.00    +0.218 A 
ATOM     23  C   UNL     1      -3.151 -10.755  13.198  0.00  0.00    +0.250 A 
BRANCH  23  25
ATOM      6  N   UNL     1      -5.656  -9.173  10.951  0.00  0.00    -0.263 NA
ATOM     25  C   UNL     1      -3.731 -10.167  12.025  0.00  0.00    +0.057 A 
ATOM     26  C   UNL     1      -2.991 -10.012  10.859  0.00  0.00    +0.016 A 
ATOM     27  C   UNL     1      -5.048  -9.735  12.019  0.00  0.00    +0.124 A 
ATOM     28  C   UNL     1      -3.581  -9.438   9.738  0.00  0.00    +0.020 A 
ATOM     29  C   UNL     1      -4.904  -9.039   9.835  0.00  0.00    +0.111 A 
ENDBRANCH  23  25
ENDBRANCH  15  19
ENDBRANCH  10  15
TORSDOF 9
ENDMDL
MODEL 9
REMARK VINA RESULT:      -5.5      9.209     12.835
REMARK  Name = 38030429
REMARK  13 active torsions:
REMARK  status: ('A' for Active; 'I' for Inactive)
REMARK    1  A    between atoms: N_2  and  C_14
REMARK    2  A    between atoms: N_2  and  C_20
REMARK    3  A    between atoms: N_2  and  C_21
REMARK    4  A    between atoms: C_7  and  C_11
REMARK    5  A    between atoms: C_8  and  C_14
REMARK    6  A    between atoms: C_10  and  C_15
REMARK    7  A    between atoms: C_11  and  C_16
REMARK    8  A    between atoms: C_11  and  C_17
REMARK    9  A    between atoms: C_12  and  C_18
REMARK   10  A    between atoms: C_15  and  C_19
REMARK   11  A    between atoms: C_20  and  C_22
REMARK   12  A    between atoms: C_22  and  C_24
REMARK   13  A    between atoms: C_23  and  C_25
REMARK                            x       y       z     vdW  Elec       q    Type
REMARK                         _______ _______ _______ _____ _____    ______ ____
ROOT
ATOM      7  C   UNL     1      18.272  -2.445  23.795  0.00  0.00    +0.000 C 
ATOM      8  C   UNL     1      18.954  -2.595  25.175  0.00  0.00    +0.029 C 
ATOM      9  C   UNL     1      18.038  -3.821  23.157  0.00  0.00    +0.012 C 
ATOM     10  C   UNL     1      17.202  -4.771  24.041  0.00  0.00    +0.024 C 
ATOM     12  C   UNL     1      17.553  -4.671  25.518  0.00  0.00    -0.073 C 
ATOM     13  C   UNL     1      18.347  -3.699  26.003  0.00  0.00    -0.023 C 
ATOM     18  C   UNL     1      16.929  -5.674  26.450  0.00  0.00    +0.039 C 
ENDROOT
BRANCH   7  11
ATOM     11  C   UNL     1      16.961  -1.653  23.902  0.00  0.00    -0.013 C 
ATOM     16  C   UNL     1      17.164  -0.402  24.751  0.00  0.00    +0.007 C 
ATOM     17  C   UNL     1      16.446  -1.288  22.514  0.00  0.00    +0.007 C 
ENDBRANCH   7  11
BRANCH   8  14
ATOM     14  C   UNL     1      20.460  -2.839  25.037  0.00  0.00    +0.092 C 
BRANCH  14   2
ATOM      2  N   UNL     1      21.202  -2.004  25.967  0.00  0.00    -0.304 NA
ATOM     21  C   UNL     1      22.614  -2.395  26.004  0.00  0.00    +0.104 C 
BRANCH   2  20
ATOM     20  C   UNL     1      21.081  -0.589  25.607  0.00  0.00    +0.099 C 
BRANCH  20  22
ATOM     22  C   UNL     1      22.448  -0.012  25.249  0.00  0.00    +0.134 C 
BRANCH  22  24
ATOM      5  N   UNL     1      22.330   2.604  25.008  0.00  0.00    -0.197 NA
ATOM     24  C   UNL     1      22.383   1.450  25.114  0.00  0.00    +0.064 C 
ENDBRANCH  22  24
ENDBRANCH  20  22
ENDBRANCH   2  20
ENDBRANCH  14   2
ENDBRANCH   8  14
BRANCH  10  15
ATOM     15  C   UNL     1      17.336  -6.197  23.492  0.00  0.00    +0.105 C 
BRANCH  15  19
ATOM      1  O   UNL     1      19.748  -6.469  23.736  0.00  0.00    -0.420 OA
ATOM      3  N   UNL     1      19.023  -6.590  21.624  0.00  0.00    -0.112 NA
ATOM      4  N   UNL     1      20.395  -6.759  21.615  0.00  0.00    -0.107 NA
ATOM     19  C   UNL     1      18.689  -6.424  22.882  0.00  0.00    +0.218 A 
ATOM     23  C   UNL     1      20.776  -6.681  22.868  0.00  0.00    +0.250 A 
BRANCH  23  25
ATOM      6  N   UNL     1      23.943  -8.176  24.115  0.00  0.00    -0.263 NA
ATOM     25  C   UNL     1      22.081  -6.783  23.454  0.00  0.00    +0.057 A 
ATOM     26  C   UNL     1      22.751  -5.656  23.916  0.00  0.00    +0.016 A 
ATOM     27  C   UNL     1      22.715  -8.009  23.575  0.00  0.00    +0.124 A 
ATOM     28  C   UNL     1      24.016  -5.787  24.478  0.00  0.00    +0.020 A 
ATOM     29  C   UNL     1      24.563  -7.058  24.554  0.00  0.00    +0.111 A 
ENDBRANCH  23  25
ENDBRANCH  15  19
ENDBRANCH  10  15
TORSDOF 9
ENDMDL
MODEL 10
REMARK VINA RESULT:      -5.5     29.243     33.155
REMARK  Name = 38030429
REMARK  13 active torsions:
REMARK  status: ('A' for Active; 'I' for Inactive)
REMARK    1  A    between atoms: N_2  and  C_14
REMARK    2  A    between atoms: N_2  and  C_20
REMARK    3  A    between atoms: N_2  and  C_21
REMARK    4  A    between atoms: C_7  and  C_11
REMARK    5  A    between atoms: C_8  and  C_14
REMARK    6  A    between atoms: C_10  and  C_15
REMARK    7  A    between atoms: C_11  and  C_16
REMARK    8  A    between atoms: C_11  and  C_17
REMARK    9  A    between atoms: C_12  and  C_18
REMARK   10  A    between atoms: C_15  and  C_19
REMARK   11  A    between atoms: C_20  and  C_22
REMARK   12  A    between atoms: C_22  and  C_24
REMARK   13  A    between atoms: C_23  and  C_25
REMARK                            x       y       z     vdW  Elec       q    Type
REMARK                         _______ _______ _______ _____ _____    ______ ____
ROOT
ATOM      7  C   UNL     1      -8.823  -9.696  17.758  0.00  0.00    +0.000 C 
ATOM      8  C   UNL     1      -8.078 -10.242  16.518  0.00  0.00    +0.029 C 
ATOM      9  C   UNL     1      -9.328  -8.269  17.498  0.00  0.00    +0.012 C 
ATOM     10  C   UNL     1     -10.244  -8.161  16.261  0.00  0.00    +0.024 C 
ATOM     12  C   UNL     1      -9.776  -9.022  15.097  0.00  0.00    -0.073 C 
ATOM     13  C   UNL     1      -8.799  -9.938  15.229  0.00  0.00    -0.023 C 
ATOM     18  C   UNL     1     -10.490  -8.861  13.782  0.00  0.00    +0.039 C 
ENDROOT
BRANCH   7  11
ATOM     11  C   UNL     1      -9.973 -10.624  18.174  0.00  0.00    -0.013 C 
ATOM     16  C   UNL     1      -9.506 -12.076  18.184  0.00  0.00    +0.007 C 
ATOM     17  C   UNL     1     -10.513 -10.220  19.542  0.00  0.00    +0.007 C 
ENDBRANCH   7  11
BRANCH   8  14
ATOM     14  C   UNL     1      -6.647  -9.701  16.433  0.00  0.00    +0.092 C 
BRANCH  14   2
ATOM      2  N   UNL     1      -5.686 -10.791  16.428  0.00  0.00    -0.304 NA
ATOM     21  C   UNL     1      -5.065 -10.931  15.108  0.00  0.00    +0.104 C 
BRANCH   2  20
ATOM     20  C   UNL     1      -4.656 -10.583  17.449  0.00  0.00    +0.099 C 
BRANCH  20  22
ATOM     22  C   UNL     1      -4.753 -11.656  18.529  0.00  0.00    +0.134 C 
BRANCH  22  24
ATOM      5  N   UNL     1      -6.618 -11.059  20.284  0.00  0.00    -0.197 NA
ATOM     24  C   UNL     1      -5.796 -11.324  19.510  0.00  0.00    +0.064 C 
ENDBRANCH  22  24
ENDBRANCH  20  22
ENDBRANCH   2  20
ENDBRANCH  14   2
ENDBRANCH   8  14
BRANCH  10  15
ATOM     15  C   UNL     1     -10.388  -6.680  15.886  0.00  0.00    +0.105 C 
BRANCH  15  19
ATOM      1  O   UNL     1     -11.849  -5.540  14.298  0.00  0.00    -0.420 OA
ATOM      3  N   UNL     1     -12.931  -6.800  15.797  0.00  0.00    -0.112 NA
ATOM      4  N   UNL     1     -13.872  -6.217  14.968  0.00  0.00    -0.107 NA
ATOM     19  C   UNL     1     -11.765  -6.377  15.369  0.00  0.00    +0.218 A 
ATOM     23  C   UNL     1     -13.196  -5.491  14.109  0.00  0.00    +0.250 A 
BRANCH  23  25
ATOM      6  N   UNL     1     -15.493  -3.705  11.795  0.00  0.00    -0.263 NA
ATOM     25  C   UNL     1     -13.648  -4.671  13.024  0.00  0.00    +0.057 A 
ATOM     26  C   UNL     1     -12.744  -4.055  12.165  0.00  0.00    +0.016 A 
ATOM     27  C   UNL     1     -14.999  -4.465  12.798  0.00  0.00    +0.124 A 
ATOM     28  C   UNL     1     -13.213  -3.265  11.121  0.00  0.00    +0.020 A 
ATOM     29  C   UNL     1     -14.584  -3.124  10.981  0.00  0.00    +0.111 A 
ENDBRANCH  23  25
ENDBRANCH  15  19
ENDBRANCH  10  15
TORSDOF 9
ENDMDL
