MODEL 1
REMARK VINA RESULT:      -6.4      0.000      0.000
REMARK  Name = 38031161
REMARK  14 active torsions:
REMARK  status: ('A' for Active; 'I' for Inactive)
REMARK    1  A    between atoms: O_2  and  C_23
REMARK    2  A    between atoms: N_3  and  C_11
REMARK    3  A    between atoms: C_6  and  C_10
REMARK    4  A    between atoms: C_7  and  C_11
REMARK    5  A    between atoms: C_9  and  C_17
REMARK    6  A    between atoms: C_10  and  C_20
REMARK    7  A    between atoms: C_10  and  C_21
REMARK    8  A    between atoms: C_13  and  C_22
REMARK    9  A    between atoms: C_16  and  C_23
REMARK   10  A    between atoms: C_17  and  C_24
REMARK   11  A    between atoms: C_25  and  C_26
REMARK   12  A    between atoms: C_26  and  C_27
REMARK   13  A    between atoms: C_26  and  C_28
REMARK   14  A    between atoms: C_26  and  C_29
REMARK                            x       y       z     vdW  Elec       q    Type
REMARK                         _______ _______ _______ _____ _____    ______ ____
ROOT
ATOM      6  C   UNL     1      -5.147 -11.983  15.301  0.00  0.00    +0.000 C 
ATOM      7  C   UNL     1      -4.848 -11.049  16.496  0.00  0.00    +0.029 C 
ATOM      8  C   UNL     1      -4.475 -11.456  14.024  0.00  0.00    +0.012 C 
ATOM      9  C   UNL     1      -2.949 -11.276  14.168  0.00  0.00    +0.024 C 
ATOM     12  C   UNL     1      -3.405 -10.617  16.547  0.00  0.00    -0.023 C 
ATOM     13  C   UNL     1      -2.538 -10.720  15.523  0.00  0.00    -0.073 C 
ATOM     22  C   UNL     1      -1.095 -10.339  15.710  0.00  0.00    +0.039 C 
ENDROOT
BRANCH   6  10
ATOM     10  C   UNL     1      -4.718 -13.427  15.598  0.00  0.00    -0.013 C 
ATOM     20  C   UNL     1      -5.352 -13.913  16.897  0.00  0.00    +0.007 C 
ATOM     21  C   UNL     1      -5.091 -14.342  14.438  0.00  0.00    +0.007 C 
ENDBRANCH   6  10
BRANCH   7  11
ATOM     11  C   UNL     1      -5.745  -9.806  16.481  0.00  0.00    +0.092 C 
BRANCH  11   3
ATOM      3  N   UNL     1      -6.820  -9.935  17.466  0.00  0.00    -0.302 NA
ATOM     14  C   UNL     1      -6.446 -10.897  18.511  0.00  0.00    +0.085 C 
ATOM     15  C   UNL     1      -8.074 -10.326  16.809  0.00  0.00    +0.085 C 
ATOM     16  C   UNL     1      -8.889 -11.379  18.959  0.00  0.00    +0.017 C 
ATOM     18  C   UNL     1      -7.538 -11.004  19.579  0.00  0.00    +0.021 C 
ATOM     19  C   UNL     1      -9.221 -10.412  17.818  0.00  0.00    +0.021 C 
BRANCH  16  23
ATOM     23  C   UNL     1      -9.992 -11.386  20.013  0.00  0.00    +0.159 C 
BRANCH  23   2
ATOM      2  O   UNL     1     -10.015 -10.122  20.650  0.00  0.00    -0.395 OA
ATOM     30  H   UNL     1     -10.334  -9.477  19.997  0.00  0.00    +0.209 HD
ENDBRANCH  23   2
ENDBRANCH  16  23
ENDBRANCH  11   3
ENDBRANCH   7  11
BRANCH   9  17
ATOM     17  C   UNL     1      -2.444 -10.423  12.996  0.00  0.00    +0.105 C 
BRANCH  17  24
ATOM      1  O   UNL     1      -4.015  -9.853  11.218  0.00  0.00    -0.424 OA
ATOM      4  N   UNL     1      -3.059 -11.861  10.985  0.00  0.00    -0.112 NA
ATOM      5  N   UNL     1      -3.916 -11.670   9.918  0.00  0.00    -0.112 NA
ATOM     24  C   UNL     1      -3.149 -10.776  11.717  0.00  0.00    +0.218 A 
ATOM     25  C   UNL     1      -4.452 -10.485  10.095  0.00  0.00    +0.223 A 
BRANCH  25  26
ATOM     26  C   UNL     1      -5.430  -9.767   9.267  0.00  0.00    +0.040 C 
ATOM     27  C   UNL     1      -5.464  -8.232   9.594  0.00  0.00    +0.020 C 
ATOM     28  C   UNL     1      -6.888 -10.304   9.478  0.00  0.00    +0.020 C 
ATOM     29  C   UNL     1      -5.204  -9.834   7.710  0.00  0.00    +0.020 C 
ENDBRANCH  25  26
ENDBRANCH  17  24
ENDBRANCH   9  17
TORSDOF 8
ENDMDL
MODEL 2
REMARK VINA RESULT:      -6.2     19.765     22.729
REMARK  Name = 38031161
REMARK  14 active torsions:
REMARK  status: ('A' for Active; 'I' for Inactive)
REMARK    1  A    between atoms: O_2  and  C_23
REMARK    2  A    between atoms: N_3  and  C_11
REMARK    3  A    between atoms: C_6  and  C_10
REMARK    4  A    between atoms: C_7  and  C_11
REMARK    5  A    between atoms: C_9  and  C_17
REMARK    6  A    between atoms: C_10  and  C_20
REMARK    7  A    between atoms: C_10  and  C_21
REMARK    8  A    between atoms: C_13  and  C_22
REMARK    9  A    between atoms: C_16  and  C_23
REMARK   10  A    between atoms: C_17  and  C_24
REMARK   11  A    between atoms: C_25  and  C_26
REMARK   12  A    between atoms: C_26  and  C_27
REMARK   13  A    between atoms: C_26  and  C_28
REMARK   14  A    between atoms: C_26  and  C_29
REMARK                            x       y       z     vdW  Elec       q    Type
REMARK                         _______ _______ _______ _____ _____    ______ ____
ROOT
ATOM      6  C   UNL     1     -13.802  10.196  21.968  0.00  0.00    +0.000 C 
ATOM      7  C   UNL     1     -12.357  10.143  21.421  0.00  0.00    +0.029 C 
ATOM      8  C   UNL     1     -14.703   9.215  21.204  0.00  0.00    +0.012 C 
ATOM      9  C   UNL     1     -14.191   7.759  21.243  0.00  0.00    +0.024 C 
ATOM     12  C   UNL     1     -11.877   8.733  21.184  0.00  0.00    -0.023 C 
ATOM     13  C   UNL     1     -12.679   7.655  21.113  0.00  0.00    -0.073 C 
ATOM     22  C   UNL     1     -12.087   6.280  20.961  0.00  0.00    +0.039 C 
ENDROOT
BRANCH   6  10
ATOM     10  C   UNL     1     -13.839   9.922  23.478  0.00  0.00    -0.013 C 
ATOM     20  C   UNL     1     -12.809  10.785  24.200  0.00  0.00    +0.007 C 
ATOM     21  C   UNL     1     -15.237  10.173  24.030  0.00  0.00    +0.007 C 
ENDBRANCH   6  10
BRANCH   7  11
ATOM     11  C   UNL     1     -12.212  10.948  20.125  0.00  0.00    +0.092 C 
BRANCH  11   3
ATOM      3  N   UNL     1     -11.778  10.083  19.027  0.00  0.00    -0.302 NA
ATOM     14  C   UNL     1     -10.574  10.631  18.388  0.00  0.00    +0.085 C 
ATOM     15  C   UNL     1     -12.862   9.907  18.052  0.00  0.00    +0.085 C 
ATOM     16  C   UNL     1     -11.169   9.455  16.229  0.00  0.00    +0.017 C 
ATOM     18  C   UNL     1     -10.075   9.710  17.271  0.00  0.00    +0.021 C 
ATOM     19  C   UNL     1     -12.442   8.962  16.924  0.00  0.00    +0.021 C 
BRANCH  16  23
ATOM     23  C   UNL     1     -10.698   8.459  15.173  0.00  0.00    +0.159 C 
BRANCH  23   2
ATOM      2  O   UNL     1     -10.151   7.331  15.830  0.00  0.00    -0.395 OA
ATOM     30  H   UNL     1      -9.803   7.636  16.684  0.00  0.00    +0.209 HD
ENDBRANCH  23   2
ENDBRANCH  16  23
ENDBRANCH  11   3
ENDBRANCH   7  11
BRANCH   9  17
ATOM     17  C   UNL     1     -14.938   6.949  20.175  0.00  0.00    +0.105 C 
BRANCH  17  24
ATOM      1  O   UNL     1     -15.641   5.677  22.135  0.00  0.00    -0.424 OA
ATOM      4  N   UNL     1     -16.620   5.036  20.229  0.00  0.00    -0.112 NA
ATOM      5  N   UNL     1     -17.107   4.240  21.248  0.00  0.00    -0.112 NA
ATOM     24  C   UNL     1     -15.768   5.860  20.793  0.00  0.00    +0.218 A 
ATOM     25  C   UNL     1     -16.508   4.649  22.342  0.00  0.00    +0.223 A 
BRANCH  25  26
ATOM     26  C   UNL     1     -16.645   4.164  23.721  0.00  0.00    +0.040 C 
ATOM     27  C   UNL     1     -17.478   5.152  24.612  0.00  0.00    +0.020 C 
ATOM     28  C   UNL     1     -15.255   3.988  24.425  0.00  0.00    +0.020 C 
ATOM     29  C   UNL     1     -17.359   2.773  23.901  0.00  0.00    +0.020 C 
ENDBRANCH  25  26
ENDBRANCH  17  24
ENDBRANCH   9  17
TORSDOF 8
ENDMDL
MODEL 3
REMARK VINA RESULT:      -6.2      2.530      4.096
REMARK  Name = 38031161
REMARK  14 active torsions:
REMARK  status: ('A' for Active; 'I' for Inactive)
REMARK    1  A    between atoms: O_2  and  C_23
REMARK    2  A    between atoms: N_3  and  C_11
REMARK    3  A    between atoms: C_6  and  C_10
REMARK    4  A    between atoms: C_7  and  C_11
REMARK    5  A    between atoms: C_9  and  C_17
REMARK    6  A    between atoms: C_10  and  C_20
REMARK    7  A    between atoms: C_10  and  C_21
REMARK    8  A    between atoms: C_13  and  C_22
REMARK    9  A    between atoms: C_16  and  C_23
REMARK   10  A    between atoms: C_17  and  C_24
REMARK   11  A    between atoms: C_25  and  C_26
REMARK   12  A    between atoms: C_26  and  C_27
REMARK   13  A    between atoms: C_26  and  C_28
REMARK   14  A    between atoms: C_26  and  C_29
REMARK                            x       y       z     vdW  Elec       q    Type
REMARK                         _______ _______ _______ _____ _____    ______ ____
ROOT
ATOM      6  C   UNL     1      -7.672 -11.909  17.187  0.00  0.00    +0.000 C 
ATOM      7  C   UNL     1      -7.706 -11.918  18.733  0.00  0.00    +0.029 C 
ATOM      8  C   UNL     1      -6.524 -11.025  16.679  0.00  0.00    +0.012 C 
ATOM      9  C   UNL     1      -5.142 -11.448  17.221  0.00  0.00    +0.024 C 
ATOM     12  C   UNL     1      -6.335 -12.068  19.342  0.00  0.00    -0.023 C 
ATOM     13  C   UNL     1      -5.179 -11.874  18.681  0.00  0.00    -0.073 C 
ATOM     22  C   UNL     1      -3.863 -12.137  19.362  0.00  0.00    +0.039 C 
ENDROOT
BRANCH   6  10
ATOM     10  C   UNL     1      -7.569 -13.333  16.621  0.00  0.00    -0.013 C 
ATOM     20  C   UNL     1      -8.774 -14.164  17.051  0.00  0.00    +0.007 C 
ATOM     21  C   UNL     1      -7.452 -13.294  15.102  0.00  0.00    +0.007 C 
ENDBRANCH   6  10
BRANCH   7  11
ATOM     11  C   UNL     1      -8.369 -10.655  19.293  0.00  0.00    +0.092 C 
BRANCH  11   3
ATOM      3  N   UNL     1      -9.567 -10.999  20.059  0.00  0.00    -0.302 NA
ATOM     14  C   UNL     1      -9.824 -12.443  19.990  0.00  0.00    +0.085 C 
ATOM     15  C   UNL     1     -10.723 -10.231  19.578  0.00  0.00    +0.085 C 
ATOM     16  C   UNL     1     -12.287 -12.038  20.404  0.00  0.00    +0.017 C 
ATOM     18  C   UNL     1     -11.044 -12.827  20.832  0.00  0.00    +0.021 C 
ATOM     19  C   UNL     1     -11.973 -10.539  20.405  0.00  0.00    +0.021 C 
BRANCH  16  23
ATOM     23  C   UNL     1     -13.473 -12.352  21.311  0.00  0.00    +0.159 C 
BRANCH  23   2
ATOM      2  O   UNL     1     -13.123 -12.023  22.642  0.00  0.00    -0.395 OA
ATOM     30  H   UNL     1     -13.450 -12.739  23.211  0.00  0.00    +0.209 HD
ENDBRANCH  23   2
ENDBRANCH  16  23
ENDBRANCH  11   3
ENDBRANCH   7  11
BRANCH   9  17
ATOM     17  C   UNL     1      -4.145 -10.313  16.957  0.00  0.00    +0.105 C 
BRANCH  17  24
ATOM      1  O   UNL     1      -3.746 -10.479  14.555  0.00  0.00    -0.424 OA
ATOM      4  N   UNL     1      -1.993 -11.061  15.816  0.00  0.00    -0.112 NA
ATOM      5  N   UNL     1      -1.630 -11.200  14.490  0.00  0.00    -0.112 NA
ATOM     24  C   UNL     1      -3.235 -10.638  15.806  0.00  0.00    +0.218 A 
ATOM     25  C   UNL     1      -2.684 -10.850  13.789  0.00  0.00    +0.223 A 
BRANCH  25  26
ATOM     26  C   UNL     1      -2.866 -10.802  12.333  0.00  0.00    +0.040 C 
ATOM     27  C   UNL     1      -2.883 -12.235  11.695  0.00  0.00    +0.020 C 
ATOM     28  C   UNL     1      -1.718 -10.006  11.622  0.00  0.00    +0.020 C 
ATOM     29  C   UNL     1      -4.193 -10.126  11.822  0.00  0.00    +0.020 C 
ENDBRANCH  25  26
ENDBRANCH  17  24
ENDBRANCH   9  17
TORSDOF 8
ENDMDL
MODEL 4
REMARK VINA RESULT:      -6.1     22.340     27.156
REMARK  Name = 38031161
REMARK  14 active torsions:
REMARK  status: ('A' for Active; 'I' for Inactive)
REMARK    1  A    between atoms: O_2  and  C_23
REMARK    2  A    between atoms: N_3  and  C_11
REMARK    3  A    between atoms: C_6  and  C_10
REMARK    4  A    between atoms: C_7  and  C_11
REMARK    5  A    between atoms: C_9  and  C_17
REMARK    6  A    between atoms: C_10  and  C_20
REMARK    7  A    between atoms: C_10  and  C_21
REMARK    8  A    between atoms: C_13  and  C_22
REMARK    9  A    between atoms: C_16  and  C_23
REMARK   10  A    between atoms: C_17  and  C_24
REMARK   11  A    between atoms: C_25  and  C_26
REMARK   12  A    between atoms: C_26  and  C_27
REMARK   13  A    between atoms: C_26  and  C_28
REMARK   14  A    between atoms: C_26  and  C_29
REMARK                            x       y       z     vdW  Elec       q    Type
REMARK                         _______ _______ _______ _____ _____    ______ ____
ROOT
ATOM      6  C   UNL     1     -14.962   5.347  32.797  0.00  0.00    +0.000 C 
ATOM      7  C   UNL     1     -16.050   5.651  31.741  0.00  0.00    +0.029 C 
ATOM      8  C   UNL     1     -13.729   6.232  32.569  0.00  0.00    +0.012 C 
ATOM      9  C   UNL     1     -14.050   7.742  32.582  0.00  0.00    +0.024 C 
ATOM     12  C   UNL     1     -16.235   7.129  31.509  0.00  0.00    -0.023 C 
ATOM     13  C   UNL     1     -15.360   8.079  31.886  0.00  0.00    -0.073 C 
ATOM     22  C   UNL     1     -15.686   9.533  31.683  0.00  0.00    +0.039 C 
ENDROOT
BRANCH   6  10
ATOM     10  C   UNL     1     -15.507   5.510  34.223  0.00  0.00    -0.013 C 
ATOM     20  C   UNL     1     -16.910   4.919  34.327  0.00  0.00    +0.007 C 
ATOM     21  C   UNL     1     -14.568   4.854  35.229  0.00  0.00    +0.007 C 
ENDBRANCH   6  10
BRANCH   7  11
ATOM     11  C   UNL     1     -15.748   4.966  30.404  0.00  0.00    +0.092 C 
BRANCH  11   3
ATOM      3  N   UNL     1     -15.395   3.561  30.612  0.00  0.00    -0.302 NA
ATOM     14  C   UNL     1     -13.999   3.319  30.222  0.00  0.00    +0.085 C 
ATOM     15  C   UNL     1     -16.312   2.686  29.870  0.00  0.00    +0.085 C 
ATOM     16  C   UNL     1     -14.535   0.890  29.763  0.00  0.00    +0.017 C 
ATOM     18  C   UNL     1     -13.598   1.865  30.484  0.00  0.00    +0.021 C 
ATOM     19  C   UNL     1     -15.990   1.211  30.120  0.00  0.00    +0.021 C 
BRANCH  16  23
ATOM     23  C   UNL     1     -14.191  -0.556  30.108  0.00  0.00    +0.159 C 
BRANCH  23   2
ATOM      2  O   UNL     1     -15.348  -1.183  30.630  0.00  0.00    -0.395 OA
ATOM     30  H   UNL     1     -15.905  -0.485  31.012  0.00  0.00    +0.209 HD
ENDBRANCH  23   2
ENDBRANCH  16  23
ENDBRANCH  11   3
ENDBRANCH   7  11
BRANCH   9  17
ATOM     17  C   UNL     1     -12.852   8.501  31.996  0.00  0.00    +0.105 C 
BRANCH  17  24
ATOM      1  O   UNL     1     -12.131   8.544  34.327  0.00  0.00    -0.424 OA
ATOM      4  N   UNL     1     -11.057   9.998  33.011  0.00  0.00    -0.112 NA
ATOM      5  N   UNL     1     -10.554  10.128  34.291  0.00  0.00    -0.112 NA
ATOM     24  C   UNL     1     -11.975   9.063  33.079  0.00  0.00    +0.218 A 
ATOM     25  C   UNL     1     -11.210   9.260  35.026  0.00  0.00    +0.223 A 
BRANCH  25  26
ATOM     26  C   UNL     1     -11.085   8.963  36.458  0.00  0.00    +0.040 C 
ATOM     27  C   UNL     1      -9.609   8.611  36.859  0.00  0.00    +0.020 C 
ATOM     28  C   UNL     1     -11.971   7.741  36.885  0.00  0.00    +0.020 C 
ATOM     29  C   UNL     1     -11.498  10.117  37.446  0.00  0.00    +0.020 C 
ENDBRANCH  25  26
ENDBRANCH  17  24
ENDBRANCH   9  17
TORSDOF 8
ENDMDL
MODEL 5
REMARK VINA RESULT:      -6.1      1.682      7.816
REMARK  Name = 38031161
REMARK  14 active torsions:
REMARK  status: ('A' for Active; 'I' for Inactive)
REMARK    1  A    between atoms: O_2  and  C_23
REMARK    2  A    between atoms: N_3  and  C_11
REMARK    3  A    between atoms: C_6  and  C_10
REMARK    4  A    between atoms: C_7  and  C_11
REMARK    5  A    between atoms: C_9  and  C_17
REMARK    6  A    between atoms: C_10  and  C_20
REMARK    7  A    between atoms: C_10  and  C_21
REMARK    8  A    between atoms: C_13  and  C_22
REMARK    9  A    between atoms: C_16  and  C_23
REMARK   10  A    between atoms: C_17  and  C_24
REMARK   11  A    between atoms: C_25  and  C_26
REMARK   12  A    between atoms: C_26  and  C_27
REMARK   13  A    between atoms: C_26  and  C_28
REMARK   14  A    between atoms: C_26  and  C_29
REMARK                            x       y       z     vdW  Elec       q    Type
REMARK                         _______ _______ _______ _____ _____    ______ ____
ROOT
ATOM      6  C   UNL     1      -3.456 -10.526  15.307  0.00  0.00    +0.000 C 
ATOM      7  C   UNL     1      -4.521 -11.238  14.441  0.00  0.00    +0.029 C 
ATOM      8  C   UNL     1      -4.033 -10.171  16.685  0.00  0.00    +0.012 C 
ATOM      9  C   UNL     1      -4.584 -11.393  17.450  0.00  0.00    +0.024 C 
ATOM     12  C   UNL     1      -5.290 -12.282  15.210  0.00  0.00    -0.023 C 
ATOM     13  C   UNL     1      -5.322 -12.375  16.552  0.00  0.00    -0.073 C 
ATOM     22  C   UNL     1      -6.052 -13.510  17.216  0.00  0.00    +0.039 C 
ENDROOT
BRANCH   6  10
ATOM     10  C   UNL     1      -2.184 -11.376  15.440  0.00  0.00    -0.013 C 
ATOM     20  C   UNL     1      -1.875 -12.080  14.123  0.00  0.00    +0.007 C 
ATOM     21  C   UNL     1      -1.009 -10.509  15.879  0.00  0.00    +0.007 C 
ENDBRANCH   6  10
BRANCH   7  11
ATOM     11  C   UNL     1      -5.506 -10.241  13.822  0.00  0.00    +0.092 C 
BRANCH  11   3
ATOM      3  N   UNL     1      -5.489 -10.338  12.362  0.00  0.00    -0.302 NA
ATOM     14  C   UNL     1      -4.108 -10.295  11.862  0.00  0.00    +0.085 C 
ATOM     15  C   UNL     1      -6.302  -9.269  11.767  0.00  0.00    +0.085 C 
ATOM     16  C   UNL     1      -4.925  -9.381   9.649  0.00  0.00    +0.017 C 
ATOM     18  C   UNL     1      -4.069 -10.449  10.339  0.00  0.00    +0.021 C 
ATOM     19  C   UNL     1      -6.337  -9.387  10.242  0.00  0.00    +0.021 C 
BRANCH  16  23
ATOM     23  C   UNL     1      -4.961  -9.600   8.139  0.00  0.00    +0.159 C 
BRANCH  23   2
ATOM      2  O   UNL     1      -6.051  -8.872   7.605  0.00  0.00    -0.395 OA
ATOM     30  H   UNL     1      -5.686  -8.235   6.968  0.00  0.00    +0.209 HD
ENDBRANCH  23   2
ENDBRANCH  16  23
ENDBRANCH  11   3
ENDBRANCH   7  11
BRANCH   9  17
ATOM     17  C   UNL     1      -5.445 -10.892  18.617  0.00  0.00    +0.105 C 
BRANCH  17  24
ATOM      1  O   UNL     1      -7.881 -10.799  18.714  0.00  0.00    -0.424 OA
ATOM      4  N   UNL     1      -6.972  -9.408  17.218  0.00  0.00    -0.112 NA
ATOM      5  N   UNL     1      -8.344  -9.252  17.167  0.00  0.00    -0.112 NA
ATOM     24  C   UNL     1      -6.747 -10.321  18.134  0.00  0.00    +0.218 A 
ATOM     25  C   UNL     1      -8.834 -10.084  18.056  0.00  0.00    +0.223 A 
BRANCH  25  26
ATOM     26  C   UNL     1     -10.231 -10.337  18.431  0.00  0.00    +0.040 C 
ATOM     27  C   UNL     1     -10.791 -11.644  17.766  0.00  0.00    +0.020 C 
ATOM     28  C   UNL     1     -11.179  -9.167  17.994  0.00  0.00    +0.020 C 
ATOM     29  C   UNL     1     -10.514 -10.524  19.969  0.00  0.00    +0.020 C 
ENDBRANCH  25  26
ENDBRANCH  17  24
ENDBRANCH   9  17
TORSDOF 8
ENDMDL
MODEL 6
REMARK VINA RESULT:      -6.1      1.770      3.049
REMARK  Name = 38031161
REMARK  14 active torsions:
REMARK  status: ('A' for Active; 'I' for Inactive)
REMARK    1  A    between atoms: O_2  and  C_23
REMARK    2  A    between atoms: N_3  and  C_11
REMARK    3  A    between atoms: C_6  and  C_10
REMARK    4  A    between atoms: C_7  and  C_11
REMARK    5  A    between atoms: C_9  and  C_17
REMARK    6  A    between atoms: C_10  and  C_20
REMARK    7  A    between atoms: C_10  and  C_21
REMARK    8  A    between atoms: C_13  and  C_22
REMARK    9  A    between atoms: C_16  and  C_23
REMARK   10  A    between atoms: C_17  and  C_24
REMARK   11  A    between atoms: C_25  and  C_26
REMARK   12  A    between atoms: C_26  and  C_27
REMARK   13  A    between atoms: C_26  and  C_28
REMARK   14  A    between atoms: C_26  and  C_29
REMARK                            x       y       z     vdW  Elec       q    Type
REMARK                         _______ _______ _______ _____ _____    ______ ____
ROOT
ATOM      6  C   UNL     1      -3.969 -12.136  14.112  0.00  0.00    +0.000 C 
ATOM      7  C   UNL     1      -2.677 -11.495  14.668  0.00  0.00    +0.029 C 
ATOM      8  C   UNL     1      -4.697 -11.158  13.179  0.00  0.00    +0.012 C 
ATOM      9  C   UNL     1      -3.822 -10.666  12.007  0.00  0.00    +0.024 C 
ATOM     12  C   UNL     1      -1.892 -10.762  13.609  0.00  0.00    -0.023 C 
ATOM     13  C   UNL     1      -2.381 -10.394  12.411  0.00  0.00    -0.073 C 
ATOM     22  C   UNL     1      -1.484  -9.743  11.394  0.00  0.00    +0.039 C 
ENDROOT
BRANCH   6  10
ATOM     10  C   UNL     1      -3.674 -13.465  13.401  0.00  0.00    -0.013 C 
ATOM     20  C   UNL     1      -2.684 -14.294  14.214  0.00  0.00    +0.007 C 
ATOM     21  C   UNL     1      -4.965 -14.241  13.166  0.00  0.00    +0.007 C 
ENDBRANCH   6  10
BRANCH   7  11
ATOM     11  C   UNL     1      -2.973 -10.538  15.827  0.00  0.00    +0.092 C 
BRANCH  11   3
ATOM      3  N   UNL     1      -4.111 -11.016  16.613  0.00  0.00    -0.302 NA
ATOM     14  C   UNL     1      -5.101  -9.944  16.785  0.00  0.00    +0.085 C 
ATOM     15  C   UNL     1      -3.658 -11.534  17.911  0.00  0.00    +0.085 C 
ATOM     16  C   UNL     1      -5.923 -11.029  18.918  0.00  0.00    +0.017 C 
ATOM     18  C   UNL     1      -6.324 -10.443  17.560  0.00  0.00    +0.021 C 
ATOM     19  C   UNL     1      -4.831 -12.087  18.723  0.00  0.00    +0.021 C 
BRANCH  16  23
ATOM     23  C   UNL     1      -7.132 -11.614  19.641  0.00  0.00    +0.159 C 
BRANCH  23   2
ATOM      2  O   UNL     1      -8.075 -10.580  19.852  0.00  0.00    -0.395 OA
ATOM     30  H   UNL     1      -8.395 -10.300  18.978  0.00  0.00    +0.209 HD
ENDBRANCH  23   2
ENDBRANCH  16  23
ENDBRANCH  11   3
ENDBRANCH   7  11
BRANCH   9  17
ATOM     17  C   UNL     1      -4.501  -9.448  11.367  0.00  0.00    +0.105 C 
BRANCH  17  24
ATOM      1  O   UNL     1      -6.037  -9.179   9.490  0.00  0.00    -0.424 OA
ATOM      4  N   UNL     1      -4.221 -10.396   9.018  0.00  0.00    -0.112 NA
ATOM      5  N   UNL     1      -4.995 -10.325   7.876  0.00  0.00    -0.112 NA
ATOM     24  C   UNL     1      -4.867  -9.713   9.934  0.00  0.00    +0.218 A 
ATOM     25  C   UNL     1      -6.045  -9.605   8.197  0.00  0.00    +0.223 A 
BRANCH  25  26
ATOM     26  C   UNL     1      -7.193  -9.206   7.374  0.00  0.00    +0.040 C 
ATOM     27  C   UNL     1      -8.383 -10.222   7.491  0.00  0.00    +0.020 C 
ATOM     28  C   UNL     1      -6.824  -9.117   5.853  0.00  0.00    +0.020 C 
ATOM     29  C   UNL     1      -7.834  -7.807   7.708  0.00  0.00    +0.020 C 
ENDBRANCH  25  26
ENDBRANCH  17  24
ENDBRANCH   9  17
TORSDOF 8
ENDMDL
MODEL 7
REMARK VINA RESULT:      -5.9      2.437      3.685
REMARK  Name = 38031161
REMARK  14 active torsions:
REMARK  status: ('A' for Active; 'I' for Inactive)
REMARK    1  A    between atoms: O_2  and  C_23
REMARK    2  A    between atoms: N_3  and  C_11
REMARK    3  A    between atoms: C_6  and  C_10
REMARK    4  A    between atoms: C_7  and  C_11
REMARK    5  A    between atoms: C_9  and  C_17
REMARK    6  A    between atoms: C_10  and  C_20
REMARK    7  A    between atoms: C_10  and  C_21
REMARK    8  A    between atoms: C_13  and  C_22
REMARK    9  A    between atoms: C_16  and  C_23
REMARK   10  A    between atoms: C_17  and  C_24
REMARK   11  A    between atoms: C_25  and  C_26
REMARK   12  A    between atoms: C_26  and  C_27
REMARK   13  A    between atoms: C_26  and  C_28
REMARK   14  A    between atoms: C_26  and  C_29
REMARK                            x       y       z     vdW  Elec       q    Type
REMARK                         _______ _______ _______ _____ _____    ______ ____
ROOT
ATOM      6  C   UNL     1      -7.116 -12.019  16.966  0.00  0.00    +0.000 C 
ATOM      7  C   UNL     1      -7.184 -11.752  18.487  0.00  0.00    +0.029 C 
ATOM      8  C   UNL     1      -5.899 -11.314  16.349  0.00  0.00    +0.012 C 
ATOM      9  C   UNL     1      -4.562 -11.722  17.003  0.00  0.00    +0.024 C 
ATOM     12  C   UNL     1      -5.840 -11.879  19.158  0.00  0.00    -0.023 C 
ATOM     13  C   UNL     1      -4.659 -11.879  18.513  0.00  0.00    -0.073 C 
ATOM     22  C   UNL     1      -3.380 -12.100  19.273  0.00  0.00    +0.039 C 
ENDROOT
BRANCH   6  10
ATOM     10  C   UNL     1      -7.099 -13.524  16.662  0.00  0.00    -0.013 C 
ATOM     20  C   UNL     1      -8.203 -14.235  17.437  0.00  0.00    +0.007 C 
ATOM     21  C   UNL     1      -7.246 -13.766  15.164  0.00  0.00    +0.007 C 
ENDBRANCH   6  10
BRANCH   7  11
ATOM     11  C   UNL     1      -7.771 -10.370  18.794  0.00  0.00    +0.092 C 
BRANCH  11   3
ATOM      3  N   UNL     1      -8.913 -10.090  17.923  0.00  0.00    -0.302 NA
ATOM     14  C   UNL     1      -8.714  -8.821  17.209  0.00  0.00    +0.085 C 
ATOM     15  C   UNL     1     -10.159 -10.071  18.700  0.00  0.00    +0.085 C 
ATOM     16  C   UNL     1     -11.218  -8.536  16.992  0.00  0.00    +0.017 C 
ATOM     18  C   UNL     1      -9.876  -8.539  16.253  0.00  0.00    +0.021 C 
ATOM     19  C   UNL     1     -11.370  -9.832  17.795  0.00  0.00    +0.021 C 
BRANCH  16  23
ATOM     23  C   UNL     1     -12.379  -8.354  16.019  0.00  0.00    +0.159 C 
BRANCH  23   2
ATOM      2  O   UNL     1     -11.937  -7.562  14.932  0.00  0.00    -0.395 OA
ATOM     30  H   UNL     1     -11.244  -6.971  15.271  0.00  0.00    +0.209 HD
ENDBRANCH  23   2
ENDBRANCH  16  23
ENDBRANCH  11   3
ENDBRANCH   7  11
BRANCH   9  17
ATOM     17  C   UNL     1      -3.483 -10.717  16.577  0.00  0.00    +0.105 C 
BRANCH  17  24
ATOM      1  O   UNL     1      -3.597 -10.499  14.150  0.00  0.00    -0.424 OA
ATOM      4  N   UNL     1      -1.908 -11.774  14.876  0.00  0.00    -0.112 NA
ATOM      5  N   UNL     1      -1.852 -11.737  13.496  0.00  0.00    -0.112 NA
ATOM     24  C   UNL     1      -2.941 -11.038  15.213  0.00  0.00    +0.218 A 
ATOM     25  C   UNL     1      -2.857 -10.982  13.114  0.00  0.00    +0.223 A 
BRANCH  25  26
ATOM     26  C   UNL     1      -3.277 -10.595  11.762  0.00  0.00    +0.040 C 
ATOM     27  C   UNL     1      -4.658  -9.850  11.764  0.00  0.00    +0.020 C 
ATOM     28  C   UNL     1      -3.436 -11.837  10.817  0.00  0.00    +0.020 C 
ATOM     29  C   UNL     1      -2.308  -9.628  10.984  0.00  0.00    +0.020 C 
ENDBRANCH  25  26
ENDBRANCH  17  24
ENDBRANCH   9  17
TORSDOF 8
ENDMDL
MODEL 8
REMARK VINA RESULT:      -5.9      3.050      9.118
REMARK  Name = 38031161
REMARK  14 active torsions:
REMARK  status: ('A' for Active; 'I' for Inactive)
REMARK    1  A    between atoms: O_2  and  C_23
REMARK    2  A    between atoms: N_3  and  C_11
REMARK    3  A    between atoms: C_6  and  C_10
REMARK    4  A    between atoms: C_7  and  C_11
REMARK    5  A    between atoms: C_9  and  C_17
REMARK    6  A    between atoms: C_10  and  C_20
REMARK    7  A    between atoms: C_10  and  C_21
REMARK    8  A    between atoms: C_13  and  C_22
REMARK    9  A    between atoms: C_16  and  C_23
REMARK   10  A    between atoms: C_17  and  C_24
REMARK   11  A    between atoms: C_25  and  C_26
REMARK   12  A    between atoms: C_26  and  C_27
REMARK   13  A    between atoms: C_26  and  C_28
REMARK   14  A    between atoms: C_26  and  C_29
REMARK                            x       y       z     vdW  Elec       q    Type
REMARK                         _______ _______ _______ _____ _____    ______ ____
ROOT
ATOM      6  C   UNL     1      -5.658 -10.443  10.470  0.00  0.00    +0.000 C 
ATOM      7  C   UNL     1      -4.844 -10.026   9.224  0.00  0.00    +0.029 C 
ATOM      8  C   UNL     1      -4.772 -11.214  11.459  0.00  0.00    +0.012 C 
ATOM      9  C   UNL     1      -3.522 -10.424  11.902  0.00  0.00    +0.024 C 
ATOM     12  C   UNL     1      -3.484  -9.479   9.576  0.00  0.00    -0.023 C 
ATOM     13  C   UNL     1      -2.882  -9.636  10.769  0.00  0.00    -0.073 C 
ATOM     22  C   UNL     1      -1.560  -8.973  11.044  0.00  0.00    +0.039 C 
ENDROOT
BRANCH   6  10
ATOM     10  C   UNL     1      -6.313  -9.228  11.142  0.00  0.00    -0.013 C 
ATOM     20  C   UNL     1      -7.472  -8.712  10.295  0.00  0.00    +0.007 C 
ATOM     21  C   UNL     1      -6.787  -9.588  12.546  0.00  0.00    +0.007 C 
ENDBRANCH   6  10
BRANCH   7  11
ATOM     11  C   UNL     1      -4.679 -11.189   8.240  0.00  0.00    +0.092 C 
BRANCH  11   3
ATOM      3  N   UNL     1      -5.153 -10.810   6.909  0.00  0.00    -0.302 NA
ATOM     14  C   UNL     1      -6.216  -9.801   7.011  0.00  0.00    +0.085 C 
ATOM     15  C   UNL     1      -5.614 -11.993   6.171  0.00  0.00    +0.085 C 
ATOM     16  C   UNL     1      -7.154 -10.546   4.783  0.00  0.00    +0.017 C 
ATOM     18  C   UNL     1      -6.687  -9.354   5.624  0.00  0.00    +0.021 C 
ATOM     19  C   UNL     1      -6.063 -11.621   4.756  0.00  0.00    +0.021 C 
BRANCH  16  23
ATOM     23  C   UNL     1      -7.528 -10.106   3.370  0.00  0.00    +0.159 C 
BRANCH  23   2
ATOM      2  O   UNL     1      -7.269 -11.178   2.482  0.00  0.00    -0.395 OA
ATOM     30  H   UNL     1      -6.752 -11.838   2.971  0.00  0.00    +0.209 HD
ENDBRANCH  23   2
ENDBRANCH  16  23
ENDBRANCH  11   3
ENDBRANCH   7  11
BRANCH   9  17
ATOM     17  C   UNL     1      -2.545 -11.395  12.578  0.00  0.00    +0.105 C 
BRANCH  17  24
ATOM      1  O   UNL     1      -3.732 -11.499  14.708  0.00  0.00    -0.424 OA
ATOM      4  N   UNL     1      -1.592 -10.872  14.883  0.00  0.00    -0.112 NA
ATOM      5  N   UNL     1      -2.137 -10.889  16.153  0.00  0.00    -0.112 NA
ATOM     24  C   UNL     1      -2.559 -11.235  14.072  0.00  0.00    +0.218 A 
ATOM     25  C   UNL     1      -3.388 -11.260  16.003  0.00  0.00    +0.223 A 
BRANCH  25  26
ATOM     26  C   UNL     1      -4.435 -11.451  17.014  0.00  0.00    +0.040 C 
ATOM     27  C   UNL     1      -5.394 -10.214  17.109  0.00  0.00    +0.020 C 
ATOM     28  C   UNL     1      -3.836 -11.669  18.447  0.00  0.00    +0.020 C 
ATOM     29  C   UNL     1      -5.395 -12.680  16.796  0.00  0.00    +0.020 C 
ENDBRANCH  25  26
ENDBRANCH  17  24
ENDBRANCH   9  17
TORSDOF 8
ENDMDL
MODEL 9
REMARK VINA RESULT:      -5.8     19.761     21.412
REMARK  Name = 38031161
REMARK  14 active torsions:
REMARK  status: ('A' for Active; 'I' for Inactive)
REMARK    1  A    between atoms: O_2  and  C_23
REMARK    2  A    between atoms: N_3  and  C_11
REMARK    3  A    between atoms: C_6  and  C_10
REMARK    4  A    between atoms: C_7  and  C_11
REMARK    5  A    between atoms: C_9  and  C_17
REMARK    6  A    between atoms: C_10  and  C_20
REMARK    7  A    between atoms: C_10  and  C_21
REMARK    8  A    between atoms: C_13  and  C_22
REMARK    9  A    between atoms: C_16  and  C_23
REMARK   10  A    between atoms: C_17  and  C_24
REMARK   11  A    between atoms: C_25  and  C_26
REMARK   12  A    between atoms: C_26  and  C_27
REMARK   13  A    between atoms: C_26  and  C_28
REMARK   14  A    between atoms: C_26  and  C_29
REMARK                            x       y       z     vdW  Elec       q    Type
REMARK                         _______ _______ _______ _____ _____    ______ ____
ROOT
ATOM      6  C   UNL     1     -16.239   6.959  20.877  0.00  0.00    +0.000 C 
ATOM      7  C   UNL     1     -15.757   5.702  21.637  0.00  0.00    +0.029 C 
ATOM      8  C   UNL     1     -15.357   8.168  21.221  0.00  0.00    +0.012 C 
ATOM      9  C   UNL     1     -13.859   7.933  20.929  0.00  0.00    +0.024 C 
ATOM     12  C   UNL     1     -14.257   5.551  21.614  0.00  0.00    -0.023 C 
ATOM     13  C   UNL     1     -13.394   6.530  21.290  0.00  0.00    -0.073 C 
ATOM     22  C   UNL     1     -11.919   6.246  21.214  0.00  0.00    +0.039 C 
ENDROOT
BRANCH   6  10
ATOM     10  C   UNL     1     -16.280   6.715  19.361  0.00  0.00    -0.013 C 
ATOM     20  C   UNL     1     -17.190   5.534  19.038  0.00  0.00    +0.007 C 
ATOM     21  C   UNL     1     -16.743   7.971  18.632  0.00  0.00    +0.007 C 
ENDBRANCH   6  10
BRANCH   7  11
ATOM     11  C   UNL     1     -16.241   5.700  23.091  0.00  0.00    +0.092 C 
BRANCH  11   3
ATOM      3  N   UNL     1     -16.200   4.346  23.646  0.00  0.00    -0.302 NA
ATOM     14  C   UNL     1     -17.292   3.533  23.095  0.00  0.00    +0.085 C 
ATOM     15  C   UNL     1     -16.259   4.390  25.113  0.00  0.00    +0.085 C 
ATOM     16  C   UNL     1     -17.258   2.067  25.156  0.00  0.00    +0.017 C 
ATOM     18  C   UNL     1     -17.232   2.098  23.624  0.00  0.00    +0.021 C 
ATOM     19  C   UNL     1     -16.164   2.985  25.711  0.00  0.00    +0.021 C 
BRANCH  16  23
ATOM     23  C   UNL     1     -17.098   0.642  25.679  0.00  0.00    +0.159 C 
BRANCH  23   2
ATOM      2  O   UNL     1     -17.208  -0.253  24.588  0.00  0.00    -0.395 OA
ATOM     30  H   UNL     1     -16.391  -0.777  24.562  0.00  0.00    +0.209 HD
ENDBRANCH  23   2
ENDBRANCH  16  23
ENDBRANCH  11   3
ENDBRANCH   7  11
BRANCH   9  17
ATOM     17  C   UNL     1     -13.047   9.029  21.630  0.00  0.00    +0.105 C 
BRANCH  17  24
ATOM      1  O   UNL     1     -11.907   9.432  19.511  0.00  0.00    -0.424 OA
ATOM      4  N   UNL     1     -12.328  11.285  20.690  0.00  0.00    -0.112 NA
ATOM      5  N   UNL     1     -11.687  11.658  19.524  0.00  0.00    -0.112 NA
ATOM     24  C   UNL     1     -12.435   9.978  20.639  0.00  0.00    +0.218 A 
ATOM     25  C   UNL     1     -11.460  10.544  18.866  0.00  0.00    +0.223 A 
BRANCH  25  26
ATOM     26  C   UNL     1     -10.811  10.341  17.565  0.00  0.00    +0.040 C 
ATOM     27  C   UNL     1     -11.840  10.384  16.381  0.00  0.00    +0.020 C 
ATOM     28  C   UNL     1     -10.084   8.954  17.479  0.00  0.00    +0.020 C 
ATOM     29  C   UNL     1      -9.708  11.391  17.167  0.00  0.00    +0.020 C 
ENDBRANCH  25  26
ENDBRANCH  17  24
ENDBRANCH   9  17
TORSDOF 8
ENDMDL
MODEL 10
REMARK VINA RESULT:      -5.8     21.111     24.311
REMARK  Name = 38031161
REMARK  14 active torsions:
REMARK  status: ('A' for Active; 'I' for Inactive)
REMARK    1  A    between atoms: O_2  and  C_23
REMARK    2  A    between atoms: N_3  and  C_11
REMARK    3  A    between atoms: C_6  and  C_10
REMARK    4  A    between atoms: C_7  and  C_11
REMARK    5  A    between atoms: C_9  and  C_17
REMARK    6  A    between atoms: C_10  and  C_20
REMARK    7  A    between atoms: C_10  and  C_21
REMARK    8  A    between atoms: C_13  and  C_22
REMARK    9  A    between atoms: C_16  and  C_23
REMARK   10  A    between atoms: C_17  and  C_24
REMARK   11  A    between atoms: C_25  and  C_26
REMARK   12  A    between atoms: C_26  and  C_27
REMARK   13  A    between atoms: C_26  and  C_28
REMARK   14  A    between atoms: C_26  and  C_29
REMARK                            x       y       z     vdW  Elec       q    Type
REMARK                         _______ _______ _______ _____ _____    ______ ____
ROOT
ATOM      6  C   UNL     1     -13.209   7.219  20.667  0.00  0.00    +0.000 C 
ATOM      7  C   UNL     1     -13.307   7.735  19.213  0.00  0.00    +0.029 C 
ATOM      8  C   UNL     1     -12.634   8.306  21.586  0.00  0.00    +0.012 C 
ATOM      9  C   UNL     1     -13.445   9.619  21.560  0.00  0.00    +0.024 C 
ATOM     12  C   UNL     1     -13.857   9.136  19.131  0.00  0.00    -0.023 C 
ATOM     13  C   UNL     1     -13.937   9.988  20.169  0.00  0.00    -0.073 C 
ATOM     22  C   UNL     1     -14.585  11.335  19.995  0.00  0.00    +0.039 C 
ENDROOT
BRANCH   6  10
ATOM     10  C   UNL     1     -14.569   6.723  21.178  0.00  0.00    -0.013 C 
ATOM     20  C   UNL     1     -15.537   6.533  20.014  0.00  0.00    +0.007 C 
ATOM     21  C   UNL     1     -14.403   5.425  21.960  0.00  0.00    +0.007 C 
ENDBRANCH   6  10
BRANCH   7  11
ATOM     11  C   UNL     1     -11.951   7.684  18.501  0.00  0.00    +0.092 C 
BRANCH  11   3
ATOM      3  N   UNL     1     -11.612   8.993  17.944  0.00  0.00    -0.302 NA
ATOM     14  C   UNL     1     -11.307   8.878  16.511  0.00  0.00    +0.085 C 
ATOM     15  C   UNL     1     -10.488   9.590  18.678  0.00  0.00    +0.085 C 
ATOM     16  C   UNL     1      -9.856  10.945  16.639  0.00  0.00    +0.017 C 
ATOM     18  C   UNL     1     -11.002  10.248  15.900  0.00  0.00    +0.021 C 
ATOM     19  C   UNL     1     -10.155  10.983  18.141  0.00  0.00    +0.021 C 
BRANCH  16  23
ATOM     23  C   UNL     1      -9.623  12.350  16.090  0.00  0.00    +0.159 C 
BRANCH  23   2
ATOM      2  O   UNL     1     -10.073  12.389  14.748  0.00  0.00    -0.395 OA
ATOM     30  H   UNL     1     -10.436  11.512  14.541  0.00  0.00    +0.209 HD
ENDBRANCH  23   2
ENDBRANCH  16  23
ENDBRANCH  11   3
ENDBRANCH   7  11
BRANCH   9  17
ATOM     17  C   UNL     1     -12.603  10.727  22.207  0.00  0.00    +0.105 C 
BRANCH  17  24
ATOM      1  O   UNL     1     -11.952  10.791  24.558  0.00  0.00    -0.424 OA
ATOM      4  N   UNL     1     -14.124  11.186  24.199  0.00  0.00    -0.112 NA
ATOM      5  N   UNL     1     -13.897  11.253  25.561  0.00  0.00    -0.112 NA
ATOM     24  C   UNL     1     -12.961  10.914  23.654  0.00  0.00    +0.218 A 
ATOM     25  C   UNL     1     -12.616  11.016  25.724  0.00  0.00    +0.223 A 
BRANCH  25  26
ATOM     26  C   UNL     1     -11.824  10.965  26.960  0.00  0.00    +0.040 C 
ATOM     27  C   UNL     1     -12.499  10.069  28.056  0.00  0.00    +0.020 C 
ATOM     28  C   UNL     1     -11.633  12.387  27.594  0.00  0.00    +0.020 C 
ATOM     29  C   UNL     1     -10.363  10.392  26.825  0.00  0.00    +0.020 C 
ENDBRANCH  25  26
ENDBRANCH  17  24
ENDBRANCH   9  17
TORSDOF 8
ENDMDL
