MODEL 1
REMARK VINA RESULT:      -7.5      0.000      0.000
REMARK  Name = 45784359
REMARK  7 active torsions:
REMARK  status: ('A' for Active; 'I' for Inactive)
REMARK    1  A    between atoms: O_5  and  C_27
REMARK    2  A    between atoms: O_5  and  C_29
REMARK    3  A    between atoms: N_7  and  C_13
REMARK    4  A    between atoms: C_9  and  C_14
REMARK    5  A    between atoms: C_13  and  C_15
REMARK    6  A    between atoms: C_20  and  C_27
REMARK    7  A    between atoms: C_24  and  C_28
REMARK                            x       y       z     vdW  Elec       q    Type
REMARK                         _______ _______ _______ _____ _____    ______ ____
ROOT
ATOM      7  N   UNL     1      18.362   6.123  20.662  0.00  0.00    -0.297 NA
ATOM      9  C   UNL     1      16.133   6.598  21.219  0.00  0.00    +0.090 C 
ATOM     10  C   UNL     1      16.214   6.154  19.748  0.00  0.00    +0.029 C 
ATOM     11  C   UNL     1      17.582   6.930  21.604  0.00  0.00    +0.097 C 
ATOM     12  C   UNL     1      17.684   6.285  19.376  0.00  0.00    +0.085 C 
ENDROOT
BRANCH   9  14
ATOM      4  O   UNL     1      13.888   7.537  21.094  0.00  0.00    -0.439 OA
ATOM      8  N   UNL     1      15.427   8.897  22.054  0.00  0.00    -0.213 NA
ATOM     14  C   UNL     1      15.177   7.737  21.487  0.00  0.00    +0.201 A 
ATOM     16  C   UNL     1      13.261   8.696  21.453  0.00  0.00    +0.169 A 
ATOM     17  C   UNL     1      14.205   9.525  22.039  0.00  0.00    +0.110 A 
ATOM     20  C   UNL     1      11.921   9.021  21.276  0.00  0.00    +0.103 A 
ATOM     21  C   UNL     1      13.806  10.789  22.496  0.00  0.00    +0.031 A 
ATOM     25  C   UNL     1      11.539  10.285  21.739  0.00  0.00    +0.019 A 
ATOM     26  C   UNL     1      12.461  11.154  22.336  0.00  0.00    +0.003 A 
BRANCH  20  27
ATOM      6  O   UNL     1      10.565   7.062  21.173  0.00  0.00    -0.245 OA
ATOM     27  C   UNL     1      10.977   8.113  20.656  0.00  0.00    +0.343 C 
BRANCH  27   5
ATOM      5  O   UNL     1      10.585   8.555  19.420  0.00  0.00    -0.464 OA
ATOM     29  C   UNL     1      11.548   8.471  18.363  0.00  0.00    +0.280 C 
ENDBRANCH  27   5
ENDBRANCH  20  27
ENDBRANCH   9  14
BRANCH   7  13
ATOM     13  C   UNL     1      19.759   6.530  20.608  0.00  0.00    +0.119 C 
BRANCH  13  15
ATOM     15  C   UNL     1      20.667   5.497  21.220  0.00  0.00    -0.033 A 
ATOM     18  C   UNL     1      20.826   4.256  20.603  0.00  0.00    +0.005 A 
ATOM     19  C   UNL     1      21.350   5.780  22.403  0.00  0.00    +0.005 A 
ATOM     22  C   UNL     1      21.668   3.298  21.169  0.00  0.00    +0.012 A 
ATOM     23  C   UNL     1      22.191   4.822  22.969  0.00  0.00    +0.012 A 
ATOM     24  C   UNL     1      22.350   3.582  22.352  0.00  0.00    +0.055 A 
BRANCH  24  28
ATOM      1  F   UNL     1      22.665   1.832  23.953  0.00  0.00    -0.166 F 
ATOM      2  F   UNL     1      24.370   3.108  23.514  0.00  0.00    -0.166 F 
ATOM      3  F   UNL     1      23.707   1.632  22.061  0.00  0.00    -0.166 F 
ATOM     28  C   UNL     1      23.252   2.559  22.956  0.00  0.00    +0.417 C 
ENDBRANCH  24  28
ENDBRANCH  13  15
ENDBRANCH   7  13
TORSDOF 6
ENDMDL
MODEL 2
REMARK VINA RESULT:      -7.2      3.296      5.047
REMARK  Name = 45784359
REMARK  7 active torsions:
REMARK  status: ('A' for Active; 'I' for Inactive)
REMARK    1  A    between atoms: O_5  and  C_27
REMARK    2  A    between atoms: O_5  and  C_29
REMARK    3  A    between atoms: N_7  and  C_13
REMARK    4  A    between atoms: C_9  and  C_14
REMARK    5  A    between atoms: C_13  and  C_15
REMARK    6  A    between atoms: C_20  and  C_27
REMARK    7  A    between atoms: C_24  and  C_28
REMARK                            x       y       z     vdW  Elec       q    Type
REMARK                         _______ _______ _______ _____ _____    ______ ____
ROOT
ATOM      7  N   UNL     1      14.174   7.366  20.520  0.00  0.00    -0.297 NA
ATOM      9  C   UNL     1      13.072   8.899  21.913  0.00  0.00    +0.090 C 
ATOM     10  C   UNL     1      12.095   7.786  21.496  0.00  0.00    +0.029 C 
ATOM     11  C   UNL     1      14.247   8.769  20.934  0.00  0.00    +0.097 C 
ATOM     12  C   UNL     1      12.750   7.113  20.298  0.00  0.00    +0.085 C 
ENDROOT
BRANCH   9  14
ATOM      4  O   UNL     1      12.148  10.770  23.171  0.00  0.00    -0.439 OA
ATOM      8  N   UNL     1      12.240  11.094  20.930  0.00  0.00    -0.213 NA
ATOM     14  C   UNL     1      12.478  10.288  21.941  0.00  0.00    +0.201 A 
ATOM     16  C   UNL     1      11.649  12.013  22.905  0.00  0.00    +0.169 A 
ATOM     17  C   UNL     1      11.707  12.208  21.533  0.00  0.00    +0.110 A 
ATOM     20  C   UNL     1      11.162  12.941  23.818  0.00  0.00    +0.103 A 
ATOM     21  C   UNL     1      11.247  13.421  21.001  0.00  0.00    +0.031 A 
ATOM     25  C   UNL     1      10.709  14.146  23.271  0.00  0.00    +0.019 A 
ATOM     26  C   UNL     1      10.748  14.384  21.891  0.00  0.00    +0.003 A 
BRANCH  20  27
ATOM      6  O   UNL     1      10.582  11.698  25.768  0.00  0.00    -0.245 OA
ATOM     27  C   UNL     1      11.126  12.683  25.243  0.00  0.00    +0.343 C 
BRANCH  27   5
ATOM      5  O   UNL     1      11.770  13.662  25.953  0.00  0.00    -0.464 OA
ATOM     29  C   UNL     1      13.165  13.470  26.209  0.00  0.00    +0.280 C 
ENDBRANCH  27   5
ENDBRANCH  20  27
ENDBRANCH   9  14
BRANCH   7  13
ATOM     13  C   UNL     1      14.977   7.094  19.336  0.00  0.00    +0.119 C 
BRANCH  13  15
ATOM     15  C   UNL     1      16.377   6.674  19.694  0.00  0.00    -0.033 A 
ATOM     18  C   UNL     1      17.074   5.792  18.868  0.00  0.00    +0.005 A 
ATOM     19  C   UNL     1      16.980   7.167  20.853  0.00  0.00    +0.005 A 
ATOM     22  C   UNL     1      18.372   5.404  19.199  0.00  0.00    +0.012 A 
ATOM     23  C   UNL     1      18.277   6.777  21.184  0.00  0.00    +0.012 A 
ATOM     24  C   UNL     1      18.973   5.896  20.357  0.00  0.00    +0.055 A 
BRANCH  24  28
ATOM      1  F   UNL     1      20.681   4.221  20.289  0.00  0.00    -0.166 F 
ATOM      2  F   UNL     1      20.584   5.485  22.056  0.00  0.00    -0.166 F 
ATOM      3  F   UNL     1      21.327   6.289  20.177  0.00  0.00    -0.166 F 
ATOM     28  C   UNL     1      20.362   5.482  20.710  0.00  0.00    +0.417 C 
ENDBRANCH  24  28
ENDBRANCH  13  15
ENDBRANCH   7  13
TORSDOF 6
ENDMDL
MODEL 3
REMARK VINA RESULT:      -7.1     27.447     29.553
REMARK  Name = 45784359
REMARK  7 active torsions:
REMARK  status: ('A' for Active; 'I' for Inactive)
REMARK    1  A    between atoms: O_5  and  C_27
REMARK    2  A    between atoms: O_5  and  C_29
REMARK    3  A    between atoms: N_7  and  C_13
REMARK    4  A    between atoms: C_9  and  C_14
REMARK    5  A    between atoms: C_13  and  C_15
REMARK    6  A    between atoms: C_20  and  C_27
REMARK    7  A    between atoms: C_24  and  C_28
REMARK                            x       y       z     vdW  Elec       q    Type
REMARK                         _______ _______ _______ _____ _____    ______ ____
ROOT
ATOM      7  N   UNL     1      -1.970 -10.924  13.815  0.00  0.00    -0.297 NA
ATOM      9  C   UNL     1      -3.076 -10.178  15.744  0.00  0.00    +0.090 C 
ATOM     10  C   UNL     1      -1.689 -10.726  16.124  0.00  0.00    +0.029 C 
ATOM     11  C   UNL     1      -3.326 -10.707  14.324  0.00  0.00    +0.097 C 
ATOM     12  C   UNL     1      -1.247 -11.550  14.923  0.00  0.00    +0.085 C 
ENDROOT
BRANCH   9  14
ATOM      4  O   UNL     1      -5.411 -10.014  16.421  0.00  0.00    -0.439 OA
ATOM      8  N   UNL     1      -4.120 -11.279  17.789  0.00  0.00    -0.213 NA
ATOM     14  C   UNL     1      -4.185 -10.533  16.708  0.00  0.00    +0.201 A 
ATOM     16  C   UNL     1      -6.203 -10.486  17.429  0.00  0.00    +0.169 A 
ATOM     17  C   UNL     1      -5.409 -11.259  18.264  0.00  0.00    +0.110 A 
ATOM     20  C   UNL     1      -7.560 -10.254  17.617  0.00  0.00    +0.103 A 
ATOM     21  C   UNL     1      -5.993 -11.861  19.387  0.00  0.00    +0.031 A 
ATOM     25  C   UNL     1      -8.127 -10.863  18.742  0.00  0.00    +0.019 A 
ATOM     26  C   UNL     1      -7.363 -11.650  19.611  0.00  0.00    +0.003 A 
BRANCH  20  27
ATOM      6  O   UNL     1      -8.579  -9.726  15.527  0.00  0.00    -0.245 OA
ATOM     27  C   UNL     1      -8.341  -9.436  16.711  0.00  0.00    +0.343 C 
BRANCH  27   5
ATOM      5  O   UNL     1      -8.793  -8.294  17.318  0.00  0.00    -0.464 OA
ATOM     29  C   UNL     1     -10.069  -7.797  16.901  0.00  0.00    +0.280 C 
ENDBRANCH  27   5
ENDBRANCH  20  27
ENDBRANCH   9  14
BRANCH   7  13
ATOM     13  C   UNL     1      -1.955 -11.743  12.611  0.00  0.00    +0.119 C 
BRANCH  13  15
ATOM     15  C   UNL     1      -2.873 -11.195  11.550  0.00  0.00    -0.033 A 
ATOM     18  C   UNL     1      -3.953 -11.955  11.102  0.00  0.00    +0.005 A 
ATOM     19  C   UNL     1      -2.644  -9.926  11.016  0.00  0.00    +0.005 A 
ATOM     22  C   UNL     1      -4.804 -11.447  10.120  0.00  0.00    +0.012 A 
ATOM     23  C   UNL     1      -3.494  -9.419  10.034  0.00  0.00    +0.012 A 
ATOM     24  C   UNL     1      -4.574 -10.180   9.586  0.00  0.00    +0.055 A 
BRANCH  24  28
ATOM      1  F   UNL     1      -6.624 -10.371   8.368  0.00  0.00    -0.166 F 
ATOM      2  F   UNL     1      -4.897  -9.584   7.307  0.00  0.00    -0.166 F 
ATOM      3  F   UNL     1      -5.916  -8.365   8.792  0.00  0.00    -0.166 F 
ATOM     28  C   UNL     1      -5.485  -9.636   8.537  0.00  0.00    +0.417 C 
ENDBRANCH  24  28
ENDBRANCH  13  15
ENDBRANCH   7  13
TORSDOF 6
ENDMDL
MODEL 4
REMARK VINA RESULT:      -7.1      1.538      1.970
REMARK  Name = 45784359
REMARK  7 active torsions:
REMARK  status: ('A' for Active; 'I' for Inactive)
REMARK    1  A    between atoms: O_5  and  C_27
REMARK    2  A    between atoms: O_5  and  C_29
REMARK    3  A    between atoms: N_7  and  C_13
REMARK    4  A    between atoms: C_9  and  C_14
REMARK    5  A    between atoms: C_13  and  C_15
REMARK    6  A    between atoms: C_20  and  C_27
REMARK    7  A    between atoms: C_24  and  C_28
REMARK                            x       y       z     vdW  Elec       q    Type
REMARK                         _______ _______ _______ _____ _____    ______ ____
ROOT
ATOM      7  N   UNL     1      18.724   6.081  20.679  0.00  0.00    -0.297 NA
ATOM      9  C   UNL     1      16.396   6.253  20.902  0.00  0.00    +0.090 C 
ATOM     10  C   UNL     1      16.744   5.787  19.478  0.00  0.00    +0.029 C 
ATOM     11  C   UNL     1      17.717   6.795  21.467  0.00  0.00    +0.097 C 
ATOM     12  C   UNL     1      18.221   6.114  19.306  0.00  0.00    +0.085 C 
ENDROOT
BRANCH   9  14
ATOM      4  O   UNL     1      14.458   7.331  19.891  0.00  0.00    -0.439 OA
ATOM      8  N   UNL     1      14.959   8.059  21.978  0.00  0.00    -0.213 NA
ATOM     14  C   UNL     1      15.266   7.253  20.985  0.00  0.00    +0.201 A 
ATOM     16  C   UNL     1      13.545   8.287  20.234  0.00  0.00    +0.169 A 
ATOM     17  C   UNL     1      13.856   8.731  21.510  0.00  0.00    +0.110 A 
ATOM     20  C   UNL     1      12.486   8.757  19.467  0.00  0.00    +0.103 A 
ATOM     21  C   UNL     1      13.058   9.725  22.095  0.00  0.00    +0.031 A 
ATOM     25  C   UNL     1      11.700   9.748  20.065  0.00  0.00    +0.019 A 
ATOM     26  C   UNL     1      11.978  10.225  21.351  0.00  0.00    +0.003 A 
BRANCH  20  27
ATOM      6  O   UNL     1      12.133   7.054  17.836  0.00  0.00    -0.245 OA
ATOM     27  C   UNL     1      12.209   8.257  18.136  0.00  0.00    +0.343 C 
BRANCH  27   5
ATOM      5  O   UNL     1      12.035   9.275  17.236  0.00  0.00    -0.464 OA
ATOM     29  C   UNL     1      11.135   9.037  16.149  0.00  0.00    +0.280 C 
ENDBRANCH  27   5
ENDBRANCH  20  27
ENDBRANCH   9  14
BRANCH   7  13
ATOM     13  C   UNL     1      20.047   6.678  20.800  0.00  0.00    +0.119 C 
BRANCH  13  15
ATOM     15  C   UNL     1      21.134   5.637  20.786  0.00  0.00    -0.033 A 
ATOM     18  C   UNL     1      20.824   4.301  21.044  0.00  0.00    +0.005 A 
ATOM     19  C   UNL     1      22.452   6.007  20.515  0.00  0.00    +0.005 A 
ATOM     22  C   UNL     1      21.831   3.336  21.030  0.00  0.00    +0.012 A 
ATOM     23  C   UNL     1      23.459   5.042  20.503  0.00  0.00    +0.012 A 
ATOM     24  C   UNL     1      23.148   3.707  20.760  0.00  0.00    +0.055 A 
BRANCH  24  28
ATOM      1  F   UNL     1      24.787   2.489  19.512  0.00  0.00    -0.166 F 
ATOM      2  F   UNL     1      23.778   1.444  21.131  0.00  0.00    -0.166 F 
ATOM      3  F   UNL     1      25.272   2.962  21.573  0.00  0.00    -0.166 F 
ATOM     28  C   UNL     1      24.225   2.674  20.744  0.00  0.00    +0.417 C 
ENDBRANCH  24  28
ENDBRANCH  13  15
ENDBRANCH   7  13
TORSDOF 6
ENDMDL
MODEL 5
REMARK VINA RESULT:      -7.1     30.452     33.481
REMARK  Name = 45784359
REMARK  7 active torsions:
REMARK  status: ('A' for Active; 'I' for Inactive)
REMARK    1  A    between atoms: O_5  and  C_27
REMARK    2  A    between atoms: O_5  and  C_29
REMARK    3  A    between atoms: N_7  and  C_13
REMARK    4  A    between atoms: C_9  and  C_14
REMARK    5  A    between atoms: C_13  and  C_15
REMARK    6  A    between atoms: C_20  and  C_27
REMARK    7  A    between atoms: C_24  and  C_28
REMARK                            x       y       z     vdW  Elec       q    Type
REMARK                         _______ _______ _______ _____ _____    ______ ____
ROOT
ATOM      7  N   UNL     1     -16.968   4.139  24.095  0.00  0.00    -0.297 NA
ATOM      9  C   UNL     1     -16.305   2.944  26.001  0.00  0.00    +0.090 C 
ATOM     10  C   UNL     1     -17.707   2.482  25.565  0.00  0.00    +0.029 C 
ATOM     11  C   UNL     1     -16.083   4.267  25.255  0.00  0.00    +0.097 C 
ATOM     12  C   UNL     1     -18.208   3.573  24.628  0.00  0.00    +0.085 C 
ENDROOT
BRANCH   9  14
ATOM      4  O   UNL     1     -15.737   1.936  28.146  0.00  0.00    -0.439 OA
ATOM      8  N   UNL     1     -16.265   4.138  28.249  0.00  0.00    -0.213 NA
ATOM     14  C   UNL     1     -16.115   3.071  27.495  0.00  0.00    +0.201 A 
ATOM     16  C   UNL     1     -15.638   2.332  29.449  0.00  0.00    +0.169 A 
ATOM     17  C   UNL     1     -15.962   3.679  29.509  0.00  0.00    +0.110 A 
ATOM     20  C   UNL     1     -15.282   1.554  30.544  0.00  0.00    +0.103 A 
ATOM     21  C   UNL     1     -15.936   4.328  30.751  0.00  0.00    +0.031 A 
ATOM     25  C   UNL     1     -15.260   2.217  31.776  0.00  0.00    +0.019 A 
ATOM     26  C   UNL     1     -15.581   3.576  31.881  0.00  0.00    +0.003 A 
BRANCH  20  27
ATOM      6  O   UNL     1     -15.776  -0.779  30.506  0.00  0.00    -0.245 OA
ATOM     27  C   UNL     1     -14.953   0.148  30.423  0.00  0.00    +0.343 C 
BRANCH  27   5
ATOM      5  O   UNL     1     -13.615  -0.044  30.203  0.00  0.00    -0.464 OA
ATOM     29  C   UNL     1     -13.245  -1.121  29.335  0.00  0.00    +0.280 C 
ENDBRANCH  27   5
ENDBRANCH  20  27
ENDBRANCH   9  14
BRANCH   7  13
ATOM     13  C   UNL     1     -17.185   5.411  23.420  0.00  0.00    +0.119 C 
BRANCH  13  15
ATOM     15  C   UNL     1     -15.929   5.916  22.762  0.00  0.00    -0.033 A 
ATOM     18  C   UNL     1     -15.725   7.288  22.609  0.00  0.00    +0.005 A 
ATOM     19  C   UNL     1     -14.968   5.013  22.305  0.00  0.00    +0.005 A 
ATOM     22  C   UNL     1     -14.560   7.756  22.000  0.00  0.00    +0.012 A 
ATOM     23  C   UNL     1     -13.804   5.482  21.696  0.00  0.00    +0.012 A 
ATOM     24  C   UNL     1     -13.601   6.853  21.543  0.00  0.00    +0.055 A 
BRANCH  24  28
ATOM      1  F   UNL     1     -12.404   7.335  19.528  0.00  0.00    -0.166 F 
ATOM      2  F   UNL     1     -11.255   6.620  21.231  0.00  0.00    -0.166 F 
ATOM      3  F   UNL     1     -12.048   8.645  21.220  0.00  0.00    -0.166 F 
ATOM     28  C   UNL     1     -12.355   7.354  20.894  0.00  0.00    +0.417 C 
ENDBRANCH  24  28
ENDBRANCH  13  15
ENDBRANCH   7  13
TORSDOF 6
ENDMDL
MODEL 6
REMARK VINA RESULT:      -6.9      3.843      6.110
REMARK  Name = 45784359
REMARK  7 active torsions:
REMARK  status: ('A' for Active; 'I' for Inactive)
REMARK    1  A    between atoms: O_5  and  C_27
REMARK    2  A    between atoms: O_5  and  C_29
REMARK    3  A    between atoms: N_7  and  C_13
REMARK    4  A    between atoms: C_9  and  C_14
REMARK    5  A    between atoms: C_13  and  C_15
REMARK    6  A    between atoms: C_20  and  C_27
REMARK    7  A    between atoms: C_24  and  C_28
REMARK                            x       y       z     vdW  Elec       q    Type
REMARK                         _______ _______ _______ _____ _____    ______ ____
ROOT
ATOM      7  N   UNL     1      12.733   8.646  20.740  0.00  0.00    -0.297 NA
ATOM      9  C   UNL     1      11.722   9.546  22.657  0.00  0.00    +0.090 C 
ATOM     10  C   UNL     1      10.642   8.964  21.729  0.00  0.00    +0.029 C 
ATOM     11  C   UNL     1      12.973   9.657  21.773  0.00  0.00    +0.097 C 
ATOM     12  C   UNL     1      11.325   8.806  20.377  0.00  0.00    +0.085 C 
ENDROOT
BRANCH   9  14
ATOM      4  O   UNL     1      11.113  11.899  22.484  0.00  0.00    -0.439 OA
ATOM      8  N   UNL     1      11.232  11.109  24.605  0.00  0.00    -0.213 NA
ATOM     14  C   UNL     1      11.353  10.852  23.321  0.00  0.00    +0.201 A 
ATOM     16  C   UNL     1      10.806  12.924  23.333  0.00  0.00    +0.169 A 
ATOM     17  C   UNL     1      10.881  12.437  24.629  0.00  0.00    +0.110 A 
ATOM     20  C   UNL     1      10.477  14.231  22.995  0.00  0.00    +0.103 A 
ATOM     21  C   UNL     1      10.609  13.306  25.696  0.00  0.00    +0.031 A 
ATOM     25  C   UNL     1      10.207  15.084  24.070  0.00  0.00    +0.019 A 
ATOM     26  C   UNL     1      10.272  14.634  25.395  0.00  0.00    +0.003 A 
BRANCH  20  27
ATOM      6  O   UNL     1       9.363  14.847  20.978  0.00  0.00    -0.245 OA
ATOM     27  C   UNL     1      10.414  14.685  21.620  0.00  0.00    +0.343 C 
BRANCH  27   5
ATOM      5  O   UNL     1      11.661  14.920  21.105  0.00  0.00    -0.464 OA
ATOM     29  C   UNL     1      11.875  14.574  19.733  0.00  0.00    +0.280 C 
ENDBRANCH  27   5
ENDBRANCH  20  27
ENDBRANCH   9  14
BRANCH   7  13
ATOM     13  C   UNL     1      13.622   8.800  19.597  0.00  0.00    +0.119 C 
BRANCH  13  15
ATOM     15  C   UNL     1      14.948   8.124  19.824  0.00  0.00    -0.033 A 
ATOM     18  C   UNL     1      15.189   6.863  19.280  0.00  0.00    +0.005 A 
ATOM     19  C   UNL     1      15.935   8.760  20.577  0.00  0.00    +0.005 A 
ATOM     22  C   UNL     1      16.419   6.237  19.489  0.00  0.00    +0.012 A 
ATOM     23  C   UNL     1      17.164   8.133  20.787  0.00  0.00    +0.012 A 
ATOM     24  C   UNL     1      17.405   6.872  20.243  0.00  0.00    +0.055 A 
BRANCH  24  28
ATOM      1  F   UNL     1      18.970   5.911  21.776  0.00  0.00    -0.166 F 
ATOM      2  F   UNL     1      19.773   6.968  20.054  0.00  0.00    -0.166 F 
ATOM      3  F   UNL     1      18.849   5.015  19.805  0.00  0.00    -0.166 F 
ATOM     28  C   UNL     1      18.720   6.204  20.465  0.00  0.00    +0.417 C 
ENDBRANCH  24  28
ENDBRANCH  13  15
ENDBRANCH   7  13
TORSDOF 6
ENDMDL
MODEL 7
REMARK VINA RESULT:      -6.8      1.852      2.510
REMARK  Name = 45784359
REMARK  7 active torsions:
REMARK  status: ('A' for Active; 'I' for Inactive)
REMARK    1  A    between atoms: O_5  and  C_27
REMARK    2  A    between atoms: O_5  and  C_29
REMARK    3  A    between atoms: N_7  and  C_13
REMARK    4  A    between atoms: C_9  and  C_14
REMARK    5  A    between atoms: C_13  and  C_15
REMARK    6  A    between atoms: C_20  and  C_27
REMARK    7  A    between atoms: C_24  and  C_28
REMARK                            x       y       z     vdW  Elec       q    Type
REMARK                         _______ _______ _______ _____ _____    ______ ____
ROOT
ATOM      7  N   UNL     1      18.784   7.465  21.595  0.00  0.00    -0.297 NA
ATOM      9  C   UNL     1      16.832   8.235  20.546  0.00  0.00    +0.090 C 
ATOM     10  C   UNL     1      17.687   9.436  20.989  0.00  0.00    +0.029 C 
ATOM     11  C   UNL     1      17.409   7.041  21.319  0.00  0.00    +0.097 C 
ATOM     12  C   UNL     1      18.672   8.866  22.001  0.00  0.00    +0.085 C 
ENDROOT
BRANCH   9  14
ATOM      4  O   UNL     1      14.570   8.241  19.641  0.00  0.00    -0.439 OA
ATOM      8  N   UNL     1      14.699   8.691  21.858  0.00  0.00    -0.213 NA
ATOM     14  C   UNL     1      15.345   8.406  20.749  0.00  0.00    +0.201 A 
ATOM     16  C   UNL     1      13.301   8.443  20.104  0.00  0.00    +0.169 A 
ATOM     17  C   UNL     1      13.384   8.719  21.460  0.00  0.00    +0.110 A 
ATOM     20  C   UNL     1      12.118   8.392  19.376  0.00  0.00    +0.103 A 
ATOM     21  C   UNL     1      12.204   8.968  22.175  0.00  0.00    +0.031 A 
ATOM     25  C   UNL     1      10.950   8.642  20.104  0.00  0.00    +0.019 A 
ATOM     26  C   UNL     1      10.988   8.925  21.475  0.00  0.00    +0.003 A 
BRANCH  20  27
ATOM      6  O   UNL     1      12.169   6.959  17.471  0.00  0.00    -0.245 OA
ATOM     27  C   UNL     1      12.091   8.099  17.958  0.00  0.00    +0.343 C 
BRANCH  27   5
ATOM      5  O   UNL     1      11.965   9.237  17.206  0.00  0.00    -0.464 OA
ATOM     29  C   UNL     1      11.203   9.139  15.998  0.00  0.00    +0.280 C 
ENDBRANCH  27   5
ENDBRANCH  20  27
ENDBRANCH   9  14
BRANCH   7  13
ATOM     13  C   UNL     1      19.425   6.642  22.611  0.00  0.00    +0.119 C 
BRANCH  13  15
ATOM     15  C   UNL     1      20.626   5.917  22.067  0.00  0.00    -0.033 A 
ATOM     18  C   UNL     1      21.782   5.804  22.841  0.00  0.00    +0.005 A 
ATOM     19  C   UNL     1      20.585   5.356  20.790  0.00  0.00    +0.005 A 
ATOM     22  C   UNL     1      22.895   5.130  22.337  0.00  0.00    +0.012 A 
ATOM     23  C   UNL     1      21.699   4.683  20.287  0.00  0.00    +0.012 A 
ATOM     24  C   UNL     1      22.853   4.571  21.061  0.00  0.00    +0.055 A 
BRANCH  24  28
ATOM      1  F   UNL     1      23.902   2.490  20.516  0.00  0.00    -0.166 F 
ATOM      2  F   UNL     1      25.176   4.094  21.244  0.00  0.00    -0.166 F 
ATOM      3  F   UNL     1      24.350   4.182  19.235  0.00  0.00    -0.166 F 
ATOM     28  C   UNL     1      24.043   3.849  20.523  0.00  0.00    +0.417 C 
ENDBRANCH  24  28
ENDBRANCH  13  15
ENDBRANCH   7  13
TORSDOF 6
ENDMDL
MODEL 8
REMARK VINA RESULT:      -6.8     28.090     30.092
REMARK  Name = 45784359
REMARK  7 active torsions:
REMARK  status: ('A' for Active; 'I' for Inactive)
REMARK    1  A    between atoms: O_5  and  C_27
REMARK    2  A    between atoms: O_5  and  C_29
REMARK    3  A    between atoms: N_7  and  C_13
REMARK    4  A    between atoms: C_9  and  C_14
REMARK    5  A    between atoms: C_13  and  C_15
REMARK    6  A    between atoms: C_20  and  C_27
REMARK    7  A    between atoms: C_24  and  C_28
REMARK                            x       y       z     vdW  Elec       q    Type
REMARK                         _______ _______ _______ _____ _____    ______ ____
ROOT
ATOM      7  N   UNL     1      -4.510 -11.742  16.748  0.00  0.00    -0.297 NA
ATOM      9  C   UNL     1      -6.011 -10.521  18.073  0.00  0.00    +0.090 C 
ATOM     10  C   UNL     1      -5.156 -11.432  18.970  0.00  0.00    +0.029 C 
ATOM     11  C   UNL     1      -5.809 -11.073  16.655  0.00  0.00    +0.097 C 
ATOM     12  C   UNL     1      -4.545 -12.457  18.024  0.00  0.00    +0.085 C 
ENDROOT
BRANCH   9  14
ATOM      4  O   UNL     1      -8.265  -9.706  17.631  0.00  0.00    -0.439 OA
ATOM      8  N   UNL     1      -8.066 -10.955  19.512  0.00  0.00    -0.213 NA
ATOM     14  C   UNL     1      -7.467 -10.428  18.467  0.00  0.00    +0.201 A 
ATOM     16  C   UNL     1      -9.498  -9.789  18.214  0.00  0.00    +0.169 A 
ATOM     17  C   UNL     1      -9.372 -10.554  19.364  0.00  0.00    +0.110 A 
ATOM     20  C   UNL     1     -10.684  -9.223  17.764  0.00  0.00    +0.103 A 
ATOM     21  C   UNL     1     -10.509 -10.788  20.149  0.00  0.00    +0.031 A 
ATOM     25  C   UNL     1     -11.810  -9.467  18.559  0.00  0.00    +0.019 A 
ATOM     26  C   UNL     1     -11.727 -10.233  19.728  0.00  0.00    +0.003 A 
BRANCH  20  27
ATOM      6  O   UNL     1     -11.049  -8.881  15.433  0.00  0.00    -0.245 OA
ATOM     27  C   UNL     1     -10.757  -8.431  16.553  0.00  0.00    +0.343 C 
BRANCH  27   5
ATOM      5  O   UNL     1     -10.466  -7.114  16.789  0.00  0.00    -0.464 OA
ATOM     29  C   UNL     1     -11.377  -6.141  16.265  0.00  0.00    +0.280 C 
ENDBRANCH  27   5
ENDBRANCH  20  27
ENDBRANCH   9  14
BRANCH   7  13
ATOM     13  C   UNL     1      -4.262 -12.631  15.621  0.00  0.00    +0.119 C 
BRANCH  13  15
ATOM     15  C   UNL     1      -3.992 -11.865  14.354  0.00  0.00    -0.033 A 
ATOM     18  C   UNL     1      -4.893 -11.936  13.291  0.00  0.00    +0.005 A 
ATOM     19  C   UNL     1      -2.842 -11.084  14.241  0.00  0.00    +0.005 A 
ATOM     22  C   UNL     1      -4.644 -11.226  12.116  0.00  0.00    +0.012 A 
ATOM     23  C   UNL     1      -2.593 -10.374  13.066  0.00  0.00    +0.012 A 
ATOM     24  C   UNL     1      -3.494 -10.446  12.004  0.00  0.00    +0.055 A 
BRANCH  24  28
ATOM      1  F   UNL     1      -1.939  -9.248  10.636  0.00  0.00    -0.166 F 
ATOM      2  F   UNL     1      -4.003  -8.567  10.639  0.00  0.00    -0.166 F 
ATOM      3  F   UNL     1      -3.460 -10.405   9.612  0.00  0.00    -0.166 F 
ATOM     28  C   UNL     1      -3.228  -9.685  10.749  0.00  0.00    +0.417 C 
ENDBRANCH  24  28
ENDBRANCH  13  15
ENDBRANCH   7  13
TORSDOF 6
ENDMDL
MODEL 9
REMARK VINA RESULT:      -6.7      2.116      3.197
REMARK  Name = 45784359
REMARK  7 active torsions:
REMARK  status: ('A' for Active; 'I' for Inactive)
REMARK    1  A    between atoms: O_5  and  C_27
REMARK    2  A    between atoms: O_5  and  C_29
REMARK    3  A    between atoms: N_7  and  C_13
REMARK    4  A    between atoms: C_9  and  C_14
REMARK    5  A    between atoms: C_13  and  C_15
REMARK    6  A    between atoms: C_20  and  C_27
REMARK    7  A    between atoms: C_24  and  C_28
REMARK                            x       y       z     vdW  Elec       q    Type
REMARK                         _______ _______ _______ _____ _____    ______ ____
ROOT
ATOM      7  N   UNL     1      18.274   8.765  21.275  0.00  0.00    -0.297 NA
ATOM      9  C   UNL     1      16.106   8.503  20.417  0.00  0.00    +0.090 C 
ATOM     10  C   UNL     1      16.477   9.996  20.432  0.00  0.00    +0.029 C 
ATOM     11  C   UNL     1      17.143   7.837  21.333  0.00  0.00    +0.097 C 
ATOM     12  C   UNL     1      17.673  10.097  21.369  0.00  0.00    +0.085 C 
ENDROOT
BRANCH   9  14
ATOM      4  O   UNL     1      13.962   9.249  21.301  0.00  0.00    -0.439 OA
ATOM      8  N   UNL     1      14.046   7.049  20.763  0.00  0.00    -0.213 NA
ATOM     14  C   UNL     1      14.682   8.198  20.819  0.00  0.00    +0.201 A 
ATOM     16  C   UNL     1      12.741   8.701  21.576  0.00  0.00    +0.169 A 
ATOM     17  C   UNL     1      12.797   7.355  21.246  0.00  0.00    +0.110 A 
ATOM     20  C   UNL     1      11.624   9.345  22.095  0.00  0.00    +0.103 A 
ATOM     21  C   UNL     1      11.657   6.562  21.440  0.00  0.00    +0.031 A 
ATOM     25  C   UNL     1      10.495   8.540  22.281  0.00  0.00    +0.019 A 
ATOM     26  C   UNL     1      10.508   7.177  21.962  0.00  0.00    +0.003 A 
BRANCH  20  27
ATOM      6  O   UNL     1      11.295  11.662  21.638  0.00  0.00    -0.245 OA
ATOM     27  C   UNL     1      11.623  10.756  22.422  0.00  0.00    +0.343 C 
BRANCH  27   5
ATOM      5  O   UNL     1      12.029  10.979  23.711  0.00  0.00    -0.464 OA
ATOM     29  C   UNL     1      11.051  11.494  24.622  0.00  0.00    +0.280 C 
ENDBRANCH  27   5
ENDBRANCH  20  27
ENDBRANCH   9  14
BRANCH   7  13
ATOM     13  C   UNL     1      19.247   8.521  22.330  0.00  0.00    +0.119 C 
BRANCH  13  15
ATOM     15  C   UNL     1      20.064   7.285  22.062  0.00  0.00    -0.033 A 
ATOM     18  C   UNL     1      20.655   6.596  23.121  0.00  0.00    +0.005 A 
ATOM     19  C   UNL     1      20.230   6.828  20.754  0.00  0.00    +0.005 A 
ATOM     22  C   UNL     1      21.411   5.451  22.873  0.00  0.00    +0.012 A 
ATOM     23  C   UNL     1      20.987   5.683  20.506  0.00  0.00    +0.012 A 
ATOM     24  C   UNL     1      21.578   4.995  21.565  0.00  0.00    +0.055 A 
BRANCH  24  28
ATOM      1  F   UNL     1      22.987   3.258  22.415  0.00  0.00    -0.166 F 
ATOM      2  F   UNL     1      23.394   3.988  20.408  0.00  0.00    -0.166 F 
ATOM      3  F   UNL     1      21.657   2.735  20.784  0.00  0.00    -0.166 F 
ATOM     28  C   UNL     1      22.385   3.769  21.300  0.00  0.00    +0.417 C 
ENDBRANCH  24  28
ENDBRANCH  13  15
ENDBRANCH   7  13
TORSDOF 6
ENDMDL
MODEL 10
REMARK VINA RESULT:      -6.6     30.070     33.317
REMARK  Name = 45784359
REMARK  7 active torsions:
REMARK  status: ('A' for Active; 'I' for Inactive)
REMARK    1  A    between atoms: O_5  and  C_27
REMARK    2  A    between atoms: O_5  and  C_29
REMARK    3  A    between atoms: N_7  and  C_13
REMARK    4  A    between atoms: C_9  and  C_14
REMARK    5  A    between atoms: C_13  and  C_15
REMARK    6  A    between atoms: C_20  and  C_27
REMARK    7  A    between atoms: C_24  and  C_28
REMARK                            x       y       z     vdW  Elec       q    Type
REMARK                         _______ _______ _______ _____ _____    ______ ____
ROOT
ATOM      7  N   UNL     1     -16.444   3.716  23.524  0.00  0.00    -0.297 NA
ATOM      9  C   UNL     1     -16.082   2.917  25.700  0.00  0.00    +0.090 C 
ATOM     10  C   UNL     1     -17.129   2.036  24.995  0.00  0.00    +0.029 C 
ATOM     11  C   UNL     1     -15.999   4.185  24.838  0.00  0.00    +0.097 C 
ATOM     12  C   UNL     1     -17.596   2.858  23.801  0.00  0.00    +0.085 C 
ENDROOT
BRANCH   9  14
ATOM      4  O   UNL     1     -15.378   2.914  28.032  0.00  0.00    -0.439 OA
ATOM      8  N   UNL     1     -17.468   3.716  27.680  0.00  0.00    -0.213 NA
ATOM     14  C   UNL     1     -16.375   3.210  27.153  0.00  0.00    +0.201 A 
ATOM     16  C   UNL     1     -15.900   3.274  29.242  0.00  0.00    +0.169 A 
ATOM     17  C   UNL     1     -17.179   3.764  29.023  0.00  0.00    +0.110 A 
ATOM     20  C   UNL     1     -15.290   3.179  30.488  0.00  0.00    +0.103 A 
ATOM     21  C   UNL     1     -17.934   4.202  30.119  0.00  0.00    +0.031 A 
ATOM     25  C   UNL     1     -16.057   3.622  31.571  0.00  0.00    +0.019 A 
ATOM     26  C   UNL     1     -17.352   4.123  31.394  0.00  0.00    +0.003 A 
BRANCH  20  27
ATOM      6  O   UNL     1     -13.001   3.296  31.143  0.00  0.00    -0.245 OA
ATOM     27  C   UNL     1     -13.949   2.658  30.658  0.00  0.00    +0.343 C 
BRANCH  27   5
ATOM      5  O   UNL     1     -13.847   1.364  30.220  0.00  0.00    -0.464 OA
ATOM     29  C   UNL     1     -14.521   0.361  30.988  0.00  0.00    +0.280 C 
ENDBRANCH  27   5
ENDBRANCH  20  27
ENDBRANCH   9  14
BRANCH   7  13
ATOM     13  C   UNL     1     -16.773   4.814  22.626  0.00  0.00    +0.119 C 
BRANCH  13  15
ATOM     15  C   UNL     1     -15.538   5.464  22.062  0.00  0.00    -0.033 A 
ATOM     18  C   UNL     1     -14.275   4.981  22.407  0.00  0.00    +0.005 A 
ATOM     19  C   UNL     1     -15.655   6.550  21.193  0.00  0.00    +0.005 A 
ATOM     22  C   UNL     1     -13.131   5.583  21.884  0.00  0.00    +0.012 A 
ATOM     23  C   UNL     1     -14.510   7.152  20.670  0.00  0.00    +0.012 A 
ATOM     24  C   UNL     1     -13.249   6.668  21.016  0.00  0.00    +0.055 A 
BRANCH  24  28
ATOM      1  F   UNL     1     -10.879   6.980  21.121  0.00  0.00    -0.166 F 
ATOM      2  F   UNL     1     -12.086   8.674  20.486  0.00  0.00    -0.166 F 
ATOM      3  F   UNL     1     -11.784   6.985  19.150  0.00  0.00    -0.166 F 
ATOM     28  C   UNL     1     -12.025   7.310  20.455  0.00  0.00    +0.417 C 
ENDBRANCH  24  28
ENDBRANCH  13  15
ENDBRANCH   7  13
TORSDOF 6
ENDMDL
