MODEL 1
REMARK VINA RESULT:      -7.4      0.000      0.000
REMARK  Name = 75536798
REMARK  9 active torsions:
REMARK  status: ('A' for Active; 'I' for Inactive)
REMARK    1  A    between atoms: S_1  and  C_20
REMARK    2  A    between atoms: S_1  and  C_24
REMARK    3  A    between atoms: O_3  and  C_11
REMARK    4  A    between atoms: N_7  and  C_10
REMARK    5  A    between atoms: N_7  and  C_15
REMARK    6  A    between atoms: N_8  and  C_14
REMARK    7  A    between atoms: C_12  and  C_14
REMARK    8  A    between atoms: C_15  and  C_16
REMARK    9  A    between atoms: C_17  and  C_23
REMARK                            x       y       z     vdW  Elec       q    Type
REMARK                         _______ _______ _______ _____ _____    ______ ____
ROOT
ATOM      2  O   UNL     1      10.938   8.272  20.173  0.00  0.00    -0.371 OA
ATOM     10  C   UNL     1      12.684   6.674  20.234  0.00  0.00    +0.111 C 
ATOM     11  C   UNL     1      11.680   6.311  21.314  0.00  0.00    +0.164 C 
ATOM     12  C   UNL     1      10.712   7.492  21.362  0.00  0.00    +0.165 C 
ATOM     13  C   UNL     1      11.855   7.568  19.327  0.00  0.00    +0.181 C 
ENDROOT
BRANCH  11   3
ATOM      3  O   UNL     1      10.974   5.146  20.879  0.00  0.00    -0.388 OA
ATOM     30  H   UNL     1      11.636   4.460  20.690  0.00  0.00    +0.210 HD
ENDBRANCH  11   3
BRANCH  10   7
ATOM      7  N   UNL     1      13.823   7.408  20.783  0.00  0.00    -0.305 NA
ATOM     29  H   UNL     1      13.490   8.274  21.207  0.00  0.00    +0.123 HD
BRANCH   7  15
ATOM     15  C   UNL     1      14.783   7.743  19.738  0.00  0.00    +0.116 C 
BRANCH  15  16
ATOM     16  C   UNL     1      16.172   7.275  20.083  0.00  0.00    -0.033 A 
ATOM     18  C   UNL     1      16.862   7.859  21.145  0.00  0.00    +0.007 A 
ATOM     19  C   UNL     1      16.770   6.257  19.339  0.00  0.00    +0.007 A 
ATOM     20  C   UNL     1      18.746   6.408  20.721  0.00  0.00    +0.088 A 
ATOM     21  C   UNL     1      18.148   7.426  21.464  0.00  0.00    +0.027 A 
ATOM     22  C   UNL     1      18.056   5.824  19.658  0.00  0.00    +0.027 A 
BRANCH  20   1
ATOM      1  S   UNL     1      20.356   5.864  21.123  0.00  0.00    -0.006 S 
ATOM      5  O   UNL     1      20.494   5.831  22.573  0.00  0.00    -0.170 OA
ATOM      6  O   UNL     1      20.630   4.665  20.344  0.00  0.00    -0.170 OA
ATOM     24  C   UNL     1      21.421   7.158  20.529  0.00  0.00    +0.200 C 
ENDBRANCH  20   1
ENDBRANCH  15  16
ENDBRANCH   7  15
ENDBRANCH  10   7
BRANCH  12  14
ATOM     14  C   UNL     1      10.913   8.395  22.570  0.00  0.00    +0.138 C 
BRANCH  14   8
ATOM      4  O   UNL     1      13.315   9.938  22.258  0.00  0.00    -0.270 OA
ATOM      8  N   UNL     1      11.001   9.774  22.182  0.00  0.00    -0.309 N 
ATOM     17  C   UNL     1      12.214  10.444  22.055  0.00  0.00    +0.244 C 
ATOM     31  H   UNL     1      10.125  10.274  22.077  0.00  0.00    +0.149 HD
BRANCH  17  23
ATOM      9  N   UNL     1      11.983  14.572  20.943  0.00  0.00    -0.263 NA
ATOM     23  C   UNL     1      12.134  11.877  21.671  0.00  0.00    +0.040 A 
ATOM     25  C   UNL     1      10.974  12.602  21.918  0.00  0.00    +0.033 A 
ATOM     26  C   UNL     1      13.219  12.497  21.060  0.00  0.00    +0.033 A 
ATOM     27  C   UNL     1      10.950  13.935  21.539  0.00  0.00    +0.111 A 
ATOM     28  C   UNL     1      13.093  13.834  20.719  0.00  0.00    +0.111 A 
ENDBRANCH  17  23
ENDBRANCH  14   8
ENDBRANCH  12  14
TORSDOF 8
ENDMDL
MODEL 2
REMARK VINA RESULT:      -7.2      1.923      2.419
REMARK  Name = 75536798
REMARK  9 active torsions:
REMARK  status: ('A' for Active; 'I' for Inactive)
REMARK    1  A    between atoms: S_1  and  C_20
REMARK    2  A    between atoms: S_1  and  C_24
REMARK    3  A    between atoms: O_3  and  C_11
REMARK    4  A    between atoms: N_7  and  C_10
REMARK    5  A    between atoms: N_7  and  C_15
REMARK    6  A    between atoms: N_8  and  C_14
REMARK    7  A    between atoms: C_12  and  C_14
REMARK    8  A    between atoms: C_15  and  C_16
REMARK    9  A    between atoms: C_17  and  C_23
REMARK                            x       y       z     vdW  Elec       q    Type
REMARK                         _______ _______ _______ _____ _____    ______ ____
ROOT
ATOM      2  O   UNL     1      12.272   9.743  18.884  0.00  0.00    -0.371 OA
ATOM     10  C   UNL     1      13.792   8.201  17.927  0.00  0.00    +0.111 C 
ATOM     11  C   UNL     1      12.599   7.419  18.449  0.00  0.00    +0.164 C 
ATOM     12  C   UNL     1      11.778   8.438  19.237  0.00  0.00    +0.165 C 
ATOM     13  C   UNL     1      13.220   9.605  17.820  0.00  0.00    +0.181 C 
ENDROOT
BRANCH  11   3
ATOM      3  O   UNL     1      11.839   6.980  17.320  0.00  0.00    -0.388 OA
ATOM     30  H   UNL     1      12.091   6.058  17.142  0.00  0.00    +0.210 HD
ENDBRANCH  11   3
BRANCH  10   7
ATOM      7  N   UNL     1      14.910   8.169  18.868  0.00  0.00    -0.305 NA
ATOM     29  H   UNL     1      15.766   8.435  18.379  0.00  0.00    +0.123 HD
BRANCH   7  15
ATOM     15  C   UNL     1      15.091   6.832  19.421  0.00  0.00    +0.116 C 
BRANCH  15  16
ATOM     16  C   UNL     1      16.524   6.571  19.799  0.00  0.00    -0.033 A 
ATOM     18  C   UNL     1      17.085   7.218  20.900  0.00  0.00    +0.007 A 
ATOM     19  C   UNL     1      17.294   5.683  19.046  0.00  0.00    +0.007 A 
ATOM     20  C   UNL     1      19.182   6.089  20.498  0.00  0.00    +0.088 A 
ATOM     21  C   UNL     1      18.412   6.976  21.250  0.00  0.00    +0.027 A 
ATOM     22  C   UNL     1      18.622   5.443  19.395  0.00  0.00    +0.027 A 
BRANCH  20   1
ATOM      1  S   UNL     1      20.844   5.784  20.938  0.00  0.00    -0.006 S 
ATOM      5  O   UNL     1      21.130   4.368  20.749  0.00  0.00    -0.170 OA
ATOM      6  O   UNL     1      21.673   6.783  20.279  0.00  0.00    -0.170 OA
ATOM     24  C   UNL     1      20.902   6.095  22.688  0.00  0.00    +0.200 C 
ENDBRANCH  20   1
ENDBRANCH  15  16
ENDBRANCH   7  15
ENDBRANCH  10   7
BRANCH  12  14
ATOM     14  C   UNL     1      11.894   8.276  20.746  0.00  0.00    +0.138 C 
BRANCH  14   8
ATOM      4  O   UNL     1      10.665   8.748  23.298  0.00  0.00    -0.270 OA
ATOM      8  N   UNL     1      11.769   9.539  21.417  0.00  0.00    -0.309 N 
ATOM     17  C   UNL     1      11.155   9.674  22.658  0.00  0.00    +0.244 C 
ATOM     31  H   UNL     1      12.083  10.358  20.907  0.00  0.00    +0.149 HD
BRANCH  17  23
ATOM      9  N   UNL     1      10.954  13.648  24.239  0.00  0.00    -0.263 NA
ATOM     23  C   UNL     1      11.084  11.053  23.207  0.00  0.00    +0.040 A 
ATOM     25  C   UNL     1      11.061  12.146  22.347  0.00  0.00    +0.033 A 
ATOM     26  C   UNL     1      11.042  11.256  24.582  0.00  0.00    +0.033 A 
ATOM     27  C   UNL     1      10.996  13.411  22.909  0.00  0.00    +0.111 A 
ATOM     28  C   UNL     1      10.979  12.561  25.043  0.00  0.00    +0.111 A 
ENDBRANCH  17  23
ENDBRANCH  14   8
ENDBRANCH  12  14
TORSDOF 8
ENDMDL
MODEL 3
REMARK VINA RESULT:      -6.9      2.641      3.216
REMARK  Name = 75536798
REMARK  9 active torsions:
REMARK  status: ('A' for Active; 'I' for Inactive)
REMARK    1  A    between atoms: S_1  and  C_20
REMARK    2  A    between atoms: S_1  and  C_24
REMARK    3  A    between atoms: O_3  and  C_11
REMARK    4  A    between atoms: N_7  and  C_10
REMARK    5  A    between atoms: N_7  and  C_15
REMARK    6  A    between atoms: N_8  and  C_14
REMARK    7  A    between atoms: C_12  and  C_14
REMARK    8  A    between atoms: C_15  and  C_16
REMARK    9  A    between atoms: C_17  and  C_23
REMARK                            x       y       z     vdW  Elec       q    Type
REMARK                         _______ _______ _______ _____ _____    ______ ____
ROOT
ATOM      2  O   UNL     1      12.806   9.942  17.781  0.00  0.00    -0.371 OA
ATOM     10  C   UNL     1      13.923   7.863  17.597  0.00  0.00    +0.111 C 
ATOM     11  C   UNL     1      12.605   7.623  18.310  0.00  0.00    +0.164 C 
ATOM     12  C   UNL     1      12.049   9.019  18.586  0.00  0.00    +0.165 C 
ATOM     13  C   UNL     1      13.670   9.197  16.915  0.00  0.00    +0.181 C 
ENDROOT
BRANCH  11   3
ATOM      3  O   UNL     1      11.734   6.946  17.399  0.00  0.00    -0.388 OA
ATOM     30  H   UNL     1      10.821   7.151  17.664  0.00  0.00    +0.210 HD
ENDBRANCH  11   3
BRANCH  10   7
ATOM      7  N   UNL     1      15.034   7.968  18.542  0.00  0.00    -0.305 NA
ATOM     29  H   UNL     1      15.905   8.082  18.023  0.00  0.00    +0.123 HD
BRANCH   7  15
ATOM     15  C   UNL     1      15.140   6.767  19.362  0.00  0.00    +0.116 C 
BRANCH  15  16
ATOM     16  C   UNL     1      16.540   6.561  19.876  0.00  0.00    -0.033 A 
ATOM     18  C   UNL     1      16.949   7.184  21.054  0.00  0.00    +0.007 A 
ATOM     19  C   UNL     1      17.430   5.748  19.172  0.00  0.00    +0.007 A 
ATOM     20  C   UNL     1      19.135   6.181  20.827  0.00  0.00    +0.088 A 
ATOM     21  C   UNL     1      18.246   6.994  21.530  0.00  0.00    +0.027 A 
ATOM     22  C   UNL     1      18.726   5.559  19.647  0.00  0.00    +0.027 A 
BRANCH  20   1
ATOM      1  S   UNL     1      20.758   5.940  21.425  0.00  0.00    -0.006 S 
ATOM      5  O   UNL     1      21.632   6.945  20.834  0.00  0.00    -0.170 OA
ATOM      6  O   UNL     1      20.687   5.806  22.873  0.00  0.00    -0.170 OA
ATOM     24  C   UNL     1      21.248   4.369  20.753  0.00  0.00    +0.200 C 
ENDBRANCH  20   1
ENDBRANCH  15  16
ENDBRANCH   7  15
ENDBRANCH  10   7
BRANCH  12  14
ATOM     14  C   UNL     1      12.169   9.445  20.042  0.00  0.00    +0.138 C 
BRANCH  14   8
ATOM      4  O   UNL     1      14.012   8.914  22.180  0.00  0.00    -0.270 OA
ATOM      8  N   UNL     1      13.414  10.116  20.287  0.00  0.00    -0.309 N 
ATOM     17  C   UNL     1      14.247   9.792  21.353  0.00  0.00    +0.244 C 
ATOM     31  H   UNL     1      13.631  10.906  19.688  0.00  0.00    +0.149 HD
BRANCH  17  23
ATOM      9  N   UNL     1      17.819  12.121  21.732  0.00  0.00    -0.263 NA
ATOM     23  C   UNL     1      15.488  10.598  21.485  0.00  0.00    +0.040 A 
ATOM     25  C   UNL     1      15.831  11.155  22.712  0.00  0.00    +0.033 A 
ATOM     26  C   UNL     1      16.308  10.802  20.381  0.00  0.00    +0.033 A 
ATOM     27  C   UNL     1      16.997  11.901  22.782  0.00  0.00    +0.111 A 
ATOM     28  C   UNL     1      17.452  11.565  20.556  0.00  0.00    +0.111 A 
ENDBRANCH  17  23
ENDBRANCH  14   8
ENDBRANCH  12  14
TORSDOF 8
ENDMDL
MODEL 4
REMARK VINA RESULT:      -6.7      3.952      6.914
REMARK  Name = 75536798
REMARK  9 active torsions:
REMARK  status: ('A' for Active; 'I' for Inactive)
REMARK    1  A    between atoms: S_1  and  C_20
REMARK    2  A    between atoms: S_1  and  C_24
REMARK    3  A    between atoms: O_3  and  C_11
REMARK    4  A    between atoms: N_7  and  C_10
REMARK    5  A    between atoms: N_7  and  C_15
REMARK    6  A    between atoms: N_8  and  C_14
REMARK    7  A    between atoms: C_12  and  C_14
REMARK    8  A    between atoms: C_15  and  C_16
REMARK    9  A    between atoms: C_17  and  C_23
REMARK                            x       y       z     vdW  Elec       q    Type
REMARK                         _______ _______ _______ _____ _____    ______ ____
ROOT
ATOM      2  O   UNL     1      12.206   8.953  22.242  0.00  0.00    -0.371 OA
ATOM     10  C   UNL     1      11.245   7.663  20.505  0.00  0.00    +0.111 C 
ATOM     11  C   UNL     1      12.614   7.083  20.816  0.00  0.00    +0.164 C 
ATOM     12  C   UNL     1      13.255   8.084  21.775  0.00  0.00    +0.165 C 
ATOM     13  C   UNL     1      10.949   8.455  21.767  0.00  0.00    +0.181 C 
ENDROOT
BRANCH  11   3
ATOM      3  O   UNL     1      12.416   5.842  21.499  0.00  0.00    -0.388 OA
ATOM     30  H   UNL     1      11.509   5.547  21.308  0.00  0.00    +0.210 HD
ENDBRANCH  11   3
BRANCH  10   7
ATOM      7  N   UNL     1      11.286   8.544  19.339  0.00  0.00    -0.305 NA
ATOM     29  H   UNL     1      10.334   8.708  19.010  0.00  0.00    +0.123 HD
BRANCH   7  15
ATOM     15  C   UNL     1      12.052   7.942  18.254  0.00  0.00    +0.116 C 
BRANCH  15  16
ATOM     16  C   UNL     1      12.934   8.949  17.566  0.00  0.00    -0.033 A 
ATOM     18  C   UNL     1      13.099  10.221  18.113  0.00  0.00    +0.007 A 
ATOM     19  C   UNL     1      13.587   8.610  16.380  0.00  0.00    +0.007 A 
ATOM     20  C   UNL     1      14.569  10.816  16.290  0.00  0.00    +0.088 A 
ATOM     21  C   UNL     1      13.917  11.154  17.476  0.00  0.00    +0.027 A 
ATOM     22  C   UNL     1      14.403   9.543  15.742  0.00  0.00    +0.027 A 
BRANCH  20   1
ATOM      1  S   UNL     1      15.595  11.983  15.494  0.00  0.00    -0.006 S 
ATOM      5  O   UNL     1      16.202  12.843  16.502  0.00  0.00    -0.170 OA
ATOM      6  O   UNL     1      16.441  11.266  14.551  0.00  0.00    -0.170 OA
ATOM     24  C   UNL     1      14.470  12.996  14.559  0.00  0.00    +0.200 C 
ENDBRANCH  20   1
ENDBRANCH  15  16
ENDBRANCH   7  15
ENDBRANCH  10   7
BRANCH  12  14
ATOM     14  C   UNL     1      14.332   8.942  21.129  0.00  0.00    +0.138 C 
BRANCH  14   8
ATOM      4  O   UNL     1      15.698   7.395  19.132  0.00  0.00    -0.270 OA
ATOM      8  N   UNL     1      15.627   8.335  21.252  0.00  0.00    -0.309 N 
ATOM     17  C   UNL     1      16.214   7.599  20.228  0.00  0.00    +0.244 C 
ATOM     31  H   UNL     1      16.074   8.397  22.161  0.00  0.00    +0.149 HD
BRANCH  17  23
ATOM      9  N   UNL     1      20.057   5.912  21.074  0.00  0.00    -0.263 NA
ATOM     23  C   UNL     1      17.547   7.012  20.523  0.00  0.00    +0.040 A 
ATOM     25  C   UNL     1      18.307   7.502  21.579  0.00  0.00    +0.033 A 
ATOM     26  C   UNL     1      18.040   5.973  19.741  0.00  0.00    +0.033 A 
ATOM     27  C   UNL     1      19.544   6.923  21.811  0.00  0.00    +0.111 A 
ATOM     28  C   UNL     1      19.290   5.463  20.056  0.00  0.00    +0.111 A 
ENDBRANCH  17  23
ENDBRANCH  14   8
ENDBRANCH  12  14
TORSDOF 8
ENDMDL
MODEL 5
REMARK VINA RESULT:      -6.7      1.896      2.410
REMARK  Name = 75536798
REMARK  9 active torsions:
REMARK  status: ('A' for Active; 'I' for Inactive)
REMARK    1  A    between atoms: S_1  and  C_20
REMARK    2  A    between atoms: S_1  and  C_24
REMARK    3  A    between atoms: O_3  and  C_11
REMARK    4  A    between atoms: N_7  and  C_10
REMARK    5  A    between atoms: N_7  and  C_15
REMARK    6  A    between atoms: N_8  and  C_14
REMARK    7  A    between atoms: C_12  and  C_14
REMARK    8  A    between atoms: C_15  and  C_16
REMARK    9  A    between atoms: C_17  and  C_23
REMARK                            x       y       z     vdW  Elec       q    Type
REMARK                         _______ _______ _______ _____ _____    ______ ____
ROOT
ATOM      2  O   UNL     1      12.755   9.706  18.761  0.00  0.00    -0.371 OA
ATOM     10  C   UNL     1      13.995   7.745  18.288  0.00  0.00    +0.111 C 
ATOM     11  C   UNL     1      12.564   7.333  18.583  0.00  0.00    +0.164 C 
ATOM     12  C   UNL     1      11.886   8.605  19.089  0.00  0.00    +0.165 C 
ATOM     13  C   UNL     1      13.831   9.218  17.951  0.00  0.00    +0.181 C 
ENDROOT
BRANCH  11   3
ATOM      3  O   UNL     1      11.960   6.941  17.347  0.00  0.00    -0.388 OA
ATOM     30  H   UNL     1      12.676   6.821  16.700  0.00  0.00    +0.210 HD
ENDBRANCH  11   3
BRANCH  10   7
ATOM      7  N   UNL     1      14.857   7.574  19.456  0.00  0.00    -0.305 NA
ATOM     29  H   UNL     1      15.341   8.452  19.646  0.00  0.00    +0.123 HD
BRANCH   7  15
ATOM     15  C   UNL     1      15.855   6.537  19.225  0.00  0.00    +0.116 C 
BRANCH  15  16
ATOM     16  C   UNL     1      17.119   6.794  20.000  0.00  0.00    -0.033 A 
ATOM     18  C   UNL     1      17.194   7.878  20.874  0.00  0.00    +0.007 A 
ATOM     19  C   UNL     1      18.218   5.948  19.844  0.00  0.00    +0.007 A 
ATOM     20  C   UNL     1      19.463   7.271  21.436  0.00  0.00    +0.088 A 
ATOM     21  C   UNL     1      18.365   8.116  21.593  0.00  0.00    +0.027 A 
ATOM     22  C   UNL     1      19.389   6.186  20.561  0.00  0.00    +0.027 A 
BRANCH  20   1
ATOM      1  S   UNL     1      20.929   7.567  22.338  0.00  0.00    -0.006 S 
ATOM      5  O   UNL     1      21.907   6.541  21.999  0.00  0.00    -0.170 OA
ATOM      6  O   UNL     1      21.274   8.973  22.184  0.00  0.00    -0.170 OA
ATOM     24  C   UNL     1      20.466   7.300  24.034  0.00  0.00    +0.200 C 
ENDBRANCH  20   1
ENDBRANCH  15  16
ENDBRANCH   7  15
ENDBRANCH  10   7
BRANCH  12  14
ATOM     14  C   UNL     1      11.652   8.614  20.592  0.00  0.00    +0.138 C 
BRANCH  14   8
ATOM      4  O   UNL     1      11.086   9.381  23.301  0.00  0.00    -0.270 OA
ATOM      8  N   UNL     1      11.464   9.949  21.083  0.00  0.00    -0.309 N 
ATOM     17  C   UNL     1      11.192  10.229  22.419  0.00  0.00    +0.244 C 
ATOM     31  H   UNL     1      11.459  10.692  20.392  0.00  0.00    +0.149 HD
BRANCH  17  23
ATOM      9  N   UNL     1      10.625  14.356  23.406  0.00  0.00    -0.263 NA
ATOM     23  C   UNL     1      10.997  11.662  22.762  0.00  0.00    +0.040 A 
ATOM     25  C   UNL     1      10.648  12.028  24.057  0.00  0.00    +0.033 A 
ATOM     26  C   UNL     1      11.159  12.641  21.788  0.00  0.00    +0.033 A 
ATOM     27  C   UNL     1      10.476  13.376  24.325  0.00  0.00    +0.111 A 
ATOM     28  C   UNL     1      10.963  13.962  22.158  0.00  0.00    +0.111 A 
ENDBRANCH  17  23
ENDBRANCH  14   8
ENDBRANCH  12  14
TORSDOF 8
ENDMDL
MODEL 6
REMARK VINA RESULT:      -6.6     26.510     29.045
REMARK  Name = 75536798
REMARK  9 active torsions:
REMARK  status: ('A' for Active; 'I' for Inactive)
REMARK    1  A    between atoms: S_1  and  C_20
REMARK    2  A    between atoms: S_1  and  C_24
REMARK    3  A    between atoms: O_3  and  C_11
REMARK    4  A    between atoms: N_7  and  C_10
REMARK    5  A    between atoms: N_7  and  C_15
REMARK    6  A    between atoms: N_8  and  C_14
REMARK    7  A    between atoms: C_12  and  C_14
REMARK    8  A    between atoms: C_15  and  C_16
REMARK    9  A    between atoms: C_17  and  C_23
REMARK                            x       y       z     vdW  Elec       q    Type
REMARK                         _______ _______ _______ _____ _____    ______ ____
ROOT
ATOM      2  O   UNL     1      -3.985 -12.221  15.634  0.00  0.00    -0.371 OA
ATOM     10  C   UNL     1      -2.155 -11.197  14.535  0.00  0.00    +0.111 C 
ATOM     11  C   UNL     1      -2.272 -10.583  15.919  0.00  0.00    +0.164 C 
ATOM     12  C   UNL     1      -3.587 -11.124  16.478  0.00  0.00    +0.165 C 
ATOM     13  C   UNL     1      -2.931 -12.493  14.703  0.00  0.00    +0.181 C 
ENDROOT
BRANCH  11   3
ATOM      3  O   UNL     1      -1.189 -11.082  16.709  0.00  0.00    -0.388 OA
ATOM     30  H   UNL     1      -0.889 -11.912  16.300  0.00  0.00    +0.210 HD
ENDBRANCH  11   3
BRANCH  10   7
ATOM      7  N   UNL     1      -2.775 -10.350  13.517  0.00  0.00    -0.305 NA
ATOM     29  H   UNL     1      -3.710 -10.704  13.313  0.00  0.00    +0.123 HD
BRANCH   7  15
ATOM     15  C   UNL     1      -1.998 -10.359  12.284  0.00  0.00    +0.116 C 
BRANCH  15  16
ATOM     16  C   UNL     1      -2.882 -10.422  11.066  0.00  0.00    -0.033 A 
ATOM     18  C   UNL     1      -3.472 -11.630  10.694  0.00  0.00    +0.007 A 
ATOM     19  C   UNL     1      -3.110  -9.272  10.309  0.00  0.00    +0.007 A 
ATOM     20  C   UNL     1      -4.518 -10.539   8.809  0.00  0.00    +0.088 A 
ATOM     21  C   UNL     1      -4.290 -11.688   9.566  0.00  0.00    +0.027 A 
ATOM     22  C   UNL     1      -3.927  -9.331   9.182  0.00  0.00    +0.027 A 
BRANCH  20   1
ATOM      1  S   UNL     1      -5.546 -10.611   7.399  0.00  0.00    -0.006 S 
ATOM      5  O   UNL     1      -6.234  -9.335   7.252  0.00  0.00    -0.170 OA
ATOM      6  O   UNL     1      -4.756 -11.138   6.296  0.00  0.00    -0.170 OA
ATOM     24  C   UNL     1      -6.781 -11.821   7.814  0.00  0.00    +0.200 C 
ENDBRANCH  20   1
ENDBRANCH  15  16
ENDBRANCH   7  15
ENDBRANCH  10   7
BRANCH  12  14
ATOM     14  C   UNL     1      -4.711 -10.099  16.489  0.00  0.00    +0.138 C 
BRANCH  14   8
ATOM      4  O   UNL     1      -7.520 -10.072  15.895  0.00  0.00    -0.270 OA
ATOM      8  N   UNL     1      -5.311  -9.969  15.192  0.00  0.00    -0.309 N 
ATOM     17  C   UNL     1      -6.689  -9.966  14.997  0.00  0.00    +0.244 C 
ATOM     31  H   UNL     1      -4.680  -9.957  14.397  0.00  0.00    +0.149 HD
BRANCH  17  23
ATOM      9  N   UNL     1      -8.025  -9.625  10.944  0.00  0.00    -0.263 NA
ATOM     23  C   UNL     1      -7.152  -9.849  13.590  0.00  0.00    +0.040 A 
ATOM     25  C   UNL     1      -6.303  -9.336  12.616  0.00  0.00    +0.033 A 
ATOM     26  C   UNL     1      -8.437 -10.250  13.243  0.00  0.00    +0.033 A 
ATOM     27  C   UNL     1      -6.783  -9.246  11.320  0.00  0.00    +0.111 A 
ATOM     28  C   UNL     1      -8.822 -10.119  11.918  0.00  0.00    +0.111 A 
ENDBRANCH  17  23
ENDBRANCH  14   8
ENDBRANCH  12  14
TORSDOF 8
ENDMDL
MODEL 7
REMARK VINA RESULT:      -6.3     26.836     28.797
REMARK  Name = 75536798
REMARK  9 active torsions:
REMARK  status: ('A' for Active; 'I' for Inactive)
REMARK    1  A    between atoms: S_1  and  C_20
REMARK    2  A    between atoms: S_1  and  C_24
REMARK    3  A    between atoms: O_3  and  C_11
REMARK    4  A    between atoms: N_7  and  C_10
REMARK    5  A    between atoms: N_7  and  C_15
REMARK    6  A    between atoms: N_8  and  C_14
REMARK    7  A    between atoms: C_12  and  C_14
REMARK    8  A    between atoms: C_15  and  C_16
REMARK    9  A    between atoms: C_17  and  C_23
REMARK                            x       y       z     vdW  Elec       q    Type
REMARK                         _______ _______ _______ _____ _____    ______ ____
ROOT
ATOM      2  O   UNL     1      -8.044 -11.576  17.965  0.00  0.00    -0.371 OA
ATOM     10  C   UNL     1      -5.875 -11.921  18.849  0.00  0.00    +0.111 C 
ATOM     11  C   UNL     1      -6.169 -10.432  18.900  0.00  0.00    +0.164 C 
ATOM     12  C   UNL     1      -7.473 -10.264  18.123  0.00  0.00    +0.165 C 
ATOM     13  C   UNL     1      -7.271 -12.510  18.727  0.00  0.00    +0.181 C 
ENDROOT
BRANCH  11   3
ATOM      3  O   UNL     1      -6.393 -10.080  20.269  0.00  0.00    -0.388 OA
ATOM     30  H   UNL     1      -7.086  -9.398  20.282  0.00  0.00    +0.210 HD
ENDBRANCH  11   3
BRANCH  10   7
ATOM      7  N   UNL     1      -5.064 -12.269  17.683  0.00  0.00    -0.305 NA
ATOM     29  H   UNL     1      -4.634 -13.182  17.835  0.00  0.00    +0.123 HD
BRANCH   7  15
ATOM     15  C   UNL     1      -4.005 -11.290  17.471  0.00  0.00    +0.116 C 
BRANCH  15  16
ATOM     16  C   UNL     1      -3.709 -11.094  16.008  0.00  0.00    -0.033 A 
ATOM     18  C   UNL     1      -4.715 -11.287  15.061  0.00  0.00    +0.007 A 
ATOM     19  C   UNL     1      -2.428 -10.720  15.598  0.00  0.00    +0.007 A 
ATOM     20  C   UNL     1      -3.161 -10.732  13.296  0.00  0.00    +0.088 A 
ATOM     21  C   UNL     1      -4.441 -11.105  13.706  0.00  0.00    +0.027 A 
ATOM     22  C   UNL     1      -2.154 -10.540  14.243  0.00  0.00    +0.027 A 
BRANCH  20   1
ATOM      1  S   UNL     1      -2.819 -10.501  11.599  0.00  0.00    -0.006 S 
ATOM      5  O   UNL     1      -1.591  -9.729  11.467  0.00  0.00    -0.170 OA
ATOM      6  O   UNL     1      -2.935 -11.793  10.939  0.00  0.00    -0.170 OA
ATOM     24  C   UNL     1      -4.145  -9.469  11.017  0.00  0.00    +0.200 C 
ENDBRANCH  20   1
ENDBRANCH  15  16
ENDBRANCH   7  15
ENDBRANCH  10   7
BRANCH  12  14
ATOM     14  C   UNL     1      -7.283  -9.657  16.740  0.00  0.00    +0.138 C 
BRANCH  14   8
ATOM      4  O   UNL     1      -9.521 -10.184  15.019  0.00  0.00    -0.270 OA
ATOM      8  N   UNL     1      -8.349  -8.751  16.417  0.00  0.00    -0.309 N 
ATOM     17  C   UNL     1      -9.397  -9.093  15.570  0.00  0.00    +0.244 C 
ATOM     31  H   UNL     1      -8.266  -7.805  16.776  0.00  0.00    +0.149 HD
BRANCH  17  23
ATOM      9  N   UNL     1     -12.304  -6.038  14.833  0.00  0.00    -0.263 NA
ATOM     23  C   UNL     1     -10.407  -8.034  15.315  0.00  0.00    +0.040 A 
ATOM     25  C   UNL     1     -11.319  -8.174  14.274  0.00  0.00    +0.033 A 
ATOM     26  C   UNL     1     -10.442  -6.897  16.115  0.00  0.00    +0.033 A 
ATOM     27  C   UNL     1     -12.239  -7.157  14.077  0.00  0.00    +0.111 A 
ATOM     28  C   UNL     1     -11.402  -5.936  15.834  0.00  0.00    +0.111 A 
ENDBRANCH  17  23
ENDBRANCH  14   8
ENDBRANCH  12  14
TORSDOF 8
ENDMDL
MODEL 8
REMARK VINA RESULT:      -6.3     26.737     30.249
REMARK  Name = 75536798
REMARK  9 active torsions:
REMARK  status: ('A' for Active; 'I' for Inactive)
REMARK    1  A    between atoms: S_1  and  C_20
REMARK    2  A    between atoms: S_1  and  C_24
REMARK    3  A    between atoms: O_3  and  C_11
REMARK    4  A    between atoms: N_7  and  C_10
REMARK    5  A    between atoms: N_7  and  C_15
REMARK    6  A    between atoms: N_8  and  C_14
REMARK    7  A    between atoms: C_12  and  C_14
REMARK    8  A    between atoms: C_15  and  C_16
REMARK    9  A    between atoms: C_17  and  C_23
REMARK                            x       y       z     vdW  Elec       q    Type
REMARK                         _______ _______ _______ _____ _____    ______ ____
ROOT
ATOM      2  O   UNL     1     -17.849   4.956  24.126  0.00  0.00    -0.371 OA
ATOM     10  C   UNL     1     -15.863   4.343  22.992  0.00  0.00    +0.111 C 
ATOM     11  C   UNL     1     -16.073   3.360  24.130  0.00  0.00    +0.164 C 
ATOM     12  C   UNL     1     -17.232   3.940  24.939  0.00  0.00    +0.165 C 
ATOM     13  C   UNL     1     -17.256   4.925  22.822  0.00  0.00    +0.181 C 
ENDROOT
BRANCH  11   3
ATOM      3  O   UNL     1     -16.481   2.113  23.559  0.00  0.00    -0.388 OA
ATOM     30  H   UNL     1     -16.974   1.629  24.243  0.00  0.00    +0.210 HD
ENDBRANCH  11   3
BRANCH  10   7
ATOM      7  N   UNL     1     -14.906   5.387  23.354  0.00  0.00    -0.305 NA
ATOM     29  H   UNL     1     -15.242   6.285  23.004  0.00  0.00    +0.123 HD
BRANCH   7  15
ATOM     15  C   UNL     1     -13.597   5.124  22.768  0.00  0.00    +0.116 C 
BRANCH  15  16
ATOM     16  C   UNL     1     -13.312   6.033  21.602  0.00  0.00    -0.033 A 
ATOM     18  C   UNL     1     -11.997   6.252  21.192  0.00  0.00    +0.007 A 
ATOM     19  C   UNL     1     -14.364   6.659  20.932  0.00  0.00    +0.007 A 
ATOM     20  C   UNL     1     -12.784   7.719  19.442  0.00  0.00    +0.088 A 
ATOM     21  C   UNL     1     -11.733   7.094  20.113  0.00  0.00    +0.027 A 
ATOM     22  C   UNL     1     -14.100   7.502  19.853  0.00  0.00    +0.027 A 
BRANCH  20   1
ATOM      1  S   UNL     1     -12.454   8.771  18.088  0.00  0.00    -0.006 S 
ATOM      5  O   UNL     1     -13.388   8.463  17.013  0.00  0.00    -0.170 OA
ATOM      6  O   UNL     1     -12.357  10.133  18.593  0.00  0.00    -0.170 OA
ATOM     24  C   UNL     1     -10.840   8.278  17.529  0.00  0.00    +0.200 C 
ENDBRANCH  20   1
ENDBRANCH  15  16
ENDBRANCH   7  15
ENDBRANCH  10   7
BRANCH  12  14
ATOM     14  C   UNL     1     -16.799   4.577  26.251  0.00  0.00    +0.138 C 
BRANCH  14   8
ATOM      4  O   UNL     1     -16.604   4.671  29.115  0.00  0.00    -0.270 OA
ATOM      8  N   UNL     1     -16.131   3.629  27.096  0.00  0.00    -0.309 N 
ATOM     17  C   UNL     1     -16.086   3.755  28.481  0.00  0.00    +0.244 C 
ATOM     31  H   UNL     1     -15.614   2.890  26.631  0.00  0.00    +0.149 HD
BRANCH  17  23
ATOM      9  N   UNL     1     -13.914   0.726  30.589  0.00  0.00    -0.263 NA
ATOM     23  C   UNL     1     -15.332   2.703  29.211  0.00  0.00    +0.040 A 
ATOM     25  C   UNL     1     -15.675   1.365  29.060  0.00  0.00    +0.033 A 
ATOM     26  C   UNL     1     -14.280   3.055  30.051  0.00  0.00    +0.033 A 
ATOM     27  C   UNL     1     -14.942   0.424  29.764  0.00  0.00    +0.111 A 
ATOM     28  C   UNL     1     -13.610   2.038  30.711  0.00  0.00    +0.111 A 
ENDBRANCH  17  23
ENDBRANCH  14   8
ENDBRANCH  12  14
TORSDOF 8
ENDMDL
MODEL 9
REMARK VINA RESULT:      -6.2     26.529     29.250
REMARK  Name = 75536798
REMARK  9 active torsions:
REMARK  status: ('A' for Active; 'I' for Inactive)
REMARK    1  A    between atoms: S_1  and  C_20
REMARK    2  A    between atoms: S_1  and  C_24
REMARK    3  A    between atoms: O_3  and  C_11
REMARK    4  A    between atoms: N_7  and  C_10
REMARK    5  A    between atoms: N_7  and  C_15
REMARK    6  A    between atoms: N_8  and  C_14
REMARK    7  A    between atoms: C_12  and  C_14
REMARK    8  A    between atoms: C_15  and  C_16
REMARK    9  A    between atoms: C_17  and  C_23
REMARK                            x       y       z     vdW  Elec       q    Type
REMARK                         _______ _______ _______ _____ _____    ______ ____
ROOT
ATOM      2  O   UNL     1      -3.831 -12.384  15.471  0.00  0.00    -0.371 OA
ATOM     10  C   UNL     1      -2.069 -11.150  14.482  0.00  0.00    +0.111 C 
ATOM     11  C   UNL     1      -2.301 -10.597  15.877  0.00  0.00    +0.164 C 
ATOM     12  C   UNL     1      -3.577 -11.283  16.363  0.00  0.00    +0.165 C 
ATOM     13  C   UNL     1      -2.719 -12.520  14.578  0.00  0.00    +0.181 C 
ENDROOT
BRANCH  11   3
ATOM      3  O   UNL     1      -1.206 -11.015  16.698  0.00  0.00    -0.388 OA
ATOM     30  H   UNL     1      -1.410 -11.909  17.020  0.00  0.00    +0.210 HD
ENDBRANCH  11   3
BRANCH  10   7
ATOM      7  N   UNL     1      -2.730 -10.335  13.464  0.00  0.00    -0.305 NA
ATOM     29  H   UNL     1      -3.657 -10.719  13.277  0.00  0.00    +0.123 HD
BRANCH   7  15
ATOM     15  C   UNL     1      -1.971 -10.334  12.220  0.00  0.00    +0.116 C 
BRANCH  15  16
ATOM     16  C   UNL     1      -2.870 -10.404  11.015  0.00  0.00    -0.033 A 
ATOM     18  C   UNL     1      -3.151  -9.249  10.285  0.00  0.00    +0.007 A 
ATOM     19  C   UNL     1      -3.425 -11.625  10.628  0.00  0.00    +0.007 A 
ATOM     20  C   UNL     1      -4.539 -10.534   8.782  0.00  0.00    +0.088 A 
ATOM     21  C   UNL     1      -3.984  -9.314   9.169  0.00  0.00    +0.027 A 
ATOM     22  C   UNL     1      -4.259 -11.689   9.513  0.00  0.00    +0.027 A 
BRANCH  20   1
ATOM      1  S   UNL     1      -5.580 -10.616   7.383  0.00  0.00    -0.006 S 
ATOM      5  O   UNL     1      -6.333  -9.372   7.282  0.00  0.00    -0.170 OA
ATOM      6  O   UNL     1      -4.780 -11.070   6.255  0.00  0.00    -0.170 OA
ATOM     24  C   UNL     1      -6.749 -11.897   7.776  0.00  0.00    +0.200 C 
ENDBRANCH  20   1
ENDBRANCH  15  16
ENDBRANCH   7  15
ENDBRANCH  10   7
BRANCH  12  14
ATOM     14  C   UNL     1      -4.797 -10.373  16.357  0.00  0.00    +0.138 C 
BRANCH  14   8
ATOM      4  O   UNL     1      -7.359  -9.173  16.848  0.00  0.00    -0.270 OA
ATOM      8  N   UNL     1      -5.830 -10.880  17.214  0.00  0.00    -0.309 N 
ATOM     17  C   UNL     1      -7.047 -10.229  17.393  0.00  0.00    +0.244 C 
ATOM     31  H   UNL     1      -5.606 -11.708  17.756  0.00  0.00    +0.149 HD
BRANCH  17  23
ATOM      9  N   UNL     1      -9.794 -12.072  20.110  0.00  0.00    -0.263 NA
ATOM     23  C   UNL     1      -8.001 -10.869  18.334  0.00  0.00    +0.040 A 
ATOM     25  C   UNL     1      -9.244 -10.291  18.570  0.00  0.00    +0.033 A 
ATOM     26  C   UNL     1      -7.653 -12.047  18.986  0.00  0.00    +0.033 A 
ATOM     27  C   UNL     1     -10.096 -10.927  19.458  0.00  0.00    +0.111 A 
ATOM     28  C   UNL     1      -8.578 -12.604  19.856  0.00  0.00    +0.111 A 
ENDBRANCH  17  23
ENDBRANCH  14   8
ENDBRANCH  12  14
TORSDOF 8
ENDMDL
MODEL 10
REMARK VINA RESULT:      -6.2     26.533     28.735
REMARK  Name = 75536798
REMARK  9 active torsions:
REMARK  status: ('A' for Active; 'I' for Inactive)
REMARK    1  A    between atoms: S_1  and  C_20
REMARK    2  A    between atoms: S_1  and  C_24
REMARK    3  A    between atoms: O_3  and  C_11
REMARK    4  A    between atoms: N_7  and  C_10
REMARK    5  A    between atoms: N_7  and  C_15
REMARK    6  A    between atoms: N_8  and  C_14
REMARK    7  A    between atoms: C_12  and  C_14
REMARK    8  A    between atoms: C_15  and  C_16
REMARK    9  A    between atoms: C_17  and  C_23
REMARK                            x       y       z     vdW  Elec       q    Type
REMARK                         _______ _______ _______ _____ _____    ______ ____
ROOT
ATOM      2  O   UNL     1      -5.227 -10.425   9.103  0.00  0.00    -0.371 OA
ATOM     10  C   UNL     1      -6.593  -9.165  10.570  0.00  0.00    +0.111 C 
ATOM     11  C   UNL     1      -5.747  -8.192   9.768  0.00  0.00    +0.164 C 
ATOM     12  C   UNL     1      -4.749  -9.070   9.014  0.00  0.00    +0.165 C 
ATOM     13  C   UNL     1      -6.523 -10.418   9.713  0.00  0.00    +0.181 C 
ENDROOT
BRANCH  11   3
ATOM      3  O   UNL     1      -6.605  -7.545   8.824  0.00  0.00    -0.388 OA
ATOM     30  H   UNL     1      -6.341  -6.610   8.787  0.00  0.00    +0.210 HD
ENDBRANCH  11   3
BRANCH  10   7
ATOM      7  N   UNL     1      -6.021  -9.411  11.893  0.00  0.00    -0.305 NA
ATOM     29  H   UNL     1      -5.024  -9.193  11.872  0.00  0.00    +0.123 HD
BRANCH   7  15
ATOM     15  C   UNL     1      -6.180 -10.807  12.281  0.00  0.00    +0.116 C 
BRANCH  15  16
ATOM     16  C   UNL     1      -5.902 -11.016  13.746  0.00  0.00    -0.033 A 
ATOM     18  C   UNL     1      -5.917 -12.304  14.282  0.00  0.00    +0.007 A 
ATOM     19  C   UNL     1      -5.631  -9.922  14.568  0.00  0.00    +0.007 A 
ATOM     20  C   UNL     1      -5.389 -11.404  16.461  0.00  0.00    +0.088 A 
ATOM     21  C   UNL     1      -5.660 -12.497  15.639  0.00  0.00    +0.027 A 
ATOM     22  C   UNL     1      -5.375 -10.115  15.925  0.00  0.00    +0.027 A 
BRANCH  20   1
ATOM      1  S   UNL     1      -5.064 -11.646  18.159  0.00  0.00    -0.006 S 
ATOM      5  O   UNL     1      -5.671 -12.902  18.581  0.00  0.00    -0.170 OA
ATOM      6  O   UNL     1      -3.643 -11.422  18.380  0.00  0.00    -0.170 OA
ATOM     24  C   UNL     1      -5.957 -10.341  18.972  0.00  0.00    +0.200 C 
ENDBRANCH  20   1
ENDBRANCH  15  16
ENDBRANCH   7  15
ENDBRANCH  10   7
BRANCH  12  14
ATOM     14  C   UNL     1      -3.341  -9.022   9.589  0.00  0.00    +0.138 C 
BRANCH  14   8
ATOM      4  O   UNL     1      -1.036  -9.285  11.282  0.00  0.00    -0.270 OA
ATOM      8  N   UNL     1      -3.229  -9.841  10.762  0.00  0.00    -0.309 N 
ATOM     17  C   UNL     1      -2.067  -9.907  11.525  0.00  0.00    +0.244 C 
ATOM     31  H   UNL     1      -4.018 -10.442  10.975  0.00  0.00    +0.149 HD
BRANCH  17  23
ATOM      9  N   UNL     1      -2.164 -12.546  14.895  0.00  0.00    -0.263 NA
ATOM     23  C   UNL     1      -2.102 -10.823  12.695  0.00  0.00    +0.040 A 
ATOM     25  C   UNL     1      -1.886 -10.327  13.976  0.00  0.00    +0.033 A 
ATOM     26  C   UNL     1      -2.349 -12.179  12.512  0.00  0.00    +0.033 A 
ATOM     27  C   UNL     1      -1.927 -11.222  15.033  0.00  0.00    +0.111 A 
ATOM     28  C   UNL     1      -2.369 -12.991  13.635  0.00  0.00    +0.111 A 
ENDBRANCH  17  23
ENDBRANCH  14   8
ENDBRANCH  12  14
TORSDOF 8
ENDMDL
