MODEL 1
REMARK VINA RESULT:      -8.7      0.000      0.000
REMARK  Name = 26761949
REMARK  4 active torsions:
REMARK  status: ('A' for Active; 'I' for Inactive)
REMARK    1  A    between atoms: N_5  and  C_15
REMARK    2  A    between atoms: C_10  and  C_16
REMARK    3  A    between atoms: C_15  and  C_17
REMARK    4  A    between atoms: C_21  and  C_24
REMARK                            x       y       z     vdW  Elec       q    Type
REMARK                         _______ _______ _______ _____ _____    ______ ____
ROOT
ATOM      5  N   UNL     1      13.774   7.597  19.009  0.00  0.00    -0.281 NA
ATOM      6  N   UNL     1      10.754   8.016  16.870  0.00  0.00    -0.347 N 
ATOM      7  N   UNL     1      11.960   9.599  15.851  0.00  0.00    -0.240 NA
ATOM     10  C   UNL     1      14.285   8.992  18.839  0.00  0.00    +0.152 C 
ATOM     11  C   UNL     1      13.966   9.556  17.408  0.00  0.00    +0.086 C 
ATOM     12  C   UNL     1      12.319   7.427  18.809  0.00  0.00    +0.140 C 
ATOM     13  C   UNL     1      11.907   8.143  17.583  0.00  0.00    +0.053 A 
ATOM     14  C   UNL     1      12.627   9.120  16.943  0.00  0.00    +0.065 A 
ATOM     18  C   UNL     1      10.832   8.915  15.835  0.00  0.00    +0.197 A 
ATOM     31  H   UNL     1       9.985   7.389  17.065  0.00  0.00    +0.167 HD
ENDROOT
BRANCH  10  16
ATOM      4  O   UNL     1      14.906  10.248  20.857  0.00  0.00    -0.336 OA
ATOM      8  N   UNL     1      12.788  10.572  20.203  0.00  0.00    -0.190 NA
ATOM      9  N   UNL     1      14.346  11.142  21.778  0.00  0.00    -0.056 NA
ATOM     16  C   UNL     1      13.923   9.963  19.964  0.00  0.00    +0.245 A 
ATOM     21  C   UNL     1      13.097  11.284  21.326  0.00  0.00    +0.202 A 
BRANCH  21  24
ATOM      1 CL   UNL     1      10.707  12.694  25.663  0.00  0.00    -0.081 Cl
ATOM      3  F   UNL     1       9.354  14.569  23.808  0.00  0.00    -0.204 F 
ATOM     24  C   UNL     1      12.134  12.129  21.970  0.00  0.00    +0.024 A 
ATOM     26  C   UNL     1      11.912  12.016  23.342  0.00  0.00    +0.034 A 
ATOM     27  C   UNL     1      11.417  13.063  21.223  0.00  0.00    +0.014 A 
ATOM     28  C   UNL     1      10.975  12.837  23.968  0.00  0.00    +0.077 A 
ATOM     29  C   UNL     1      10.478  13.885  21.848  0.00  0.00    +0.040 A 
ATOM     30  C   UNL     1      10.258  13.772  23.221  0.00  0.00    +0.142 A 
ENDBRANCH  21  24
ENDBRANCH  10  16
BRANCH   5  15
ATOM     15  C   UNL     1      14.226   6.943  20.232  0.00  0.00    +0.120 C 
BRANCH  15  17
ATOM      2  F   UNL     1      19.753   5.853  20.107  0.00  0.00    -0.205 F 
ATOM     17  C   UNL     1      15.702   6.652  20.199  0.00  0.00    -0.033 A 
ATOM     19  C   UNL     1      16.276   6.083  19.061  0.00  0.00    +0.008 A 
ATOM     20  C   UNL     1      16.497   6.949  21.305  0.00  0.00    +0.008 A 
ATOM     22  C   UNL     1      17.644   5.813  19.030  0.00  0.00    +0.038 A 
ATOM     23  C   UNL     1      17.865   6.679  21.275  0.00  0.00    +0.038 A 
ATOM     25  C   UNL     1      18.438   6.111  20.138  0.00  0.00    +0.123 A 
ENDBRANCH  15  17
ENDBRANCH   5  15
TORSDOF 4
ENDMDL
MODEL 2
REMARK VINA RESULT:      -7.8      2.784      7.707
REMARK  Name = 26761949
REMARK  4 active torsions:
REMARK  status: ('A' for Active; 'I' for Inactive)
REMARK    1  A    between atoms: N_5  and  C_15
REMARK    2  A    between atoms: C_10  and  C_16
REMARK    3  A    between atoms: C_15  and  C_17
REMARK    4  A    between atoms: C_21  and  C_24
REMARK                            x       y       z     vdW  Elec       q    Type
REMARK                         _______ _______ _______ _____ _____    ______ ____
ROOT
ATOM      5  N   UNL     1      13.266   9.076  20.607  0.00  0.00    -0.281 NA
ATOM      6  N   UNL     1      12.375   9.896  17.084  0.00  0.00    -0.347 N 
ATOM      7  N   UNL     1      11.632   7.788  17.009  0.00  0.00    -0.240 NA
ATOM     10  C   UNL     1      13.427   7.605  20.392  0.00  0.00    +0.152 C 
ATOM     11  C   UNL     1      12.425   7.063  19.310  0.00  0.00    +0.086 C 
ATOM     12  C   UNL     1      13.458   9.915  19.404  0.00  0.00    +0.140 C 
ATOM     13  C   UNL     1      12.717   9.321  18.271  0.00  0.00    +0.053 A 
ATOM     14  C   UNL     1      12.256   8.031  18.199  0.00  0.00    +0.065 A 
ATOM     18  C   UNL     1      11.722   8.931  16.357  0.00  0.00    +0.197 A 
ATOM     31  H   UNL     1      12.566  10.844  16.790  0.00  0.00    +0.167 HD
ENDROOT
BRANCH  10  16
ATOM      4  O   UNL     1      15.169   6.671  18.933  0.00  0.00    -0.336 OA
ATOM      8  N   UNL     1      15.863   7.092  21.020  0.00  0.00    -0.190 NA
ATOM      9  N   UNL     1      16.517   6.296  18.977  0.00  0.00    -0.056 NA
ATOM     16  C   UNL     1      14.864   7.128  20.175  0.00  0.00    +0.245 A 
ATOM     21  C   UNL     1      16.856   6.574  20.239  0.00  0.00    +0.202 A 
BRANCH  21  24
ATOM      1 CL   UNL     1      20.354   7.499  23.902  0.00  0.00    -0.081 Cl
ATOM      3  F   UNL     1      21.983   5.686  22.214  0.00  0.00    -0.204 F 
ATOM     24  C   UNL     1      18.176   6.348  20.752  0.00  0.00    +0.024 A 
ATOM     26  C   UNL     1      18.579   6.961  21.938  0.00  0.00    +0.034 A 
ATOM     27  C   UNL     1      19.058   5.515  20.063  0.00  0.00    +0.014 A 
ATOM     28  C   UNL     1      19.863   6.740  22.437  0.00  0.00    +0.077 A 
ATOM     29  C   UNL     1      20.343   5.295  20.560  0.00  0.00    +0.040 A 
ATOM     30  C   UNL     1      20.745   5.908  21.748  0.00  0.00    +0.142 A 
ENDBRANCH  21  24
ENDBRANCH  10  16
BRANCH   5  15
ATOM     15  C   UNL     1      14.012   9.596  21.747  0.00  0.00    +0.120 C 
BRANCH  15  17
ATOM      2  F   UNL     1      10.687  12.410  25.321  0.00  0.00    -0.205 F 
ATOM     17  C   UNL     1      13.124  10.348  22.701  0.00  0.00    -0.033 A 
ATOM     19  C   UNL     1      11.749  10.109  22.710  0.00  0.00    +0.008 A 
ATOM     20  C   UNL     1      13.674  11.283  23.577  0.00  0.00    +0.008 A 
ATOM     22  C   UNL     1      10.926  10.805  23.595  0.00  0.00    +0.038 A 
ATOM     23  C   UNL     1      12.851  11.980  24.462  0.00  0.00    +0.038 A 
ATOM     25  C   UNL     1      11.478  11.742  24.470  0.00  0.00    +0.123 A 
ENDBRANCH  15  17
ENDBRANCH   5  15
TORSDOF 4
ENDMDL
MODEL 3
REMARK VINA RESULT:      -7.2     27.329     28.909
REMARK  Name = 26761949
REMARK  4 active torsions:
REMARK  status: ('A' for Active; 'I' for Inactive)
REMARK    1  A    between atoms: N_5  and  C_15
REMARK    2  A    between atoms: C_10  and  C_16
REMARK    3  A    between atoms: C_15  and  C_17
REMARK    4  A    between atoms: C_21  and  C_24
REMARK                            x       y       z     vdW  Elec       q    Type
REMARK                         _______ _______ _______ _____ _____    ______ ____
ROOT
ATOM      5  N   UNL     1      -3.010 -11.936  15.052  0.00  0.00    -0.281 NA
ATOM      6  N   UNL     1      -4.046 -15.347  13.971  0.00  0.00    -0.347 N 
ATOM      7  N   UNL     1      -1.955 -15.499  13.191  0.00  0.00    -0.240 NA
ATOM     10  C   UNL     1      -1.950 -11.755  14.014  0.00  0.00    +0.152 C 
ATOM     11  C   UNL     1      -1.237 -13.111  13.669  0.00  0.00    +0.086 C 
ATOM     12  C   UNL     1      -4.082 -12.893  14.702  0.00  0.00    +0.140 C 
ATOM     13  C   UNL     1      -3.477 -14.122  14.144  0.00  0.00    +0.053 A 
ATOM     14  C   UNL     1      -2.200 -14.239  13.657  0.00  0.00    +0.065 A 
ATOM     18  C   UNL     1      -3.089 -16.144  13.393  0.00  0.00    +0.197 A 
ATOM     31  H   UNL     1      -4.989 -15.619  14.212  0.00  0.00    +0.167 HD
ENDROOT
BRANCH  10  16
ATOM      4  O   UNL     1      -1.427 -10.183  12.200  0.00  0.00    -0.336 OA
ATOM      8  N   UNL     1      -3.539 -10.930  12.173  0.00  0.00    -0.190 NA
ATOM      9  N   UNL     1      -2.043  -9.569  11.101  0.00  0.00    -0.056 NA
ATOM     16  C   UNL     1      -2.376 -10.966  12.774  0.00  0.00    +0.245 A 
ATOM     21  C   UNL     1      -3.285 -10.060  11.152  0.00  0.00    +0.202 A 
BRANCH  21  24
ATOM      1 CL   UNL     1      -5.303 -10.687   6.457  0.00  0.00    -0.081 Cl
ATOM      3  F   UNL     1      -7.214  -8.659   7.468  0.00  0.00    -0.204 F 
ATOM     24  C   UNL     1      -4.296  -9.702  10.200  0.00  0.00    +0.024 A 
ATOM     26  C   UNL     1      -4.309 -10.296   8.938  0.00  0.00    +0.034 A 
ATOM     27  C   UNL     1      -5.267  -8.758  10.535  0.00  0.00    +0.014 A 
ATOM     28  C   UNL     1      -5.292  -9.948   8.012  0.00  0.00    +0.077 A 
ATOM     29  C   UNL     1      -6.250  -8.408   9.609  0.00  0.00    +0.040 A 
ATOM     30  C   UNL     1      -6.262  -9.004   8.348  0.00  0.00    +0.142 A 
ENDBRANCH  21  24
ENDBRANCH  10  16
BRANCH   5  15
ATOM     15  C   UNL     1      -3.557 -10.687  15.570  0.00  0.00    +0.120 C 
BRANCH  15  17
ATOM      2  F   UNL     1      -6.025 -11.397  20.586  0.00  0.00    -0.205 F 
ATOM     17  C   UNL     1      -4.216 -10.877  16.910  0.00  0.00    -0.033 A 
ATOM     19  C   UNL     1      -3.571 -11.608  17.908  0.00  0.00    +0.008 A 
ATOM     20  C   UNL     1      -5.472 -10.322  17.154  0.00  0.00    +0.008 A 
ATOM     22  C   UNL     1      -4.182 -11.784  19.149  0.00  0.00    +0.038 A 
ATOM     23  C   UNL     1      -6.083 -10.498  18.396  0.00  0.00    +0.038 A 
ATOM     25  C   UNL     1      -5.439 -11.229  19.392  0.00  0.00    +0.123 A 
ENDBRANCH  15  17
ENDBRANCH   5  15
TORSDOF 4
ENDMDL
MODEL 4
REMARK VINA RESULT:      -7.1      2.796      6.837
REMARK  Name = 26761949
REMARK  4 active torsions:
REMARK  status: ('A' for Active; 'I' for Inactive)
REMARK    1  A    between atoms: N_5  and  C_15
REMARK    2  A    between atoms: C_10  and  C_16
REMARK    3  A    between atoms: C_15  and  C_17
REMARK    4  A    between atoms: C_21  and  C_24
REMARK                            x       y       z     vdW  Elec       q    Type
REMARK                         _______ _______ _______ _____ _____    ______ ____
ROOT
ATOM      5  N   UNL     1      12.255   9.106  18.840  0.00  0.00    -0.281 NA
ATOM      6  N   UNL     1      14.001  11.598  16.693  0.00  0.00    -0.347 N 
ATOM      7  N   UNL     1      14.343   9.861  15.327  0.00  0.00    -0.240 NA
ATOM     10  C   UNL     1      13.014   7.914  18.351  0.00  0.00    +0.152 C 
ATOM     11  C   UNL     1      13.392   8.051  16.832  0.00  0.00    +0.086 C 
ATOM     12  C   UNL     1      12.952  10.402  18.699  0.00  0.00    +0.140 C 
ATOM     13  C   UNL     1      13.541  10.496  17.345  0.00  0.00    +0.053 A 
ATOM     14  C   UNL     1      13.764   9.445  16.492  0.00  0.00    +0.065 A 
ATOM     18  C   UNL     1      14.475  11.165  15.479  0.00  0.00    +0.197 A 
ATOM     31  H   UNL     1      14.002  12.551  17.033  0.00  0.00    +0.167 HD
ENDROOT
BRANCH  10  16
ATOM      4  O   UNL     1      13.937   6.515  20.147  0.00  0.00    -0.336 OA
ATOM      8  N   UNL     1      15.427   7.912  19.228  0.00  0.00    -0.190 NA
ATOM      9  N   UNL     1      15.145   6.292  20.820  0.00  0.00    -0.056 NA
ATOM     16  C   UNL     1      14.190   7.482  19.228  0.00  0.00    +0.245 A 
ATOM     21  C   UNL     1      15.975   7.152  20.222  0.00  0.00    +0.202 A 
BRANCH  21  24
ATOM      1 CL   UNL     1      19.637   9.830  22.655  0.00  0.00    -0.081 Cl
ATOM      3  F   UNL     1      21.334   7.620  21.645  0.00  0.00    -0.204 F 
ATOM     24  C   UNL     1      17.355   7.276  20.591  0.00  0.00    +0.024 A 
ATOM     26  C   UNL     1      17.778   8.364  21.354  0.00  0.00    +0.034 A 
ATOM     27  C   UNL     1      18.274   6.309  20.186  0.00  0.00    +0.014 A 
ATOM     28  C   UNL     1      19.120   8.485  21.713  0.00  0.00    +0.077 A 
ATOM     29  C   UNL     1      19.617   6.430  20.544  0.00  0.00    +0.040 A 
ATOM     30  C   UNL     1      20.040   7.518  21.308  0.00  0.00    +0.142 A 
ENDBRANCH  21  24
ENDBRANCH  10  16
BRANCH   5  15
ATOM     15  C   UNL     1      11.690   8.945  20.175  0.00  0.00    +0.120 C 
BRANCH  15  17
ATOM      2  F   UNL     1      13.878  12.627  23.836  0.00  0.00    -0.205 F 
ATOM     17  C   UNL     1      12.275   9.929  21.153  0.00  0.00    -0.033 A 
ATOM     19  C   UNL     1      11.610  11.126  21.420  0.00  0.00    +0.008 A 
ATOM     20  C   UNL     1      13.481   9.644  21.792  0.00  0.00    +0.008 A 
ATOM     22  C   UNL     1      12.151  12.037  22.326  0.00  0.00    +0.038 A 
ATOM     23  C   UNL     1      14.023  10.556  22.698  0.00  0.00    +0.038 A 
ATOM     25  C   UNL     1      13.358  11.752  22.964  0.00  0.00    +0.123 A 
ENDBRANCH  15  17
ENDBRANCH   5  15
TORSDOF 4
ENDMDL
MODEL 5
REMARK VINA RESULT:      -6.9     25.008     26.249
REMARK  Name = 26761949
REMARK  4 active torsions:
REMARK  status: ('A' for Active; 'I' for Inactive)
REMARK    1  A    between atoms: N_5  and  C_15
REMARK    2  A    between atoms: C_10  and  C_16
REMARK    3  A    between atoms: C_15  and  C_17
REMARK    4  A    between atoms: C_21  and  C_24
REMARK                            x       y       z     vdW  Elec       q    Type
REMARK                         _______ _______ _______ _____ _____    ______ ____
ROOT
ATOM      5  N   UNL     1     -11.967   7.951  19.783  0.00  0.00    -0.281 NA
ATOM      6  N   UNL     1     -12.893   5.134  22.037  0.00  0.00    -0.347 N 
ATOM      7  N   UNL     1     -14.995   5.768  21.611  0.00  0.00    -0.240 NA
ATOM     10  C   UNL     1     -13.199   8.763  20.028  0.00  0.00    +0.152 C 
ATOM     11  C   UNL     1     -14.457   7.852  20.264  0.00  0.00    +0.086 C 
ATOM     12  C   UNL     1     -11.604   7.010  20.864  0.00  0.00    +0.140 C 
ATOM     13  C   UNL     1     -12.812   6.276  21.299  0.00  0.00    +0.053 A 
ATOM     14  C   UNL     1     -14.110   6.647  21.054  0.00  0.00    +0.065 A 
ATOM     18  C   UNL     1     -14.230   4.868  22.199  0.00  0.00    +0.197 A 
ATOM     31  H   UNL     1     -12.123   4.590  22.402  0.00  0.00    +0.167 HD
ENDROOT
BRANCH  10  16
ATOM      4  O   UNL     1     -13.226  11.145  20.629  0.00  0.00    -0.336 OA
ATOM      8  N   UNL     1     -12.784   9.780  22.349  0.00  0.00    -0.190 NA
ATOM      9  N   UNL     1     -13.047  11.972  21.745  0.00  0.00    -0.056 NA
ATOM     16  C   UNL     1     -13.054   9.872  21.071  0.00  0.00    +0.245 A 
ATOM     21  C   UNL     1     -12.790  11.094  22.720  0.00  0.00    +0.202 A 
BRANCH  21  24
ATOM      1 CL   UNL     1     -10.695  10.006  27.296  0.00  0.00    -0.081 Cl
ATOM      3  F   UNL     1     -11.817  12.666  27.969  0.00  0.00    -0.204 F 
ATOM     24  C   UNL     1     -12.537  11.495  24.073  0.00  0.00    +0.024 A 
ATOM     26  C   UNL     1     -11.824  10.656  24.929  0.00  0.00    +0.034 A 
ATOM     27  C   UNL     1     -13.005  12.725  24.535  0.00  0.00    +0.014 A 
ATOM     28  C   UNL     1     -11.577  11.046  26.245  0.00  0.00    +0.077 A 
ATOM     29  C   UNL     1     -12.760  13.116  25.851  0.00  0.00    +0.040 A 
ATOM     30  C   UNL     1     -12.046  12.277  26.706  0.00  0.00    +0.142 A 
ENDBRANCH  21  24
ENDBRANCH  10  16
BRANCH   5  15
ATOM     15  C   UNL     1     -10.817   8.733  19.345  0.00  0.00    +0.120 C 
BRANCH  15  17
ATOM      2  F   UNL     1     -11.151  10.077  13.883  0.00  0.00    -0.205 F 
ATOM     17  C   UNL     1     -10.906   9.092  17.886  0.00  0.00    -0.033 A 
ATOM     19  C   UNL     1     -10.697   8.115  16.912  0.00  0.00    +0.008 A 
ATOM     20  C   UNL     1     -11.197  10.402  17.506  0.00  0.00    +0.008 A 
ATOM     22  C   UNL     1     -10.780   8.447  15.561  0.00  0.00    +0.038 A 
ATOM     23  C   UNL     1     -11.279  10.735  16.154  0.00  0.00    +0.038 A 
ATOM     25  C   UNL     1     -11.070   9.758  15.182  0.00  0.00    +0.123 A 
ENDBRANCH  15  17
ENDBRANCH   5  15
TORSDOF 4
ENDMDL
MODEL 6
REMARK VINA RESULT:      -6.8     24.738     27.221
REMARK  Name = 26761949
REMARK  4 active torsions:
REMARK  status: ('A' for Active; 'I' for Inactive)
REMARK    1  A    between atoms: N_5  and  C_15
REMARK    2  A    between atoms: C_10  and  C_16
REMARK    3  A    between atoms: C_15  and  C_17
REMARK    4  A    between atoms: C_21  and  C_24
REMARK                            x       y       z     vdW  Elec       q    Type
REMARK                         _______ _______ _______ _____ _____    ______ ____
ROOT
ATOM      5  N   UNL     1     -13.040   7.019  20.744  0.00  0.00    -0.281 NA
ATOM      6  N   UNL     1     -15.607   4.653  22.044  0.00  0.00    -0.347 N 
ATOM      7  N   UNL     1     -17.071   6.096  21.164  0.00  0.00    -0.240 NA
ATOM     10  C   UNL     1     -13.912   8.234  20.778  0.00  0.00    +0.152 C 
ATOM     11  C   UNL     1     -15.409   7.883  20.461  0.00  0.00    +0.086 C 
ATOM     12  C   UNL     1     -13.423   5.939  21.679  0.00  0.00    +0.140 C 
ATOM     13  C   UNL     1     -14.883   5.717  21.597  0.00  0.00    +0.053 A 
ATOM     14  C   UNL     1     -15.800   6.588  21.067  0.00  0.00    +0.065 A 
ATOM     18  C   UNL     1     -16.922   4.929  21.759  0.00  0.00    +0.197 A 
ATOM     31  H   UNL     1     -15.252   3.825  22.501  0.00  0.00    +0.167 HD
ENDROOT
BRANCH  10  16
ATOM      4  O   UNL     1     -13.142  10.321  21.823  0.00  0.00    -0.336 OA
ATOM      8  N   UNL     1     -14.113   8.894  23.252  0.00  0.00    -0.190 NA
ATOM      9  N   UNL     1     -13.108  10.943  23.077  0.00  0.00    -0.056 NA
ATOM     16  C   UNL     1     -13.750   9.121  22.014  0.00  0.00    +0.245 A 
ATOM     21  C   UNL     1     -13.698  10.041  23.867  0.00  0.00    +0.202 A 
BRANCH  21  24
ATOM      1 CL   UNL     1     -11.617  10.547  28.549  0.00  0.00    -0.081 Cl
ATOM      3  F   UNL     1     -14.462  10.862  29.317  0.00  0.00    -0.204 F 
ATOM     24  C   UNL     1     -13.890  10.252  25.272  0.00  0.00    +0.024 A 
ATOM     26  C   UNL     1     -12.791  10.292  26.129  0.00  0.00    +0.034 A 
ATOM     27  C   UNL     1     -15.178  10.418  25.782  0.00  0.00    +0.014 A 
ATOM     28  C   UNL     1     -12.978  10.498  27.496  0.00  0.00    +0.077 A 
ATOM     29  C   UNL     1     -15.366  10.623  27.149  0.00  0.00    +0.040 A 
ATOM     30  C   UNL     1     -14.266  10.663  28.006  0.00  0.00    +0.142 A 
ENDBRANCH  21  24
ENDBRANCH  10  16
BRANCH   5  15
ATOM     15  C   UNL     1     -11.613   7.308  20.816  0.00  0.00    +0.120 C 
BRANCH  15  17
ATOM      2  F   UNL     1      -9.791  10.034  16.233  0.00  0.00    -0.205 F 
ATOM     17  C   UNL     1     -11.126   8.036  19.592  0.00  0.00    -0.033 A 
ATOM     19  C   UNL     1     -10.582   9.315  19.711  0.00  0.00    +0.008 A 
ATOM     20  C   UNL     1     -11.219   7.433  18.338  0.00  0.00    +0.008 A 
ATOM     22  C   UNL     1     -10.131   9.990  18.577  0.00  0.00    +0.038 A 
ATOM     23  C   UNL     1     -10.769   8.108  17.203  0.00  0.00    +0.038 A 
ATOM     25  C   UNL     1     -10.225   9.386  17.323  0.00  0.00    +0.123 A 
ENDBRANCH  15  17
ENDBRANCH   5  15
TORSDOF 4
ENDMDL
MODEL 7
REMARK VINA RESULT:      -6.7     22.259     25.099
REMARK  Name = 26761949
REMARK  4 active torsions:
REMARK  status: ('A' for Active; 'I' for Inactive)
REMARK    1  A    between atoms: N_5  and  C_15
REMARK    2  A    between atoms: C_10  and  C_16
REMARK    3  A    between atoms: C_15  and  C_17
REMARK    4  A    between atoms: C_21  and  C_24
REMARK                            x       y       z     vdW  Elec       q    Type
REMARK                         _______ _______ _______ _____ _____    ______ ____
ROOT
ATOM      5  N   UNL     1      -1.519   8.796  37.919  0.00  0.00    -0.281 NA
ATOM      6  N   UNL     1       0.669  11.285  36.219  0.00  0.00    -0.347 N 
ATOM      7  N   UNL     1      -0.265  12.748  37.629  0.00  0.00    -0.240 NA
ATOM     10  C   UNL     1      -2.574   9.769  38.336  0.00  0.00    +0.152 C 
ATOM     11  C   UNL     1      -1.964  11.177  38.675  0.00  0.00    +0.086 C 
ATOM     12  C   UNL     1      -0.717   9.197  36.743  0.00  0.00    +0.140 C 
ATOM     13  C   UNL     1      -0.301  10.608  36.893  0.00  0.00    +0.053 A 
ATOM     14  C   UNL     1      -0.861  11.524  37.747  0.00  0.00    +0.065 A 
ATOM     18  C   UNL     1       0.652  12.572  36.698  0.00  0.00    +0.197 A 
ATOM     31  H   UNL     1       1.279  10.919  35.501  0.00  0.00    +0.167 HD
ENDROOT
BRANCH  10  16
ATOM      4  O   UNL     1      -3.580  10.348  36.171  0.00  0.00    -0.336 OA
ATOM      8  N   UNL     1      -5.034   9.500  37.649  0.00  0.00    -0.190 NA
ATOM      9  N   UNL     1      -4.823  10.322  35.524  0.00  0.00    -0.056 NA
ATOM     16  C   UNL     1      -3.793   9.848  37.415  0.00  0.00    +0.245 A 
ATOM     21  C   UNL     1      -5.628   9.810  36.460  0.00  0.00    +0.202 A 
BRANCH  21  24
ATOM      1 CL   UNL     1      -9.941   7.324  37.775  0.00  0.00    -0.081 Cl
ATOM      3  F   UNL     1     -11.061   8.983  35.589  0.00  0.00    -0.204 F 
ATOM     24  C   UNL     1      -7.028   9.594  36.239  0.00  0.00    +0.024 A 
ATOM     26  C   UNL     1      -7.724   8.672  37.021  0.00  0.00    +0.034 A 
ATOM     27  C   UNL     1      -7.694  10.305  35.241  0.00  0.00    +0.014 A 
ATOM     28  C   UNL     1      -9.086   8.462  36.806  0.00  0.00    +0.077 A 
ATOM     29  C   UNL     1      -9.056  10.095  35.025  0.00  0.00    +0.040 A 
ATOM     30  C   UNL     1      -9.752   9.174  35.808  0.00  0.00    +0.142 A 
ENDBRANCH  21  24
ENDBRANCH  10  16
BRANCH   5  15
ATOM     15  C   UNL     1      -1.990   7.421  37.801  0.00  0.00    +0.120 C 
BRANCH  15  17
ATOM      2  F   UNL     1      -0.993   4.452  42.485  0.00  0.00    -0.205 F 
ATOM     17  C   UNL     1      -1.724   6.628  39.052  0.00  0.00    -0.033 A 
ATOM     19  C   UNL     1      -2.698   6.548  40.048  0.00  0.00    +0.008 A 
ATOM     20  C   UNL     1      -0.504   5.973  39.216  0.00  0.00    +0.008 A 
ATOM     22  C   UNL     1      -2.451   5.813  41.207  0.00  0.00    +0.038 A 
ATOM     23  C   UNL     1      -0.256   5.238  40.376  0.00  0.00    +0.038 A 
ATOM     25  C   UNL     1      -1.230   5.159  41.371  0.00  0.00    +0.123 A 
ENDBRANCH  15  17
ENDBRANCH   5  15
TORSDOF 4
ENDMDL
MODEL 8
REMARK VINA RESULT:      -6.7     13.812     16.901
REMARK  Name = 26761949
REMARK  4 active torsions:
REMARK  status: ('A' for Active; 'I' for Inactive)
REMARK    1  A    between atoms: N_5  and  C_15
REMARK    2  A    between atoms: C_10  and  C_16
REMARK    3  A    between atoms: C_15  and  C_17
REMARK    4  A    between atoms: C_21  and  C_24
REMARK                            x       y       z     vdW  Elec       q    Type
REMARK                         _______ _______ _______ _____ _____    ______ ____
ROOT
ATOM      5  N   UNL     1       9.920   6.204   5.576  0.00  0.00    -0.281 NA
ATOM      6  N   UNL     1       9.485   3.697   8.296  0.00  0.00    -0.347 N 
ATOM      7  N   UNL     1       9.522   5.478   9.648  0.00  0.00    -0.240 NA
ATOM     10  C   UNL     1      10.602   7.235   6.417  0.00  0.00    +0.152 C 
ATOM     11  C   UNL     1      10.063   7.230   7.892  0.00  0.00    +0.086 C 
ATOM     12  C   UNL     1      10.042   4.811   6.059  0.00  0.00    +0.140 C 
ATOM     13  C   UNL     1       9.770   4.774   7.512  0.00  0.00    +0.053 A 
ATOM     14  C   UNL     1       9.791   5.850   8.362  0.00  0.00    +0.065 A 
ATOM     18  C   UNL     1       9.344   4.173   9.576  0.00  0.00    +0.197 A 
ATOM     31  H   UNL     1       9.400   2.734   8.000  0.00  0.00    +0.167 HD
ENDROOT
BRANCH  10  16
ATOM      4  O   UNL     1      12.792   6.571   7.311  0.00  0.00    -0.336 OA
ATOM      8  N   UNL     1      12.910   7.806   5.447  0.00  0.00    -0.190 NA
ATOM      9  N   UNL     1      14.156   6.717   7.028  0.00  0.00    -0.056 NA
ATOM     16  C   UNL     1      12.130   7.241   6.333  0.00  0.00    +0.245 A 
ATOM     21  C   UNL     1      14.144   7.457   5.915  0.00  0.00    +0.202 A 
BRANCH  21  24
ATOM      1 CL   UNL     1      18.883   9.445   6.234  0.00  0.00    -0.081 Cl
ATOM      3  F   UNL     1      18.799   9.028   3.300  0.00  0.00    -0.204 F 
ATOM     24  C   UNL     1      15.346   7.863   5.245  0.00  0.00    +0.024 A 
ATOM     26  C   UNL     1      16.407   8.395   5.977  0.00  0.00    +0.034 A 
ATOM     27  C   UNL     1      15.452   7.726   3.861  0.00  0.00    +0.014 A 
ATOM     28  C   UNL     1      17.575   8.790   5.325  0.00  0.00    +0.077 A 
ATOM     29  C   UNL     1      16.620   8.122   3.209  0.00  0.00    +0.040 A 
ATOM     30  C   UNL     1      17.682   8.653   3.941  0.00  0.00    +0.142 A 
ENDBRANCH  21  24
ENDBRANCH  10  16
BRANCH   5  15
ATOM     15  C   UNL     1      10.219   6.303   4.152  0.00  0.00    +0.120 C 
BRANCH  15  17
ATOM      2  F   UNL     1       6.883  10.035   1.564  0.00  0.00    -0.205 F 
ATOM     17  C   UNL     1       9.328   7.300   3.460  0.00  0.00    -0.033 A 
ATOM     19  C   UNL     1       8.246   7.859   4.141  0.00  0.00    +0.008 A 
ATOM     20  C   UNL     1       9.584   7.665   2.139  0.00  0.00    +0.008 A 
ATOM     22  C   UNL     1       7.421   8.782   3.501  0.00  0.00    +0.038 A 
ATOM     23  C   UNL     1       8.757   8.589   1.498  0.00  0.00    +0.038 A 
ATOM     25  C   UNL     1       7.676   9.146   2.179  0.00  0.00    +0.123 A 
ENDBRANCH  15  17
ENDBRANCH   5  15
TORSDOF 4
ENDMDL
MODEL 9
REMARK VINA RESULT:      -6.5     32.605     34.634
REMARK  Name = 26761949
REMARK  4 active torsions:
REMARK  status: ('A' for Active; 'I' for Inactive)
REMARK    1  A    between atoms: N_5  and  C_15
REMARK    2  A    between atoms: C_10  and  C_16
REMARK    3  A    between atoms: C_15  and  C_17
REMARK    4  A    between atoms: C_21  and  C_24
REMARK                            x       y       z     vdW  Elec       q    Type
REMARK                         _______ _______ _______ _____ _____    ______ ____
ROOT
ATOM      5  N   UNL     1      -7.451  -5.426  40.777  0.00  0.00    -0.281 NA
ATOM      6  N   UNL     1      -4.326  -6.866  42.206  0.00  0.00    -0.347 N 
ATOM      7  N   UNL     1      -3.643  -6.938  40.078  0.00  0.00    -0.240 NA
ATOM     10  C   UNL     1      -7.320  -6.066  39.432  0.00  0.00    +0.152 C 
ATOM     11  C   UNL     1      -5.817  -6.197  38.995  0.00  0.00    +0.086 C 
ATOM     12  C   UNL     1      -6.756  -6.124  41.880  0.00  0.00    +0.140 C 
ATOM     13  C   UNL     1      -5.390  -6.489  41.444  0.00  0.00    +0.053 A 
ATOM     14  C   UNL     1      -4.949  -6.545  40.146  0.00  0.00    +0.065 A 
ATOM     18  C   UNL     1      -3.296  -7.126  41.336  0.00  0.00    +0.197 A 
ATOM     31  H   UNL     1      -4.297  -6.945  43.213  0.00  0.00    +0.167 HD
ENDROOT
BRANCH  10  16
ATOM      4  O   UNL     1      -7.438  -8.520  39.413  0.00  0.00    -0.336 OA
ATOM      8  N   UNL     1      -9.380  -7.515  38.930  0.00  0.00    -0.190 NA
ATOM      9  N   UNL     1      -8.362  -9.548  39.189  0.00  0.00    -0.056 NA
ATOM     16  C   UNL     1      -8.118  -7.357  39.241  0.00  0.00    +0.245 A 
ATOM     21  C   UNL     1      -9.483  -8.876  38.910  0.00  0.00    +0.202 A 
BRANCH  21  24
ATOM      1 CL   UNL     1     -12.337 -11.514  35.533  0.00  0.00    -0.081 Cl
ATOM      3  F   UNL     1     -14.297 -11.418  37.755  0.00  0.00    -0.204 F 
ATOM     24  C   UNL     1     -10.722  -9.532  38.608  0.00  0.00    +0.024 A 
ATOM     26  C   UNL     1     -10.908 -10.134  37.364  0.00  0.00    +0.034 A 
ATOM     27  C   UNL     1     -11.741  -9.568  39.559  0.00  0.00    +0.014 A 
ATOM     28  C   UNL     1     -12.113 -10.772  37.070  0.00  0.00    +0.077 A 
ATOM     29  C   UNL     1     -12.947 -10.206  39.266  0.00  0.00    +0.040 A 
ATOM     30  C   UNL     1     -13.133 -10.808  38.022  0.00  0.00    +0.142 A 
ENDBRANCH  21  24
ENDBRANCH  10  16
BRANCH   5  15
ATOM     15  C   UNL     1      -8.820  -5.081  41.142  0.00  0.00    +0.120 C 
BRANCH  15  17
ATOM      2  F   UNL     1     -10.808  -0.825  38.030  0.00  0.00    -0.205 F 
ATOM     17  C   UNL     1      -9.351  -3.944  40.311  0.00  0.00    -0.033 A 
ATOM     19  C   UNL     1     -10.396  -4.164  39.413  0.00  0.00    +0.008 A 
ATOM     20  C   UNL     1      -8.798  -2.670  40.437  0.00  0.00    +0.008 A 
ATOM     22  C   UNL     1     -10.888  -3.111  38.643  0.00  0.00    +0.038 A 
ATOM     23  C   UNL     1      -9.290  -1.616  39.666  0.00  0.00    +0.038 A 
ATOM     25  C   UNL     1     -10.334  -1.837  38.769  0.00  0.00    +0.123 A 
ENDBRANCH  15  17
ENDBRANCH   5  15
TORSDOF 4
ENDMDL
MODEL 10
REMARK VINA RESULT:      -6.5     13.782     15.941
REMARK  Name = 26761949
REMARK  4 active torsions:
REMARK  status: ('A' for Active; 'I' for Inactive)
REMARK    1  A    between atoms: N_5  and  C_15
REMARK    2  A    between atoms: C_10  and  C_16
REMARK    3  A    between atoms: C_15  and  C_17
REMARK    4  A    between atoms: C_21  and  C_24
REMARK                            x       y       z     vdW  Elec       q    Type
REMARK                         _______ _______ _______ _____ _____    ______ ____
ROOT
ATOM      5  N   UNL     1       9.396   6.534   5.243  0.00  0.00    -0.281 NA
ATOM      6  N   UNL     1      10.203   3.970   7.821  0.00  0.00    -0.347 N 
ATOM      7  N   UNL     1       9.193   5.381   9.231  0.00  0.00    -0.240 NA
ATOM     10  C   UNL     1       9.363   7.698   6.181  0.00  0.00    +0.152 C 
ATOM     11  C   UNL     1       8.819   7.288   7.596  0.00  0.00    +0.086 C 
ATOM     12  C   UNL     1      10.215   5.386   5.687  0.00  0.00    +0.140 C 
ATOM     13  C   UNL     1       9.915   5.092   7.106  0.00  0.00    +0.053 A 
ATOM     14  C   UNL     1       9.301   5.942   7.990  0.00  0.00    +0.065 A 
ATOM     18  C   UNL     1       9.748   4.192   9.097  0.00  0.00    +0.197 A 
ATOM     31  H   UNL     1      10.667   3.136   7.485  0.00  0.00    +0.167 HD
ENDROOT
BRANCH  10  16
ATOM      4  O   UNL     1      10.503   9.863   6.407  0.00  0.00    -0.336 OA
ATOM      8  N   UNL     1      11.896   8.125   6.166  0.00  0.00    -0.190 NA
ATOM      9  N   UNL     1      11.798  10.395   6.437  0.00  0.00    -0.056 NA
ATOM     16  C   UNL     1      10.650   8.522   6.246  0.00  0.00    +0.245 A 
ATOM     21  C   UNL     1      12.563   9.309   6.289  0.00  0.00    +0.202 A 
BRANCH  21  24
ATOM      1 CL   UNL     1      16.837  12.148   6.724  0.00  0.00    -0.081 Cl
ATOM      3  F   UNL     1      18.122   9.535   6.172  0.00  0.00    -0.204 F 
ATOM     24  C   UNL     1      13.996   9.372   6.260  0.00  0.00    +0.024 A 
ATOM     26  C   UNL     1      14.646  10.586   6.479  0.00  0.00    +0.034 A 
ATOM     27  C   UNL     1      14.739   8.218   6.011  0.00  0.00    +0.014 A 
ATOM     28  C   UNL     1      16.039  10.647   6.451  0.00  0.00    +0.077 A 
ATOM     29  C   UNL     1      16.132   8.278   5.982  0.00  0.00    +0.040 A 
ATOM     30  C   UNL     1      16.782   9.493   6.202  0.00  0.00    +0.142 A 
ENDBRANCH  21  24
ENDBRANCH  10  16
BRANCH   5  15
ATOM     15  C   UNL     1       9.684   6.892   3.859  0.00  0.00    +0.120 C 
BRANCH  15  17
ATOM      2  F   UNL     1      13.407   3.372   1.513  0.00  0.00    -0.205 F 
ATOM     17  C   UNL     1      10.679   5.952   3.232  0.00  0.00    -0.033 A 
ATOM     19  C   UNL     1      10.296   4.653   2.897  0.00  0.00    +0.008 A 
ATOM     20  C   UNL     1      11.983   6.379   2.986  0.00  0.00    +0.008 A 
ATOM     22  C   UNL     1      11.216   3.782   2.317  0.00  0.00    +0.038 A 
ATOM     23  C   UNL     1      12.905   5.507   2.406  0.00  0.00    +0.038 A 
ATOM     25  C   UNL     1      12.522   4.209   2.072  0.00  0.00    +0.123 A 
ENDBRANCH  15  17
ENDBRANCH   5  15
TORSDOF 4
ENDMDL
