MODEL 1
REMARK VINA RESULT:      -8.7      0.000      0.000
REMARK  Name = 56774574
REMARK  13 active torsions:
REMARK  status: ('A' for Active; 'I' for Inactive)
REMARK    1  A    between atoms: O_2  and  C_9
REMARK    2  A    between atoms: O_4  and  C_35
REMARK    3  A    between atoms: O_4  and  C_37
REMARK    4  A    between atoms: N_6  and  C_11
REMARK    5  A    between atoms: N_7  and  C_25
REMARK    6  A    between atoms: C_8  and  C_9
REMARK    7  A    between atoms: C_9  and  C_13
REMARK    8  A    between atoms: C_11  and  C_15
REMARK    9  A    between atoms: C_16  and  C_19
REMARK   10  A    between atoms: C_16  and  C_22
REMARK   11  A    between atoms: C_16  and  C_23
REMARK   12  A    between atoms: C_16  and  C_24
REMARK   13  A    between atoms: C_30  and  C_36
REMARK                            x       y       z     vdW  Elec       q    Type
REMARK                         _______ _______ _______ _____ _____    ______ ____
ROOT
ATOM     13  C   UNL     1      15.532   6.526  20.024  0.00  0.00    -0.017 A 
ATOM     17  C   UNL     1      16.211   6.039  18.906  0.00  0.00    +0.008 A 
ATOM     18  C   UNL     1      16.233   6.808  21.196  0.00  0.00    +0.008 A 
ATOM     20  C   UNL     1      17.589   5.834  18.961  0.00  0.00    +0.023 A 
ATOM     21  C   UNL     1      17.612   6.604  21.251  0.00  0.00    +0.023 A 
ATOM     25  C   UNL     1      18.290   6.117  20.133  0.00  0.00    +0.034 A 
ENDROOT
BRANCH  25   7
ATOM      5  O   UNL     1      20.496   7.987  20.926  0.00  0.00    -0.270 OA
ATOM      7  N   UNL     1      19.669   5.913  20.188  0.00  0.00    -0.282 N 
ATOM     36  C   UNL     1      20.662   6.826  20.567  0.00  0.00    +0.248 C 
ATOM     39  H   UNL     1      19.952   4.964  19.958  0.00  0.00    +0.155 HD
BRANCH  36  30
ATOM     19  C   UNL     1      24.660   5.311  20.520  0.00  0.00    -0.042 A 
ATOM     28  C   UNL     1      23.580   4.428  20.523  0.00  0.00    +0.005 A 
ATOM     29  C   UNL     1      24.437   6.687  20.533  0.00  0.00    +0.005 A 
ATOM     30  C   UNL     1      22.052   6.299  20.550  0.00  0.00    +0.037 A 
ATOM     33  C   UNL     1      22.276   4.923  20.538  0.00  0.00    +0.013 A 
ATOM     34  C   UNL     1      23.132   7.182  20.547  0.00  0.00    +0.013 A 
BRANCH  19  16
ATOM     16  C   UNL     1      26.055   4.781  20.504  0.00  0.00    -0.013 C 
ATOM     22  C   UNL     1      26.962   5.549  21.514  0.00  0.00    +0.015 C 
ATOM     23  C   UNL     1      26.203   3.269  20.877  0.00  0.00    +0.015 C 
ATOM     24  C   UNL     1      26.699   4.926  19.090  0.00  0.00    +0.015 C 
ENDBRANCH  19  16
ENDBRANCH  36  30
ENDBRANCH  25   7
BRANCH  13   9
ATOM      9  C   UNL     1      14.042   6.747  19.964  0.00  0.00    +0.167 C 
BRANCH   9   8
ATOM      1  O   UNL     1      14.355   8.396  17.558  0.00  0.00    -0.369 OA
ATOM      3  O   UNL     1      10.748   8.452  17.707  0.00  0.00    -0.273 OA
ATOM      6  N   UNL     1      12.287   8.402  19.451  0.00  0.00    -0.287 N 
ATOM      8  C   UNL     1      13.690   8.233  19.848  0.00  0.00    +0.135 C 
ATOM     10  C   UNL     1      14.603   8.936  18.851  0.00  0.00    +0.185 C 
ATOM     12  C   UNL     1      11.911   8.482  18.112  0.00  0.00    +0.242 C 
ATOM     14  C   UNL     1      13.049   8.705  17.123  0.00  0.00    +0.255 C 
BRANCH   6  11
ATOM     11  C   UNL     1      11.275   8.300  20.495  0.00  0.00    +0.143 C 
BRANCH  11  15
ATOM     15  C   UNL     1      11.296   9.487  21.415  0.00  0.00    -0.030 A 
ATOM     26  C   UNL     1      11.684  10.737  20.932  0.00  0.00    +0.009 A 
ATOM     27  C   UNL     1      10.927   9.339  22.752  0.00  0.00    +0.009 A 
ATOM     31  C   UNL     1      11.703  11.839  21.787  0.00  0.00    +0.046 A 
ATOM     32  C   UNL     1      10.946  10.441  23.607  0.00  0.00    +0.046 A 
ATOM     35  C   UNL     1      11.334  11.691  23.124  0.00  0.00    +0.120 A 
BRANCH  35   4
ATOM      4  O   UNL     1      11.352  12.766  23.958  0.00  0.00    -0.495 OA
ATOM     37  C   UNL     1      10.935  12.550  25.306  0.00  0.00    +0.277 C 
ENDBRANCH  35   4
ENDBRANCH  11  15
ENDBRANCH   6  11
ENDBRANCH   9   8
BRANCH   9   2
ATOM      2  O   UNL     1      13.435   6.210  21.135  0.00  0.00    -0.385 OA
ATOM     38  H   UNL     1      13.867   6.585  21.921  0.00  0.00    +0.210 HD
ENDBRANCH   9   2
ENDBRANCH  13   9
TORSDOF 9
ENDMDL
MODEL 2
REMARK VINA RESULT:      -7.5      3.871     12.230
REMARK  Name = 56774574
REMARK  13 active torsions:
REMARK  status: ('A' for Active; 'I' for Inactive)
REMARK    1  A    between atoms: O_2  and  C_9
REMARK    2  A    between atoms: O_4  and  C_35
REMARK    3  A    between atoms: O_4  and  C_37
REMARK    4  A    between atoms: N_6  and  C_11
REMARK    5  A    between atoms: N_7  and  C_25
REMARK    6  A    between atoms: C_8  and  C_9
REMARK    7  A    between atoms: C_9  and  C_13
REMARK    8  A    between atoms: C_11  and  C_15
REMARK    9  A    between atoms: C_16  and  C_19
REMARK   10  A    between atoms: C_16  and  C_22
REMARK   11  A    between atoms: C_16  and  C_23
REMARK   12  A    between atoms: C_16  and  C_24
REMARK   13  A    between atoms: C_30  and  C_36
REMARK                            x       y       z     vdW  Elec       q    Type
REMARK                         _______ _______ _______ _____ _____    ______ ____
ROOT
ATOM     13  C   UNL     1      22.522   5.472  20.553  0.00  0.00    -0.017 A 
ATOM     17  C   UNL     1      21.573   4.450  20.515  0.00  0.00    +0.008 A 
ATOM     18  C   UNL     1      22.111   6.802  20.639  0.00  0.00    +0.008 A 
ATOM     20  C   UNL     1      20.213   4.759  20.562  0.00  0.00    +0.023 A 
ATOM     21  C   UNL     1      20.751   7.110  20.687  0.00  0.00    +0.023 A 
ATOM     25  C   UNL     1      19.802   6.088  20.648  0.00  0.00    +0.034 A 
ENDROOT
BRANCH  25   7
ATOM      5  O   UNL     1      17.658   5.720  18.585  0.00  0.00    -0.270 OA
ATOM      7  N   UNL     1      18.443   6.396  20.696  0.00  0.00    -0.282 N 
ATOM     36  C   UNL     1      17.478   6.203  19.698  0.00  0.00    +0.248 C 
ATOM     39  H   UNL     1      18.138   6.766  21.592  0.00  0.00    +0.155 HD
BRANCH  36  30
ATOM     19  C   UNL     1      13.500   7.371  20.742  0.00  0.00    -0.042 A 
ATOM     28  C   UNL     1      14.495   7.337  21.719  0.00  0.00    +0.005 A 
ATOM     29  C   UNL     1      13.801   7.024  19.426  0.00  0.00    +0.005 A 
ATOM     30  C   UNL     1      16.095   6.609  20.061  0.00  0.00    +0.037 A 
ATOM     33  C   UNL     1      15.793   6.956  21.378  0.00  0.00    +0.013 A 
ATOM     34  C   UNL     1      15.100   6.644  19.084  0.00  0.00    +0.013 A 
BRANCH  19  16
ATOM     16  C   UNL     1      12.111   7.778  21.108  0.00  0.00    -0.013 C 
ATOM     22  C   UNL     1      11.376   8.429  19.895  0.00  0.00    +0.015 C 
ATOM     23  C   UNL     1      11.177   6.619  21.588  0.00  0.00    +0.015 C 
ATOM     24  C   UNL     1      12.115   8.820  22.270  0.00  0.00    +0.015 C 
ENDBRANCH  19  16
ENDBRANCH  36  30
ENDBRANCH  25   7
BRANCH  13   9
ATOM      9  C   UNL     1      23.991   5.139  20.502  0.00  0.00    +0.167 C 
BRANCH   9   8
ATOM      1  O   UNL     1      26.065   3.412  19.349  0.00  0.00    -0.369 OA
ATOM      3  O   UNL     1      27.436   3.643  22.682  0.00  0.00    -0.273 OA
ATOM      6  N   UNL     1      25.208   3.615  22.011  0.00  0.00    -0.287 N 
ATOM      8  C   UNL     1      24.260   3.683  20.893  0.00  0.00    +0.135 C 
ATOM     10  C   UNL     1      24.792   2.887  19.708  0.00  0.00    +0.185 C 
ATOM     12  C   UNL     1      26.583   3.532  21.800  0.00  0.00    +0.242 C 
ATOM     14  C   UNL     1      27.008   3.196  20.375  0.00  0.00    +0.255 C 
BRANCH   6  11
ATOM     11  C   UNL     1      24.681   3.821  23.354  0.00  0.00    +0.143 C 
BRANCH  11  15
ATOM     15  C   UNL     1      24.074   2.568  23.918  0.00  0.00    -0.030 A 
ATOM     26  C   UNL     1      22.731   2.552  24.296  0.00  0.00    +0.009 A 
ATOM     27  C   UNL     1      24.853   1.420  24.062  0.00  0.00    +0.009 A 
ATOM     31  C   UNL     1      22.168   1.388  24.819  0.00  0.00    +0.046 A 
ATOM     32  C   UNL     1      24.290   0.256  24.586  0.00  0.00    +0.046 A 
ATOM     35  C   UNL     1      22.948   0.241  24.964  0.00  0.00    +0.120 A 
BRANCH  35   4
ATOM      4  O   UNL     1      22.398  -0.895  25.474  0.00  0.00    -0.495 OA
ATOM     37  C   UNL     1      21.295  -0.739  26.365  0.00  0.00    +0.277 C 
ENDBRANCH  35   4
ENDBRANCH  11  15
ENDBRANCH   6  11
ENDBRANCH   9   8
BRANCH   9   2
ATOM      2  O   UNL     1      24.705   6.002  21.382  0.00  0.00    -0.385 OA
ATOM     38  H   UNL     1      25.295   6.573  20.863  0.00  0.00    +0.210 HD
ENDBRANCH   9   2
ENDBRANCH  13   9
TORSDOF 9
ENDMDL
MODEL 3
REMARK VINA RESULT:      -7.2     28.446     33.571
REMARK  Name = 56774574
REMARK  13 active torsions:
REMARK  status: ('A' for Active; 'I' for Inactive)
REMARK    1  A    between atoms: O_2  and  C_9
REMARK    2  A    between atoms: O_4  and  C_35
REMARK    3  A    between atoms: O_4  and  C_37
REMARK    4  A    between atoms: N_6  and  C_11
REMARK    5  A    between atoms: N_7  and  C_25
REMARK    6  A    between atoms: C_8  and  C_9
REMARK    7  A    between atoms: C_9  and  C_13
REMARK    8  A    between atoms: C_11  and  C_15
REMARK    9  A    between atoms: C_16  and  C_19
REMARK   10  A    between atoms: C_16  and  C_22
REMARK   11  A    between atoms: C_16  and  C_23
REMARK   12  A    between atoms: C_16  and  C_24
REMARK   13  A    between atoms: C_30  and  C_36
REMARK                            x       y       z     vdW  Elec       q    Type
REMARK                         _______ _______ _______ _____ _____    ______ ____
ROOT
ATOM     13  C   UNL     1      -7.493 -10.102  15.957  0.00  0.00    -0.017 A 
ATOM     17  C   UNL     1      -7.857  -9.063  16.814  0.00  0.00    +0.008 A 
ATOM     18  C   UNL     1      -8.270 -11.258  15.894  0.00  0.00    +0.008 A 
ATOM     20  C   UNL     1      -8.998  -9.181  17.607  0.00  0.00    +0.023 A 
ATOM     21  C   UNL     1      -9.411 -11.375  16.686  0.00  0.00    +0.023 A 
ATOM     25  C   UNL     1      -9.775 -10.336  17.544  0.00  0.00    +0.034 A 
ENDROOT
BRANCH  25   7
ATOM      5  O   UNL     1     -10.056 -10.507  20.524  0.00  0.00    -0.270 OA
ATOM      7  N   UNL     1     -10.917 -10.453  18.336  0.00  0.00    -0.282 N 
ATOM     36  C   UNL     1     -10.994 -10.530  19.734  0.00  0.00    +0.248 C 
ATOM     39  H   UNL     1     -11.786 -10.436  17.808  0.00  0.00    +0.155 HD
BRANCH  36  30
ATOM     19  C   UNL     1     -14.948 -10.792  21.339  0.00  0.00    -0.042 A 
ATOM     28  C   UNL     1     -14.123 -11.916  21.331  0.00  0.00    +0.005 A 
ATOM     29  C   UNL     1     -14.483  -9.582  20.825  0.00  0.00    +0.005 A 
ATOM     30  C   UNL     1     -12.368 -10.621  20.292  0.00  0.00    +0.037 A 
ATOM     33  C   UNL     1     -12.833 -11.831  20.808  0.00  0.00    +0.013 A 
ATOM     34  C   UNL     1     -13.192  -9.496  20.302  0.00  0.00    +0.013 A 
BRANCH  19  16
ATOM     16  C   UNL     1     -16.328 -10.884  21.900  0.00  0.00    -0.013 C 
ATOM     22  C   UNL     1     -17.174 -11.955  21.144  0.00  0.00    +0.015 C 
ATOM     23  C   UNL     1     -16.413 -11.277  23.411  0.00  0.00    +0.015 C 
ATOM     24  C   UNL     1     -17.079  -9.521  21.780  0.00  0.00    +0.015 C 
ENDBRANCH  19  16
ENDBRANCH  36  30
ENDBRANCH  25   7
BRANCH  13   9
ATOM      9  C   UNL     1      -6.259  -9.975  15.099  0.00  0.00    +0.167 C 
BRANCH   9   8
ATOM      1  O   UNL     1      -4.880 -11.076  12.755  0.00  0.00    -0.369 OA
ATOM      3  O   UNL     1      -1.947 -10.326  14.724  0.00  0.00    -0.273 OA
ATOM      6  N   UNL     1      -4.051 -11.022  15.433  0.00  0.00    -0.287 N 
ATOM      8  C   UNL     1      -5.451 -11.275  15.068  0.00  0.00    +0.135 C 
ATOM     10  C   UNL     1      -5.520 -11.931  13.694  0.00  0.00    +0.185 C 
ATOM     12  C   UNL     1      -3.089 -10.714  14.473  0.00  0.00    +0.242 C 
ATOM     14  C   UNL     1      -3.500 -10.969  13.028  0.00  0.00    +0.255 C 
BRANCH   6  11
ATOM     11  C   UNL     1      -3.733 -10.923  16.852  0.00  0.00    +0.143 C 
BRANCH  11  15
ATOM     15  C   UNL     1      -4.844 -11.448  17.714  0.00  0.00    -0.030 A 
ATOM     26  C   UNL     1      -5.362 -12.724  17.486  0.00  0.00    +0.009 A 
ATOM     27  C   UNL     1      -5.359 -10.661  18.745  0.00  0.00    +0.009 A 
ATOM     31  C   UNL     1      -6.393 -13.211  18.288  0.00  0.00    +0.046 A 
ATOM     32  C   UNL     1      -6.391 -11.148  19.546  0.00  0.00    +0.046 A 
ATOM     35  C   UNL     1      -6.908 -12.423  19.318  0.00  0.00    +0.120 A 
BRANCH  35   4
ATOM      4  O   UNL     1      -7.914 -12.899  20.100  0.00  0.00    -0.495 OA
ATOM     37  C   UNL     1      -8.857 -13.776  19.484  0.00  0.00    +0.277 C 
ENDBRANCH  35   4
ENDBRANCH  11  15
ENDBRANCH   6  11
ENDBRANCH   9   8
BRANCH   9   2
ATOM      2  O   UNL     1      -5.440  -8.923  15.599  0.00  0.00    -0.385 OA
ATOM     38  H   UNL     1      -4.515  -9.094  15.356  0.00  0.00    +0.210 HD
ENDBRANCH   9   2
ENDBRANCH  13   9
TORSDOF 9
ENDMDL
MODEL 4
REMARK VINA RESULT:      -7.1     28.180     32.060
REMARK  Name = 56774574
REMARK  13 active torsions:
REMARK  status: ('A' for Active; 'I' for Inactive)
REMARK    1  A    between atoms: O_2  and  C_9
REMARK    2  A    between atoms: O_4  and  C_35
REMARK    3  A    between atoms: O_4  and  C_37
REMARK    4  A    between atoms: N_6  and  C_11
REMARK    5  A    between atoms: N_7  and  C_25
REMARK    6  A    between atoms: C_8  and  C_9
REMARK    7  A    between atoms: C_9  and  C_13
REMARK    8  A    between atoms: C_11  and  C_15
REMARK    9  A    between atoms: C_16  and  C_19
REMARK   10  A    between atoms: C_16  and  C_22
REMARK   11  A    between atoms: C_16  and  C_23
REMARK   12  A    between atoms: C_16  and  C_24
REMARK   13  A    between atoms: C_30  and  C_36
REMARK                            x       y       z     vdW  Elec       q    Type
REMARK                         _______ _______ _______ _____ _____    ______ ____
ROOT
ATOM     13  C   UNL     1      -3.515 -10.618  10.414  0.00  0.00    -0.017 A 
ATOM     17  C   UNL     1      -3.443  -9.294   9.982  0.00  0.00    +0.008 A 
ATOM     18  C   UNL     1      -4.477 -11.474   9.881  0.00  0.00    +0.008 A 
ATOM     20  C   UNL     1      -4.334  -8.826   9.015  0.00  0.00    +0.023 A 
ATOM     21  C   UNL     1      -5.367 -11.007   8.914  0.00  0.00    +0.023 A 
ATOM     25  C   UNL     1      -5.296  -9.683   8.481  0.00  0.00    +0.034 A 
ENDROOT
BRANCH  25   7
ATOM      5  O   UNL     1      -7.737  -7.966   8.763  0.00  0.00    -0.270 OA
ATOM      7  N   UNL     1      -6.186  -9.215   7.514  0.00  0.00    -0.282 N 
ATOM     36  C   UNL     1      -7.319  -8.411   7.700  0.00  0.00    +0.248 C 
ATOM     39  H   UNL     1      -5.930  -9.472   6.564  0.00  0.00    +0.155 HD
BRANCH  36  30
ATOM     19  C   UNL     1      -9.440  -7.382   4.133  0.00  0.00    -0.042 A 
ATOM     28  C   UNL     1      -9.981  -7.071   5.380  0.00  0.00    +0.005 A 
ATOM     29  C   UNL     1      -8.207  -8.029   4.049  0.00  0.00    +0.005 A 
ATOM     30  C   UNL     1      -8.056  -8.053   6.460  0.00  0.00    +0.037 A 
ATOM     33  C   UNL     1      -9.289  -7.406   6.544  0.00  0.00    +0.013 A 
ATOM     34  C   UNL     1      -7.514  -8.363   5.213  0.00  0.00    +0.013 A 
BRANCH  19  16
ATOM     16  C   UNL     1     -10.181  -7.023   2.889  0.00  0.00    -0.013 C 
ATOM     22  C   UNL     1     -11.691  -6.766   3.185  0.00  0.00    +0.015 C 
ATOM     23  C   UNL     1      -9.675  -5.738   2.154  0.00  0.00    +0.015 C 
ATOM     24  C   UNL     1     -10.097  -8.167   1.831  0.00  0.00    +0.015 C 
ENDBRANCH  19  16
ENDBRANCH  36  30
ENDBRANCH  25   7
BRANCH  13   9
ATOM      9  C   UNL     1      -2.552 -11.123  11.459  0.00  0.00    +0.167 C 
BRANCH   9   8
ATOM      1  O   UNL     1      -1.234 -12.848  13.433  0.00  0.00    -0.369 OA
ATOM      3  O   UNL     1      -2.527 -10.389  15.739  0.00  0.00    -0.273 OA
ATOM      6  N   UNL     1      -3.456 -11.169  13.753  0.00  0.00    -0.287 N 
ATOM      8  C   UNL     1      -3.260 -11.958  12.530  0.00  0.00    +0.135 C 
ATOM     10  C   UNL     1      -2.474 -13.224  12.847  0.00  0.00    +0.185 C 
ATOM     12  C   UNL     1      -2.506 -11.154  14.773  0.00  0.00    +0.242 C 
ATOM     14  C   UNL     1      -1.432 -12.232  14.685  0.00  0.00    +0.255 C 
BRANCH   6  11
ATOM     11  C   UNL     1      -4.592 -10.257  13.791  0.00  0.00    +0.143 C 
BRANCH  11  15
ATOM     15  C   UNL     1      -5.557 -10.608  14.886  0.00  0.00    -0.030 A 
ATOM     26  C   UNL     1      -5.850  -9.677  15.884  0.00  0.00    +0.009 A 
ATOM     27  C   UNL     1      -6.163 -11.865  14.906  0.00  0.00    +0.009 A 
ATOM     31  C   UNL     1      -6.747 -10.003  16.900  0.00  0.00    +0.046 A 
ATOM     32  C   UNL     1      -7.059 -12.191  15.923  0.00  0.00    +0.046 A 
ATOM     35  C   UNL     1      -7.352 -11.261  16.920  0.00  0.00    +0.120 A 
BRANCH  35   4
ATOM      4  O   UNL     1      -8.227 -11.579  17.912  0.00  0.00    -0.495 OA
ATOM     37  C   UNL     1      -7.767 -11.437  19.255  0.00  0.00    +0.277 C 
ENDBRANCH  35   4
ENDBRANCH  11  15
ENDBRANCH   6  11
ENDBRANCH   9   8
BRANCH   9   2
ATOM      2  O   UNL     1      -1.900 -10.019  12.078  0.00  0.00    -0.385 OA
ATOM     38  H   UNL     1      -1.089 -10.329  12.513  0.00  0.00    +0.210 HD
ENDBRANCH   9   2
ENDBRANCH  13   9
TORSDOF 9
ENDMDL
MODEL 5
REMARK VINA RESULT:      -7.1     29.160     32.448
REMARK  Name = 56774574
REMARK  13 active torsions:
REMARK  status: ('A' for Active; 'I' for Inactive)
REMARK    1  A    between atoms: O_2  and  C_9
REMARK    2  A    between atoms: O_4  and  C_35
REMARK    3  A    between atoms: O_4  and  C_37
REMARK    4  A    between atoms: N_6  and  C_11
REMARK    5  A    between atoms: N_7  and  C_25
REMARK    6  A    between atoms: C_8  and  C_9
REMARK    7  A    between atoms: C_9  and  C_13
REMARK    8  A    between atoms: C_11  and  C_15
REMARK    9  A    between atoms: C_16  and  C_19
REMARK   10  A    between atoms: C_16  and  C_22
REMARK   11  A    between atoms: C_16  and  C_23
REMARK   12  A    between atoms: C_16  and  C_24
REMARK   13  A    between atoms: C_30  and  C_36
REMARK                            x       y       z     vdW  Elec       q    Type
REMARK                         _______ _______ _______ _____ _____    ______ ____
ROOT
ATOM     13  C   UNL     1      -4.888 -12.137   4.480  0.00  0.00    -0.017 A 
ATOM     17  C   UNL     1      -3.648 -12.148   5.119  0.00  0.00    +0.008 A 
ATOM     18  C   UNL     1      -4.984 -12.502   3.138  0.00  0.00    +0.008 A 
ATOM     20  C   UNL     1      -2.504 -12.524   4.414  0.00  0.00    +0.023 A 
ATOM     21  C   UNL     1      -3.841 -12.878   2.434  0.00  0.00    +0.023 A 
ATOM     25  C   UNL     1      -2.600 -12.890   3.072  0.00  0.00    +0.034 A 
ENDROOT
BRANCH  25   7
ATOM      5  O   UNL     1      -0.821 -15.280   3.403  0.00  0.00    -0.270 OA
ATOM      7  N   UNL     1      -1.457 -13.266   2.368  0.00  0.00    -0.282 N 
ATOM     36  C   UNL     1      -0.656 -14.400   2.564  0.00  0.00    +0.248 C 
ATOM     39  H   UNL     1      -1.226 -12.643   1.599  0.00  0.00    +0.155 HD
BRANCH  36  30
ATOM     19  C   UNL     1       2.637 -14.806  -0.132  0.00  0.00    -0.042 A 
ATOM     28  C   UNL     1       2.867 -14.715   1.240  0.00  0.00    +0.005 A 
ATOM     29  C   UNL     1       1.333 -14.766  -0.626  0.00  0.00    +0.005 A 
ATOM     30  C   UNL     1       0.489 -14.542   1.627  0.00  0.00    +0.037 A 
ATOM     33  C   UNL     1       1.793 -14.583   2.120  0.00  0.00    +0.013 A 
ATOM     34  C   UNL     1       0.259 -14.635   0.254  0.00  0.00    +0.013 A 
BRANCH  19  16
ATOM     16  C   UNL     1       3.787 -14.947  -1.073  0.00  0.00    -0.013 C 
ATOM     22  C   UNL     1       4.974 -14.025  -0.655  0.00  0.00    +0.015 C 
ATOM     23  C   UNL     1       4.394 -16.385  -1.179  0.00  0.00    +0.015 C 
ATOM     24  C   UNL     1       3.378 -14.559  -2.528  0.00  0.00    +0.015 C 
ENDBRANCH  19  16
ENDBRANCH  36  30
ENDBRANCH  25   7
BRANCH  13   9
ATOM      9  C   UNL     1      -6.124 -11.730   5.241  0.00  0.00    +0.167 C 
BRANCH   9   8
ATOM      1  O   UNL     1      -7.907  -9.667   6.326  0.00  0.00    -0.369 OA
ATOM      3  O   UNL     1      -7.855 -11.822   9.223  0.00  0.00    -0.273 OA
ATOM      6  N   UNL     1      -6.163 -11.392   7.684  0.00  0.00    -0.287 N 
ATOM      8  C   UNL     1      -5.795 -10.785   6.400  0.00  0.00    +0.135 C 
ATOM     10  C   UNL     1      -6.505  -9.446   6.234  0.00  0.00    +0.185 C 
ATOM     12  C   UNL     1      -7.426 -11.209   8.245  0.00  0.00    +0.242 C 
ATOM     14  C   UNL     1      -8.266 -10.101   7.619  0.00  0.00    +0.255 C 
BRANCH   6  11
ATOM     11  C   UNL     1      -5.230 -12.346   8.270  0.00  0.00    +0.143 C 
BRANCH  11  15
ATOM     15  C   UNL     1      -4.373 -11.715   9.328  0.00  0.00    -0.030 A 
ATOM     26  C   UNL     1      -3.863 -12.493  10.369  0.00  0.00    +0.009 A 
ATOM     27  C   UNL     1      -4.086 -10.351   9.272  0.00  0.00    +0.009 A 
ATOM     31  C   UNL     1      -3.066 -11.907  11.351  0.00  0.00    +0.046 A 
ATOM     32  C   UNL     1      -3.290  -9.765  10.256  0.00  0.00    +0.046 A 
ATOM     35  C   UNL     1      -2.780 -10.542  11.295  0.00  0.00    +0.120 A 
BRANCH  35   4
ATOM      4  O   UNL     1      -2.002  -9.970  12.254  0.00  0.00    -0.495 OA
ATOM     37  C   UNL     1      -2.106 -10.499  13.575  0.00  0.00    +0.277 C 
ENDBRANCH  35   4
ENDBRANCH  11  15
ENDBRANCH   6  11
ENDBRANCH   9   8
BRANCH   9   2
ATOM      2  O   UNL     1      -6.772 -12.892   5.752  0.00  0.00    -0.385 OA
ATOM     38  H   UNL     1      -6.383 -13.681   5.340  0.00  0.00    +0.210 HD
ENDBRANCH   9   2
ENDBRANCH  13   9
TORSDOF 9
ENDMDL
MODEL 6
REMARK VINA RESULT:      -7.1     27.823     32.950
REMARK  Name = 56774574
REMARK  13 active torsions:
REMARK  status: ('A' for Active; 'I' for Inactive)
REMARK    1  A    between atoms: O_2  and  C_9
REMARK    2  A    between atoms: O_4  and  C_35
REMARK    3  A    between atoms: O_4  and  C_37
REMARK    4  A    between atoms: N_6  and  C_11
REMARK    5  A    between atoms: N_7  and  C_25
REMARK    6  A    between atoms: C_8  and  C_9
REMARK    7  A    between atoms: C_9  and  C_13
REMARK    8  A    between atoms: C_11  and  C_15
REMARK    9  A    between atoms: C_16  and  C_19
REMARK   10  A    between atoms: C_16  and  C_22
REMARK   11  A    between atoms: C_16  and  C_23
REMARK   12  A    between atoms: C_16  and  C_24
REMARK   13  A    between atoms: C_30  and  C_36
REMARK                            x       y       z     vdW  Elec       q    Type
REMARK                         _______ _______ _______ _____ _____    ______ ____
ROOT
ATOM     13  C   UNL     1      -5.312 -10.576  17.167  0.00  0.00    -0.017 A 
ATOM     17  C   UNL     1      -6.090  -9.535  16.661  0.00  0.00    +0.008 A 
ATOM     18  C   UNL     1      -5.851 -11.457  18.104  0.00  0.00    +0.008 A 
ATOM     20  C   UNL     1      -7.407  -9.375  17.092  0.00  0.00    +0.023 A 
ATOM     21  C   UNL     1      -7.168 -11.298  18.534  0.00  0.00    +0.023 A 
ATOM     25  C   UNL     1      -7.946 -10.257  18.028  0.00  0.00    +0.034 A 
ENDROOT
BRANCH  25   7
ATOM      5  O   UNL     1     -10.510 -10.289  16.474  0.00  0.00    -0.270 OA
ATOM      7  N   UNL     1      -9.263 -10.098  18.459  0.00  0.00    -0.282 N 
ATOM     36  C   UNL     1     -10.433 -10.121  17.687  0.00  0.00    +0.248 C 
ATOM     39  H   UNL     1      -9.356  -9.996  19.466  0.00  0.00    +0.155 HD
BRANCH  36  30
ATOM     19  C   UNL     1     -14.078  -9.625  19.866  0.00  0.00    -0.042 A 
ATOM     28  C   UNL     1     -14.077  -9.517  18.476  0.00  0.00    +0.005 A 
ATOM     29  C   UNL     1     -12.890  -9.895  20.546  0.00  0.00    +0.005 A 
ATOM     30  C   UNL     1     -11.700  -9.949  18.444  0.00  0.00    +0.037 A 
ATOM     33  C   UNL     1     -12.888  -9.679  17.765  0.00  0.00    +0.013 A 
ATOM     34  C   UNL     1     -11.701 -10.058  19.835  0.00  0.00    +0.013 A 
BRANCH  19  16
ATOM     16  C   UNL     1     -15.350  -9.451  20.627  0.00  0.00    -0.013 C 
ATOM     22  C   UNL     1     -16.590  -9.576  19.688  0.00  0.00    +0.015 C 
ATOM     23  C   UNL     1     -15.591 -10.484  21.776  0.00  0.00    +0.015 C 
ATOM     24  C   UNL     1     -15.415  -8.048  21.307  0.00  0.00    +0.015 C 
ENDBRANCH  19  16
ENDBRANCH  36  30
ENDBRANCH  25   7
BRANCH  13   9
ATOM      9  C   UNL     1      -3.888 -10.748  16.702  0.00  0.00    +0.167 C 
BRANCH   9   8
ATOM      1  O   UNL     1      -1.484 -11.354  15.132  0.00  0.00    -0.369 OA
ATOM      3  O   UNL     1      -3.524 -14.091  13.955  0.00  0.00    -0.273 OA
ATOM      6  N   UNL     1      -4.166 -11.938  14.560  0.00  0.00    -0.287 N 
ATOM      8  C   UNL     1      -3.773 -10.666  15.177  0.00  0.00    +0.135 C 
ATOM     10  C   UNL     1      -2.357 -10.296  14.753  0.00  0.00    +0.185 C 
ATOM     12  C   UNL     1      -3.238 -12.947  14.308  0.00  0.00    +0.242 C 
ATOM     14  C   UNL     1      -1.775 -12.531  14.411  0.00  0.00    +0.255 C 
BRANCH   6  11
ATOM     11  C   UNL     1      -5.591 -12.190  14.384  0.00  0.00    +0.143 C 
BRANCH  11  15
ATOM     15  C   UNL     1      -6.194 -11.296  13.339  0.00  0.00    -0.030 A 
ATOM     26  C   UNL     1      -7.451 -10.727  13.548  0.00  0.00    +0.009 A 
ATOM     27  C   UNL     1      -5.497 -11.034  12.159  0.00  0.00    +0.009 A 
ATOM     31  C   UNL     1      -8.010  -9.897  12.577  0.00  0.00    +0.046 A 
ATOM     32  C   UNL     1      -6.058 -10.204  11.188  0.00  0.00    +0.046 A 
ATOM     35  C   UNL     1      -7.314  -9.636  11.397  0.00  0.00    +0.120 A 
BRANCH  35   4
ATOM      4  O   UNL     1      -7.860  -8.826  10.450  0.00  0.00    -0.495 OA
ATOM     37  C   UNL     1      -7.052  -8.518   9.314  0.00  0.00    +0.277 C 
ENDBRANCH  35   4
ENDBRANCH  11  15
ENDBRANCH   6  11
ENDBRANCH   9   8
BRANCH   9   2
ATOM      2  O   UNL     1      -3.393 -12.008  17.144  0.00  0.00    -0.385 OA
ATOM     38  H   UNL     1      -3.227 -11.970  18.100  0.00  0.00    +0.210 HD
ENDBRANCH   9   2
ENDBRANCH  13   9
TORSDOF 9
ENDMDL
MODEL 7
REMARK VINA RESULT:      -7.0     29.771     33.220
REMARK  Name = 56774574
REMARK  13 active torsions:
REMARK  status: ('A' for Active; 'I' for Inactive)
REMARK    1  A    between atoms: O_2  and  C_9
REMARK    2  A    between atoms: O_4  and  C_35
REMARK    3  A    between atoms: O_4  and  C_37
REMARK    4  A    between atoms: N_6  and  C_11
REMARK    5  A    between atoms: N_7  and  C_25
REMARK    6  A    between atoms: C_8  and  C_9
REMARK    7  A    between atoms: C_9  and  C_13
REMARK    8  A    between atoms: C_11  and  C_15
REMARK    9  A    between atoms: C_16  and  C_19
REMARK   10  A    between atoms: C_16  and  C_22
REMARK   11  A    between atoms: C_16  and  C_23
REMARK   12  A    between atoms: C_16  and  C_24
REMARK   13  A    between atoms: C_30  and  C_36
REMARK                            x       y       z     vdW  Elec       q    Type
REMARK                         _______ _______ _______ _____ _____    ______ ____
ROOT
ATOM     13  C   UNL     1     -13.830  -6.183  13.304  0.00  0.00    -0.017 A 
ATOM     17  C   UNL     1     -13.611  -7.549  13.121  0.00  0.00    +0.008 A 
ATOM     18  C   UNL     1     -13.039  -5.465  14.199  0.00  0.00    +0.008 A 
ATOM     20  C   UNL     1     -12.602  -8.195  13.835  0.00  0.00    +0.023 A 
ATOM     21  C   UNL     1     -12.029  -6.111  14.912  0.00  0.00    +0.023 A 
ATOM     25  C   UNL     1     -11.811  -7.477  14.730  0.00  0.00    +0.034 A 
ENDROOT
BRANCH  25   7
ATOM      5  O   UNL     1     -11.802  -8.564  17.524  0.00  0.00    -0.270 OA
ATOM      7  N   UNL     1     -10.801  -8.123  15.443  0.00  0.00    -0.282 N 
ATOM     36  C   UNL     1     -10.849  -8.614  16.754  0.00  0.00    +0.248 C 
ATOM     39  H   UNL     1      -9.953  -8.278  14.903  0.00  0.00    +0.155 HD
BRANCH  36  30
ATOM     19  C   UNL     1      -7.286 -10.545  18.119  0.00  0.00    -0.042 A 
ATOM     28  C   UNL     1      -7.217  -9.593  17.103  0.00  0.00    +0.005 A 
ATOM     29  C   UNL     1      -8.517 -10.868  18.691  0.00  0.00    +0.005 A 
ATOM     30  C   UNL     1      -9.610  -9.285  17.229  0.00  0.00    +0.037 A 
ATOM     33  C   UNL     1      -8.379  -8.963  16.658  0.00  0.00    +0.013 A 
ATOM     34  C   UNL     1      -9.679 -10.237  18.246  0.00  0.00    +0.013 A 
BRANCH  19  16
ATOM     16  C   UNL     1      -6.043 -11.219  18.595  0.00  0.00    -0.013 C 
ATOM     22  C   UNL     1      -4.779 -10.635  17.890  0.00  0.00    +0.015 C 
ATOM     23  C   UNL     1      -5.758 -11.097  20.128  0.00  0.00    +0.015 C 
ATOM     24  C   UNL     1      -6.081 -12.751  18.299  0.00  0.00    +0.015 C 
ENDBRANCH  19  16
ENDBRANCH  36  30
ENDBRANCH  25   7
BRANCH  13   9
ATOM      9  C   UNL     1     -14.921  -5.485  12.532  0.00  0.00    +0.167 C 
BRANCH   9   8
ATOM      1  O   UNL     1     -16.850  -5.006  10.374  0.00  0.00    -0.369 OA
ATOM      3  O   UNL     1     -15.062  -1.879  10.117  0.00  0.00    -0.273 OA
ATOM      6  N   UNL     1     -14.257  -3.986  10.690  0.00  0.00    -0.287 N 
ATOM      8  C   UNL     1     -14.584  -5.373  11.043  0.00  0.00    +0.135 C 
ATOM     10  C   UNL     1     -15.738  -5.872  10.181  0.00  0.00    +0.185 C 
ATOM     12  C   UNL     1     -15.235  -3.090  10.263  0.00  0.00    +0.242 C 
ATOM     14  C   UNL     1     -16.574  -3.713   9.883  0.00  0.00    +0.255 C 
BRANCH   6  11
ATOM     11  C   UNL     1     -12.906  -3.520  10.974  0.00  0.00    +0.143 C 
BRANCH  11  15
ATOM     15  C   UNL     1     -11.875  -4.267  10.178  0.00  0.00    -0.030 A 
ATOM     26  C   UNL     1     -11.856  -5.662  10.194  0.00  0.00    +0.009 A 
ATOM     27  C   UNL     1     -10.937  -3.565   9.421  0.00  0.00    +0.009 A 
ATOM     31  C   UNL     1     -10.899  -6.355   9.454  0.00  0.00    +0.046 A 
ATOM     32  C   UNL     1      -9.978  -4.259   8.681  0.00  0.00    +0.046 A 
ATOM     35  C   UNL     1      -9.960  -5.653   8.698  0.00  0.00    +0.120 A 
BRANCH  35   4
ATOM      4  O   UNL     1      -9.026  -6.329   7.976  0.00  0.00    -0.495 OA
ATOM     37  C   UNL     1      -9.448  -6.895   6.736  0.00  0.00    +0.277 C 
ENDBRANCH  35   4
ENDBRANCH  11  15
ENDBRANCH   6  11
ENDBRANCH   9   8
BRANCH   9   2
ATOM      2  O   UNL     1     -15.122  -4.181  13.069  0.00  0.00    -0.385 OA
ATOM     38  H   UNL     1     -14.624  -3.536  12.538  0.00  0.00    +0.210 HD
ENDBRANCH   9   2
ENDBRANCH  13   9
TORSDOF 9
ENDMDL
MODEL 8
REMARK VINA RESULT:      -7.0      1.589      2.018
REMARK  Name = 56774574
REMARK  13 active torsions:
REMARK  status: ('A' for Active; 'I' for Inactive)
REMARK    1  A    between atoms: O_2  and  C_9
REMARK    2  A    between atoms: O_4  and  C_35
REMARK    3  A    between atoms: O_4  and  C_37
REMARK    4  A    between atoms: N_6  and  C_11
REMARK    5  A    between atoms: N_7  and  C_25
REMARK    6  A    between atoms: C_8  and  C_9
REMARK    7  A    between atoms: C_9  and  C_13
REMARK    8  A    between atoms: C_11  and  C_15
REMARK    9  A    between atoms: C_16  and  C_19
REMARK   10  A    between atoms: C_16  and  C_22
REMARK   11  A    between atoms: C_16  and  C_23
REMARK   12  A    between atoms: C_16  and  C_24
REMARK   13  A    between atoms: C_30  and  C_36
REMARK                            x       y       z     vdW  Elec       q    Type
REMARK                         _______ _______ _______ _____ _____    ______ ____
ROOT
ATOM     13  C   UNL     1      15.935   7.331  20.708  0.00  0.00    -0.017 A 
ATOM     17  C   UNL     1      16.609   6.348  19.982  0.00  0.00    +0.008 A 
ATOM     18  C   UNL     1      16.651   8.219  21.509  0.00  0.00    +0.008 A 
ATOM     20  C   UNL     1      17.998   6.253  20.059  0.00  0.00    +0.023 A 
ATOM     21  C   UNL     1      18.041   8.125  21.585  0.00  0.00    +0.023 A 
ATOM     25  C   UNL     1      18.715   7.142  20.860  0.00  0.00    +0.034 A 
ENDROOT
BRANCH  25   7
ATOM      5  O   UNL     1      20.463   5.944  22.981  0.00  0.00    -0.270 OA
ATOM      7  N   UNL     1      20.104   7.048  20.936  0.00  0.00    -0.282 N 
ATOM     36  C   UNL     1      20.877   6.475  21.956  0.00  0.00    +0.248 C 
ATOM     39  H   UNL     1      20.585   7.412  20.117  0.00  0.00    +0.155 HD
BRANCH  36  30
ATOM     19  C   UNL     1      25.104   6.555  21.319  0.00  0.00    -0.042 A 
ATOM     28  C   UNL     1      24.244   7.092  20.361  0.00  0.00    +0.005 A 
ATOM     29  C   UNL     1      24.585   5.991  22.484  0.00  0.00    +0.005 A 
ATOM     30  C   UNL     1      22.346   6.503  21.734  0.00  0.00    +0.037 A 
ATOM     33  C   UNL     1      22.866   7.067  20.569  0.00  0.00    +0.013 A 
ATOM     34  C   UNL     1      23.206   5.967  22.693  0.00  0.00    +0.013 A 
BRANCH  19  16
ATOM     16  C   UNL     1      26.579   6.582  21.096  0.00  0.00    -0.013 C 
ATOM     22  C   UNL     1      27.356   6.538  22.448  0.00  0.00    +0.015 C 
ATOM     23  C   UNL     1      27.151   5.399  20.248  0.00  0.00    +0.015 C 
ATOM     24  C   UNL     1      27.013   7.880  20.346  0.00  0.00    +0.015 C 
ENDBRANCH  19  16
ENDBRANCH  36  30
ENDBRANCH  25   7
BRANCH  13   9
ATOM      9  C   UNL     1      14.433   7.433  20.625  0.00  0.00    +0.167 C 
BRANCH   9   8
ATOM      1  O   UNL     1      13.839   8.101  17.830  0.00  0.00    -0.369 OA
ATOM      3  O   UNL     1      10.488   8.458  19.128  0.00  0.00    -0.273 OA
ATOM      6  N   UNL     1      12.520   8.919  20.165  0.00  0.00    -0.287 N 
ATOM      8  C   UNL     1      13.982   8.802  20.111  0.00  0.00    +0.135 C 
ATOM     10  C   UNL     1      14.472   9.043  18.688  0.00  0.00    +0.185 C 
ATOM     12  C   UNL     1      11.716   8.548  19.089  0.00  0.00    +0.242 C 
ATOM     14  C   UNL     1      12.448   8.327  17.770  0.00  0.00    +0.255 C 
BRANCH   6  11
ATOM     11  C   UNL     1      11.919   9.263  21.447  0.00  0.00    +0.143 C 
BRANCH  11  15
ATOM     15  C   UNL     1      12.272  10.658  21.877  0.00  0.00    -0.030 A 
ATOM     26  C   UNL     1      13.117  10.859  22.969  0.00  0.00    +0.009 A 
ATOM     27  C   UNL     1      11.756  11.753  21.183  0.00  0.00    +0.009 A 
ATOM     31  C   UNL     1      13.445  12.155  23.367  0.00  0.00    +0.046 A 
ATOM     32  C   UNL     1      12.084  13.048  21.582  0.00  0.00    +0.046 A 
ATOM     35  C   UNL     1      12.928  13.249  22.674  0.00  0.00    +0.120 A 
BRANCH  35   4
ATOM      4  O   UNL     1      13.248  14.513  23.062  0.00  0.00    -0.495 OA
ATOM     37  C   UNL     1      12.470  15.578  22.516  0.00  0.00    +0.277 C 
ENDBRANCH  35   4
ENDBRANCH  11  15
ENDBRANCH   6  11
ENDBRANCH   9   8
BRANCH   9   2
ATOM      2  O   UNL     1      13.870   7.204  21.913  0.00  0.00    -0.385 OA
ATOM     38  H   UNL     1      13.348   6.385  21.894  0.00  0.00    +0.210 HD
ENDBRANCH   9   2
ENDBRANCH  13   9
TORSDOF 9
ENDMDL
MODEL 9
REMARK VINA RESULT:      -6.9     14.625     16.684
REMARK  Name = 56774574
REMARK  13 active torsions:
REMARK  status: ('A' for Active; 'I' for Inactive)
REMARK    1  A    between atoms: O_2  and  C_9
REMARK    2  A    between atoms: O_4  and  C_35
REMARK    3  A    between atoms: O_4  and  C_37
REMARK    4  A    between atoms: N_6  and  C_11
REMARK    5  A    between atoms: N_7  and  C_25
REMARK    6  A    between atoms: C_8  and  C_9
REMARK    7  A    between atoms: C_9  and  C_13
REMARK    8  A    between atoms: C_11  and  C_15
REMARK    9  A    between atoms: C_16  and  C_19
REMARK   10  A    between atoms: C_16  and  C_22
REMARK   11  A    between atoms: C_16  and  C_23
REMARK   12  A    between atoms: C_16  and  C_24
REMARK   13  A    between atoms: C_30  and  C_36
REMARK                            x       y       z     vdW  Elec       q    Type
REMARK                         _______ _______ _______ _____ _____    ______ ____
ROOT
ATOM     13  C   UNL     1      12.900   8.372   6.692  0.00  0.00    -0.017 A 
ATOM     17  C   UNL     1      13.488   9.631   6.572  0.00  0.00    +0.008 A 
ATOM     18  C   UNL     1      13.681   7.223   6.566  0.00  0.00    +0.008 A 
ATOM     20  C   UNL     1      14.856   9.741   6.325  0.00  0.00    +0.023 A 
ATOM     21  C   UNL     1      15.049   7.334   6.320  0.00  0.00    +0.023 A 
ATOM     25  C   UNL     1      15.637   8.593   6.200  0.00  0.00    +0.034 A 
ENDROOT
BRANCH  25   7
ATOM      5  O   UNL     1      17.204   8.077   3.696  0.00  0.00    -0.270 OA
ATOM      7  N   UNL     1      17.005   8.704   5.954  0.00  0.00    -0.282 N 
ATOM     36  C   UNL     1      17.692   8.449   4.758  0.00  0.00    +0.248 C 
ATOM     39  H   UNL     1      17.537   9.054   6.747  0.00  0.00    +0.155 HD
BRANCH  36  30
ATOM     19  C   UNL     1      21.910   9.133   4.885  0.00  0.00    -0.042 A 
ATOM     28  C   UNL     1      21.174   9.522   3.766  0.00  0.00    +0.005 A 
ATOM     29  C   UNL     1      21.271   8.521   5.962  0.00  0.00    +0.005 A 
ATOM     30  C   UNL     1      19.158   8.687   4.802  0.00  0.00    +0.037 A 
ATOM     33  C   UNL     1      19.798   9.299   3.725  0.00  0.00    +0.013 A 
ATOM     34  C   UNL     1      19.894   8.299   5.922  0.00  0.00    +0.013 A 
BRANCH  19  16
ATOM     16  C   UNL     1      23.383   9.371   4.928  0.00  0.00    -0.013 C 
ATOM     22  C   UNL     1      23.776  10.257   6.151  0.00  0.00    +0.015 C 
ATOM     23  C   UNL     1      24.267   8.086   5.042  0.00  0.00    +0.015 C 
ATOM     24  C   UNL     1      23.875  10.103   3.640  0.00  0.00    +0.015 C 
ENDBRANCH  19  16
ENDBRANCH  36  30
ENDBRANCH  25   7
BRANCH  13   9
ATOM      9  C   UNL     1      11.421   8.252   6.959  0.00  0.00    +0.167 C 
BRANCH   9   8
ATOM      1  O   UNL     1       8.862   6.970   7.605  0.00  0.00    -0.369 OA
ATOM      3  O   UNL     1       7.904   8.364   4.414  0.00  0.00    -0.273 OA
ATOM      6  N   UNL     1       9.971   7.542   5.094  0.00  0.00    -0.287 N 
ATOM      8  C   UNL     1      10.800   7.070   6.210  0.00  0.00    +0.135 C 
ATOM     10  C   UNL     1       9.968   6.202   7.147  0.00  0.00    +0.185 C 
ATOM     12  C   UNL     1       8.613   7.808   5.254  0.00  0.00    +0.242 C 
ATOM     14  C   UNL     1       7.989   7.282   6.542  0.00  0.00    +0.255 C 
BRANCH   6  11
ATOM     11  C   UNL     1      10.650   7.899   3.855  0.00  0.00    +0.143 C 
BRANCH  11  15
ATOM     15  C   UNL     1      11.364   6.726   3.248  0.00  0.00    -0.030 A 
ATOM     26  C   UNL     1      12.713   6.832   2.903  0.00  0.00    +0.009 A 
ATOM     27  C   UNL     1      10.680   5.531   3.028  0.00  0.00    +0.009 A 
ATOM     31  C   UNL     1      13.376   5.743   2.340  0.00  0.00    +0.046 A 
ATOM     32  C   UNL     1      11.343   4.442   2.463  0.00  0.00    +0.046 A 
ATOM     35  C   UNL     1      12.691   4.547   2.119  0.00  0.00    +0.120 A 
BRANCH  35   4
ATOM      4  O   UNL     1      13.337   3.484   1.569  0.00  0.00    -0.495 OA
ATOM     37  C   UNL     1      14.764   3.511   1.587  0.00  0.00    +0.277 C 
ENDBRANCH  35   4
ENDBRANCH  11  15
ENDBRANCH   6  11
ENDBRANCH   9   8
BRANCH   9   2
ATOM      2  O   UNL     1      10.768   9.455   6.562  0.00  0.00    -0.385 OA
ATOM     38  H   UNL     1      10.223   9.780   7.297  0.00  0.00    +0.210 HD
ENDBRANCH   9   2
ENDBRANCH  13   9
TORSDOF 9
ENDMDL
MODEL 10
REMARK VINA RESULT:      -6.9     28.418     32.738
REMARK  Name = 56774574
REMARK  13 active torsions:
REMARK  status: ('A' for Active; 'I' for Inactive)
REMARK    1  A    between atoms: O_2  and  C_9
REMARK    2  A    between atoms: O_4  and  C_35
REMARK    3  A    between atoms: O_4  and  C_37
REMARK    4  A    between atoms: N_6  and  C_11
REMARK    5  A    between atoms: N_7  and  C_25
REMARK    6  A    between atoms: C_8  and  C_9
REMARK    7  A    between atoms: C_9  and  C_13
REMARK    8  A    between atoms: C_11  and  C_15
REMARK    9  A    between atoms: C_16  and  C_19
REMARK   10  A    between atoms: C_16  and  C_22
REMARK   11  A    between atoms: C_16  and  C_23
REMARK   12  A    between atoms: C_16  and  C_24
REMARK   13  A    between atoms: C_30  and  C_36
REMARK                            x       y       z     vdW  Elec       q    Type
REMARK                         _______ _______ _______ _____ _____    ______ ____
ROOT
ATOM     13  C   UNL     1      -9.645  -8.320   7.329  0.00  0.00    -0.017 A 
ATOM     17  C   UNL     1      -8.838  -7.337   7.903  0.00  0.00    +0.008 A 
ATOM     18  C   UNL     1      -9.475  -9.657   7.686  0.00  0.00    +0.008 A 
ATOM     20  C   UNL     1      -7.862  -7.692   8.834  0.00  0.00    +0.023 A 
ATOM     21  C   UNL     1      -8.500 -10.012   8.618  0.00  0.00    +0.023 A 
ATOM     25  C   UNL     1      -7.693  -9.029   9.192  0.00  0.00    +0.034 A 
ENDROOT
BRANCH  25   7
ATOM      5  O   UNL     1      -4.732  -9.372   8.863  0.00  0.00    -0.270 OA
ATOM      7  N   UNL     1      -6.717  -9.384  10.123  0.00  0.00    -0.282 N 
ATOM     36  C   UNL     1      -5.339  -9.531   9.917  0.00  0.00    +0.248 C 
ATOM     39  H   UNL     1      -7.076  -9.502  11.067  0.00  0.00    +0.155 HD
BRANCH  36  30
ATOM     19  C   UNL     1      -3.067 -10.572  13.386  0.00  0.00    -0.042 A 
ATOM     28  C   UNL     1      -2.421 -10.358  12.169  0.00  0.00    +0.005 A 
ATOM     29  C   UNL     1      -4.453 -10.447  13.473  0.00  0.00    +0.005 A 
ATOM     30  C   UNL     1      -4.549  -9.893  11.123  0.00  0.00    +0.037 A 
ATOM     33  C   UNL     1      -3.162 -10.018  11.038  0.00  0.00    +0.013 A 
ATOM     34  C   UNL     1      -5.194 -10.106  12.341  0.00  0.00    +0.013 A 
BRANCH  19  16
ATOM     16  C   UNL     1      -2.274 -10.936  14.597  0.00  0.00    -0.013 C 
ATOM     22  C   UNL     1      -1.496 -12.272  14.382  0.00  0.00    +0.015 C 
ATOM     23  C   UNL     1      -1.194  -9.891  15.030  0.00  0.00    +0.015 C 
ATOM     24  C   UNL     1      -3.195 -11.123  15.842  0.00  0.00    +0.015 C 
ENDBRANCH  19  16
ENDBRANCH  36  30
ENDBRANCH  25   7
BRANCH  13   9
ATOM      9  C   UNL     1     -10.700  -7.936   6.322  0.00  0.00    +0.167 C 
BRANCH   9   8
ATOM      1  O   UNL     1     -12.583  -7.949   4.072  0.00  0.00    -0.369 OA
ATOM      3  O   UNL     1     -10.005  -5.950   2.524  0.00  0.00    -0.273 OA
ATOM      6  N   UNL     1      -9.790  -7.700   4.042  0.00  0.00    -0.287 N 
ATOM      8  C   UNL     1     -10.469  -8.614   4.969  0.00  0.00    +0.135 C 
ATOM     10  C   UNL     1     -11.784  -9.090   4.363  0.00  0.00    +0.185 C 
ATOM     12  C   UNL     1     -10.504  -6.854   3.196  0.00  0.00    +0.242 C 
ATOM     14  C   UNL     1     -11.991  -7.161   3.063  0.00  0.00    +0.255 C 
BRANCH   6  11
ATOM     11  C   UNL     1      -8.344  -7.571   4.162  0.00  0.00    +0.143 C 
BRANCH  11  15
ATOM     15  C   UNL     1      -7.665  -8.908   4.241  0.00  0.00    -0.030 A 
ATOM     26  C   UNL     1      -7.880  -9.859   3.242  0.00  0.00    +0.009 A 
ATOM     27  C   UNL     1      -6.820  -9.200   5.312  0.00  0.00    +0.009 A 
ATOM     31  C   UNL     1      -7.249 -11.101   3.315  0.00  0.00    +0.046 A 
ATOM     32  C   UNL     1      -6.190 -10.442   5.384  0.00  0.00    +0.046 A 
ATOM     35  C   UNL     1      -6.404 -11.392   4.386  0.00  0.00    +0.120 A 
BRANCH  35   4
ATOM      4  O   UNL     1      -5.789 -12.604   4.457  0.00  0.00    -0.495 OA
ATOM     37  C   UNL     1      -5.355 -13.185   3.229  0.00  0.00    +0.277 C 
ENDBRANCH  35   4
ENDBRANCH  11  15
ENDBRANCH   6  11
ENDBRANCH   9   8
BRANCH   9   2
ATOM      2  O   UNL     1     -10.697  -6.523   6.147  0.00  0.00    -0.385 OA
ATOM     38  H   UNL     1      -9.780  -6.203   6.139  0.00  0.00    +0.210 HD
ENDBRANCH   9   2
ENDBRANCH  13   9
TORSDOF 9
ENDMDL
