MODEL 1
REMARK VINA RESULT:      -7.0      0.000      0.000
REMARK  Name = 45361198
REMARK  9 active torsions:
REMARK  status: ('A' for Active; 'I' for Inactive)
REMARK    1  A    between atoms: O_3  and  C_26
REMARK    2  A    between atoms: O_4  and  C_31
REMARK    3  A    between atoms: O_4  and  C_32
REMARK    4  A    between atoms: N_5  and  C_18
REMARK    5  A    between atoms: N_6  and  C_17
REMARK    6  A    between atoms: C_13  and  C_16
REMARK    7  A    between atoms: C_16  and  C_19
REMARK    8  A    between atoms: C_17  and  C_20
REMARK    9  A    between atoms: C_19  and  C_21
REMARK                            x       y       z     vdW  Elec       q    Type
REMARK                         _______ _______ _______ _____ _____    ______ ____
ROOT
ATOM      1  O   UNL     1      20.005   6.418  23.686  0.00  0.00    -0.274 OA
ATOM      5  N   UNL     1      17.601   7.168  20.744  0.00  0.00    -0.296 NA
ATOM      6  N   UNL     1      20.789   5.454  21.289  0.00  0.00    -0.286 NA
ATOM      7  N   UNL     1      19.161   8.374  22.850  0.00  0.00    -0.312 N 
ATOM      9  C   UNL     1      18.915   6.645  20.308  0.00  0.00    +0.084 C 
ATOM     10  C   UNL     1      20.124   6.771  21.280  0.00  0.00    +0.161 C 
ATOM     11  C   UNL     1      18.914   5.138  19.991  0.00  0.00    +0.036 C 
ATOM     12  C   UNL     1      20.378   4.759  20.074  0.00  0.00    +0.087 C 
ATOM     13  C   UNL     1      17.568   8.640  20.972  0.00  0.00    +0.074 C 
ATOM     14  C   UNL     1      19.761   7.137  22.717  0.00  0.00    +0.232 C 
ATOM     15  C   UNL     1      18.787   9.207  21.725  0.00  0.00    +0.123 C 
ATOM     18  C   UNL     1      16.541   6.773  19.802  0.00  0.00    +0.105 C 
ATOM     33  H   UNL     1      18.966   8.711  23.789  0.00  0.00    +0.149 HD
ENDROOT
BRANCH  13  16
ATOM     16  C   UNL     1      16.307   9.034  21.767  0.00  0.00    +0.029 C 
BRANCH  16  19
ATOM     19  C   UNL     1      15.400   9.956  20.973  0.00  0.00    +0.097 C 
BRANCH  19  21
ATOM      2  O   UNL     1      14.066  10.953  22.657  0.00  0.00    -0.276 OA
ATOM      8  N   UNL     1      12.983   9.502  21.203  0.00  0.00    -0.301 N 
ATOM     21  C   UNL     1      14.095  10.188  21.691  0.00  0.00    +0.216 C 
ATOM     22  C   UNL     1      12.987   8.585  20.054  0.00  0.00    +0.110 C 
ATOM     23  C   UNL     1      11.670   9.711  21.818  0.00  0.00    +0.110 C 
ATOM     24  C   UNL     1      12.385   7.237  20.438  0.00  0.00    +0.050 C 
ATOM     25  C   UNL     1      11.046   8.383  22.233  0.00  0.00    +0.050 C 
ATOM     26  C   UNL     1      10.998   7.404  21.059  0.00  0.00    +0.118 C 
BRANCH  26   3
ATOM      3  O   UNL     1      10.541   6.134  21.509  0.00  0.00    -0.392 OA
ATOM     34  H   UNL     1      11.059   5.454  21.044  0.00  0.00    +0.210 HD
ENDBRANCH  26   3
ENDBRANCH  19  21
ENDBRANCH  16  19
ENDBRANCH  13  16
BRANCH   6  17
ATOM     17  C   UNL     1      22.239   5.540  21.407  0.00  0.00    +0.120 C 
BRANCH  17  20
ATOM     20  C   UNL     1      22.849   4.223  21.806  0.00  0.00    -0.033 A 
ATOM     27  C   UNL     1      23.739   3.577  20.947  0.00  0.00    +0.008 A 
ATOM     28  C   UNL     1      22.527   3.650  23.036  0.00  0.00    +0.008 A 
ATOM     29  C   UNL     1      24.304   2.357  21.318  0.00  0.00    +0.046 A 
ATOM     30  C   UNL     1      23.092   2.430  23.406  0.00  0.00    +0.046 A 
ATOM     31  C   UNL     1      23.981   1.784  22.547  0.00  0.00    +0.120 A 
BRANCH  31   4
ATOM      4  O   UNL     1      24.533   0.593  22.909  0.00  0.00    -0.495 OA
ATOM     32  C   UNL     1      25.750   0.219  22.265  0.00  0.00    +0.277 C 
ENDBRANCH  31   4
ENDBRANCH  17  20
ENDBRANCH   6  17
TORSDOF 7
ENDMDL
MODEL 2
REMARK VINA RESULT:      -6.6     28.066     30.768
REMARK  Name = 45361198
REMARK  9 active torsions:
REMARK  status: ('A' for Active; 'I' for Inactive)
REMARK    1  A    between atoms: O_3  and  C_26
REMARK    2  A    between atoms: O_4  and  C_31
REMARK    3  A    between atoms: O_4  and  C_32
REMARK    4  A    between atoms: N_5  and  C_18
REMARK    5  A    between atoms: N_6  and  C_17
REMARK    6  A    between atoms: C_13  and  C_16
REMARK    7  A    between atoms: C_16  and  C_19
REMARK    8  A    between atoms: C_17  and  C_20
REMARK    9  A    between atoms: C_19  and  C_21
REMARK                            x       y       z     vdW  Elec       q    Type
REMARK                         _______ _______ _______ _____ _____    ______ ____
ROOT
ATOM      1  O   UNL     1      -1.136 -11.052  15.448  0.00  0.00    -0.274 OA
ATOM      5  N   UNL     1      -4.430 -12.853  16.393  0.00  0.00    -0.296 NA
ATOM      6  N   UNL     1      -2.322 -12.406  13.435  0.00  0.00    -0.286 NA
ATOM      7  N   UNL     1      -3.092 -10.297  16.364  0.00  0.00    -0.312 N 
ATOM      9  C   UNL     1      -4.190 -12.800  14.933  0.00  0.00    +0.084 C 
ATOM     10  C   UNL     1      -3.220 -11.716  14.381  0.00  0.00    +0.161 C 
ATOM     11  C   UNL     1      -3.591 -14.094  14.351  0.00  0.00    +0.036 C 
ATOM     12  C   UNL     1      -2.986 -13.642  13.039  0.00  0.00    +0.087 C 
ATOM     13  C   UNL     1      -5.088 -11.640  16.954  0.00  0.00    +0.074 C 
ATOM     14  C   UNL     1      -2.365 -11.017  15.434  0.00  0.00    +0.232 C 
ATOM     15  C   UNL     1      -4.540 -10.301  16.424  0.00  0.00    +0.123 C 
ATOM     18  C   UNL     1      -5.191 -14.061  16.755  0.00  0.00    +0.105 C 
ATOM     33  H   UNL     1      -2.580  -9.745  17.045  0.00  0.00    +0.149 HD
ENDROOT
BRANCH  13  16
ATOM     16  C   UNL     1      -4.959 -11.618  18.491  0.00  0.00    +0.029 C 
BRANCH  16  19
ATOM     19  C   UNL     1      -5.835 -10.550  19.119  0.00  0.00    +0.097 C 
BRANCH  19  21
ATOM      2  O   UNL     1      -7.523 -11.930  20.047  0.00  0.00    -0.276 OA
ATOM      8  N   UNL     1      -8.206 -10.392  18.445  0.00  0.00    -0.301 N 
ATOM     21  C   UNL     1      -7.260 -11.024  19.252  0.00  0.00    +0.216 C 
ATOM     22  C   UNL     1      -7.923  -9.311  17.491  0.00  0.00    +0.110 C 
ATOM     23  C   UNL     1      -9.619 -10.764  18.551  0.00  0.00    +0.110 C 
ATOM     24  C   UNL     1      -8.462  -9.659  16.107  0.00  0.00    +0.050 C 
ATOM     25  C   UNL     1     -10.187 -11.138  17.186  0.00  0.00    +0.050 C 
ATOM     26  C   UNL     1      -9.945 -10.027  16.163  0.00  0.00    +0.118 C 
BRANCH  26   3
ATOM      3  O   UNL     1     -10.360 -10.460  14.874  0.00  0.00    -0.392 OA
ATOM     34  H   UNL     1      -9.989 -11.348  14.729  0.00  0.00    +0.210 HD
ENDBRANCH  26   3
ENDBRANCH  19  21
ENDBRANCH  16  19
ENDBRANCH  13  16
BRANCH   6  17
ATOM     17  C   UNL     1      -1.955 -11.588  12.286  0.00  0.00    +0.120 C 
BRANCH  17  20
ATOM     20  C   UNL     1      -3.159 -11.171  11.485  0.00  0.00    -0.033 A 
ATOM     27  C   UNL     1      -3.599 -11.961  10.423  0.00  0.00    +0.008 A 
ATOM     28  C   UNL     1      -3.837  -9.996  11.808  0.00  0.00    +0.008 A 
ATOM     29  C   UNL     1      -4.716 -11.574   9.682  0.00  0.00    +0.046 A 
ATOM     30  C   UNL     1      -4.953  -9.609  11.067  0.00  0.00    +0.046 A 
ATOM     31  C   UNL     1      -5.393 -10.399  10.004  0.00  0.00    +0.120 A 
BRANCH  31   4
ATOM      4  O   UNL     1      -6.484 -10.022   9.282  0.00  0.00    -0.495 OA
ATOM     32  C   UNL     1      -6.737  -8.622   9.171  0.00  0.00    +0.277 C 
ENDBRANCH  31   4
ENDBRANCH  17  20
ENDBRANCH   6  17
TORSDOF 7
ENDMDL
MODEL 3
REMARK VINA RESULT:      -6.6     27.596     32.234
REMARK  Name = 45361198
REMARK  9 active torsions:
REMARK  status: ('A' for Active; 'I' for Inactive)
REMARK    1  A    between atoms: O_3  and  C_26
REMARK    2  A    between atoms: O_4  and  C_31
REMARK    3  A    between atoms: O_4  and  C_32
REMARK    4  A    between atoms: N_5  and  C_18
REMARK    5  A    between atoms: N_6  and  C_17
REMARK    6  A    between atoms: C_13  and  C_16
REMARK    7  A    between atoms: C_16  and  C_19
REMARK    8  A    between atoms: C_17  and  C_20
REMARK    9  A    between atoms: C_19  and  C_21
REMARK                            x       y       z     vdW  Elec       q    Type
REMARK                         _______ _______ _______ _____ _____    ______ ____
ROOT
ATOM      1  O   UNL     1      -6.407 -10.255  20.183  0.00  0.00    -0.274 OA
ATOM      5  N   UNL     1      -5.774 -10.501  16.371  0.00  0.00    -0.296 NA
ATOM      6  N   UNL     1      -8.511 -11.112  18.724  0.00  0.00    -0.286 NA
ATOM      7  N   UNL     1      -4.838 -11.380  18.955  0.00  0.00    -0.312 N 
ATOM      9  C   UNL     1      -7.033 -11.153  16.799  0.00  0.00    +0.084 C 
ATOM     10  C   UNL     1      -7.179 -11.575  18.290  0.00  0.00    +0.161 C 
ATOM     11  C   UNL     1      -8.288 -10.288  16.586  0.00  0.00    +0.036 C 
ATOM     12  C   UNL     1      -9.307 -10.908  17.519  0.00  0.00    +0.087 C 
ATOM     13  C   UNL     1      -4.563 -11.360  16.493  0.00  0.00    +0.074 C 
ATOM     14  C   UNL     1      -6.133 -10.987  19.233  0.00  0.00    +0.232 C 
ATOM     15  C   UNL     1      -4.474 -12.174  17.798  0.00  0.00    +0.123 C 
ATOM     18  C   UNL     1      -5.895  -9.980  14.999  0.00  0.00    +0.105 C 
ATOM     33  H   UNL     1      -4.103 -11.087  19.592  0.00  0.00    +0.149 HD
ENDROOT
BRANCH  13  16
ATOM     16  C   UNL     1      -3.283 -10.505  16.391  0.00  0.00    +0.029 C 
BRANCH  16  19
ATOM     19  C   UNL     1      -2.178 -11.225  15.641  0.00  0.00    +0.097 C 
BRANCH  19  21
ATOM      2  O   UNL     1      -1.085  -9.406  14.588  0.00  0.00    -0.276 OA
ATOM      8  N   UNL     1      -2.114 -10.948  13.188  0.00  0.00    -0.301 N 
ATOM     21  C   UNL     1      -1.739 -10.440  14.432  0.00  0.00    +0.216 C 
ATOM     22  C   UNL     1      -2.891 -12.176  12.970  0.00  0.00    +0.110 C 
ATOM     23  C   UNL     1      -1.685 -10.267  11.964  0.00  0.00    +0.110 C 
ATOM     24  C   UNL     1      -4.106 -11.897  12.092  0.00  0.00    +0.050 C 
ATOM     25  C   UNL     1      -2.879  -9.953  11.069  0.00  0.00    +0.050 C 
ATOM     26  C   UNL     1      -3.703 -11.210  10.786  0.00  0.00    +0.118 C 
BRANCH  26   3
ATOM      3  O   UNL     1      -4.881 -10.864  10.068  0.00  0.00    -0.392 OA
ATOM     34  H   UNL     1      -5.463 -11.643  10.065  0.00  0.00    +0.210 HD
ENDBRANCH  26   3
ENDBRANCH  19  21
ENDBRANCH  16  19
ENDBRANCH  13  16
BRANCH   6  17
ATOM     17  C   UNL     1      -9.160 -12.017  19.663  0.00  0.00    +0.120 C 
BRANCH  17  20
ATOM     20  C   UNL     1     -10.569 -11.588  19.974  0.00  0.00    -0.033 A 
ATOM     27  C   UNL     1     -10.847 -10.248  20.245  0.00  0.00    +0.008 A 
ATOM     28  C   UNL     1     -11.597 -12.530  19.990  0.00  0.00    +0.008 A 
ATOM     29  C   UNL     1     -12.153  -9.851  20.532  0.00  0.00    +0.046 A 
ATOM     30  C   UNL     1     -12.902 -12.133  20.277  0.00  0.00    +0.046 A 
ATOM     31  C   UNL     1     -13.180 -10.793  20.548  0.00  0.00    +0.120 A 
BRANCH  31   4
ATOM      4  O   UNL     1     -14.455 -10.406  20.827  0.00  0.00    -0.495 OA
ATOM     32  C   UNL     1     -15.174 -11.180  21.786  0.00  0.00    +0.277 C 
ENDBRANCH  31   4
ENDBRANCH  17  20
ENDBRANCH   6  17
TORSDOF 7
ENDMDL
MODEL 4
REMARK VINA RESULT:      -6.6      1.341      2.151
REMARK  Name = 45361198
REMARK  9 active torsions:
REMARK  status: ('A' for Active; 'I' for Inactive)
REMARK    1  A    between atoms: O_3  and  C_26
REMARK    2  A    between atoms: O_4  and  C_31
REMARK    3  A    between atoms: O_4  and  C_32
REMARK    4  A    between atoms: N_5  and  C_18
REMARK    5  A    between atoms: N_6  and  C_17
REMARK    6  A    between atoms: C_13  and  C_16
REMARK    7  A    between atoms: C_16  and  C_19
REMARK    8  A    between atoms: C_17  and  C_20
REMARK    9  A    between atoms: C_19  and  C_21
REMARK                            x       y       z     vdW  Elec       q    Type
REMARK                         _______ _______ _______ _____ _____    ______ ____
ROOT
ATOM      1  O   UNL     1      20.230   6.233  23.944  0.00  0.00    -0.274 OA
ATOM      5  N   UNL     1      18.050   6.906  20.816  0.00  0.00    -0.296 NA
ATOM      6  N   UNL     1      21.208   5.244  21.630  0.00  0.00    -0.286 NA
ATOM      7  N   UNL     1      19.428   8.165  23.016  0.00  0.00    -0.312 N 
ATOM      9  C   UNL     1      19.400   6.394  20.489  0.00  0.00    +0.084 C 
ATOM     10  C   UNL     1      20.529   6.551  21.550  0.00  0.00    +0.161 C 
ATOM     11  C   UNL     1      19.443   4.883  20.198  0.00  0.00    +0.036 C 
ATOM     12  C   UNL     1      20.900   4.526  20.399  0.00  0.00    +0.087 C 
ATOM     13  C   UNL     1      17.981   8.380  21.016  0.00  0.00    +0.074 C 
ATOM     14  C   UNL     1      20.052   6.933  22.949  0.00  0.00    +0.232 C 
ATOM     15  C   UNL     1      19.132   8.975  21.851  0.00  0.00    +0.123 C 
ATOM     18  C   UNL     1      17.071   6.481  19.801  0.00  0.00    +0.105 C 
ATOM     33  H   UNL     1      19.157   8.513  23.931  0.00  0.00    +0.149 HD
ENDROOT
BRANCH  13  16
ATOM     16  C   UNL     1      16.657   8.769  21.707  0.00  0.00    +0.029 C 
BRANCH  16  19
ATOM     19  C   UNL     1      15.717   9.493  20.762  0.00  0.00    +0.097 C 
BRANCH  19  21
ATOM      2  O   UNL     1      14.002   8.017  20.056  0.00  0.00    -0.276 OA
ATOM      8  N   UNL     1      13.474   9.463  21.796  0.00  0.00    -0.301 N 
ATOM     21  C   UNL     1      14.324   8.919  20.834  0.00  0.00    +0.216 C 
ATOM     22  C   UNL     1      13.829  10.536  22.735  0.00  0.00    +0.110 C 
ATOM     23  C   UNL     1      12.120   8.926  21.959  0.00  0.00    +0.110 C 
ATOM     24  C   UNL     1      12.818  11.676  22.660  0.00  0.00    +0.050 C 
ATOM     25  C   UNL     1      11.080  10.037  21.869  0.00  0.00    +0.050 C 
ATOM     26  C   UNL     1      11.390  11.166  22.853  0.00  0.00    +0.118 C 
BRANCH  26   3
ATOM      3  O   UNL     1      10.485  12.245  22.650  0.00  0.00    -0.392 OA
ATOM     34  H   UNL     1       9.729  11.902  22.144  0.00  0.00    +0.210 HD
ENDBRANCH  26   3
ENDBRANCH  19  21
ENDBRANCH  16  19
ENDBRANCH  13  16
BRANCH   6  17
ATOM     17  C   UNL     1      22.644   5.352  21.858  0.00  0.00    +0.120 C 
BRANCH  17  20
ATOM     20  C   UNL     1      23.322   4.009  21.811  0.00  0.00    -0.033 A 
ATOM     27  C   UNL     1      23.133   3.094  22.848  0.00  0.00    +0.008 A 
ATOM     28  C   UNL     1      24.137   3.678  20.729  0.00  0.00    +0.008 A 
ATOM     29  C   UNL     1      23.761   1.850  22.803  0.00  0.00    +0.046 A 
ATOM     30  C   UNL     1      24.765   2.434  20.685  0.00  0.00    +0.046 A 
ATOM     31  C   UNL     1      24.577   1.520  21.722  0.00  0.00    +0.120 A 
BRANCH  31   4
ATOM      4  O   UNL     1      25.189   0.304  21.678  0.00  0.00    -0.495 OA
ATOM     32  C   UNL     1      25.904  -0.106  22.843  0.00  0.00    +0.277 C 
ENDBRANCH  31   4
ENDBRANCH  17  20
ENDBRANCH   6  17
TORSDOF 7
ENDMDL
MODEL 5
REMARK VINA RESULT:      -6.5     28.296     31.348
REMARK  Name = 45361198
REMARK  9 active torsions:
REMARK  status: ('A' for Active; 'I' for Inactive)
REMARK    1  A    between atoms: O_3  and  C_26
REMARK    2  A    between atoms: O_4  and  C_31
REMARK    3  A    between atoms: O_4  and  C_32
REMARK    4  A    between atoms: N_5  and  C_18
REMARK    5  A    between atoms: N_6  and  C_17
REMARK    6  A    between atoms: C_13  and  C_16
REMARK    7  A    between atoms: C_16  and  C_19
REMARK    8  A    between atoms: C_17  and  C_20
REMARK    9  A    between atoms: C_19  and  C_21
REMARK                            x       y       z     vdW  Elec       q    Type
REMARK                         _______ _______ _______ _____ _____    ______ ____
ROOT
ATOM      1  O   UNL     1      -5.566  -9.918  14.868  0.00  0.00    -0.274 OA
ATOM      5  N   UNL     1      -3.583 -13.228  14.550  0.00  0.00    -0.296 NA
ATOM      6  N   UNL     1      -6.022 -11.721  16.825  0.00  0.00    -0.286 NA
ATOM      7  N   UNL     1      -3.326 -10.358  14.705  0.00  0.00    -0.312 N 
ATOM      9  C   UNL     1      -4.244 -13.066  15.864  0.00  0.00    +0.084 C 
ATOM     10  C   UNL     1      -4.637 -11.632  16.325  0.00  0.00    +0.161 C 
ATOM     11  C   UNL     1      -5.581 -13.819  15.988  0.00  0.00    +0.036 C 
ATOM     12  C   UNL     1      -6.274 -13.122  17.140  0.00  0.00    +0.087 C 
ATOM     13  C   UNL     1      -2.248 -12.574  14.447  0.00  0.00    +0.074 C 
ATOM     14  C   UNL     1      -4.586 -10.566  15.233  0.00  0.00    +0.232 C 
ATOM     15  C   UNL     1      -2.170 -11.160  15.055  0.00  0.00    +0.123 C 
ATOM     18  C   UNL     1      -3.484 -14.651  14.186  0.00  0.00    +0.105 C 
ATOM     33  H   UNL     1      -3.210  -9.608  14.030  0.00  0.00    +0.149 HD
ENDROOT
BRANCH  13  16
ATOM     16  C   UNL     1      -1.812 -12.469  12.971  0.00  0.00    +0.029 C 
BRANCH  16  19
ATOM     19  C   UNL     1      -2.979 -12.150  12.055  0.00  0.00    +0.097 C 
BRANCH  19  21
ATOM      2  O   UNL     1      -1.854 -10.092  11.726  0.00  0.00    -0.276 OA
ATOM      8  N   UNL     1      -3.754 -10.451  10.440  0.00  0.00    -0.301 N 
ATOM     21  C   UNL     1      -2.804 -10.805  11.397  0.00  0.00    +0.216 C 
ATOM     22  C   UNL     1      -4.895 -11.279  10.027  0.00  0.00    +0.110 C 
ATOM     23  C   UNL     1      -3.626  -9.180   9.722  0.00  0.00    +0.110 C 
ATOM     24  C   UNL     1      -6.200 -10.497  10.142  0.00  0.00    +0.050 C 
ATOM     25  C   UNL     1      -4.907  -8.360   9.833  0.00  0.00    +0.050 C 
ATOM     26  C   UNL     1      -6.122  -9.172   9.382  0.00  0.00    +0.118 C 
BRANCH  26   3
ATOM      3  O   UNL     1      -7.313  -8.433   9.626  0.00  0.00    -0.392 OA
ATOM     34  H   UNL     1      -7.561  -8.574  10.556  0.00  0.00    +0.210 HD
ENDBRANCH  26   3
ENDBRANCH  19  21
ENDBRANCH  16  19
ENDBRANCH  13  16
BRANCH   6  17
ATOM     17  C   UNL     1      -6.283 -10.848  17.962  0.00  0.00    +0.120 C 
BRANCH  17  20
ATOM     20  C   UNL     1      -7.665 -10.254  17.909  0.00  0.00    -0.033 A 
ATOM     27  C   UNL     1      -8.695 -10.815  18.665  0.00  0.00    +0.008 A 
ATOM     28  C   UNL     1      -7.915  -9.142  17.106  0.00  0.00    +0.008 A 
ATOM     29  C   UNL     1      -9.976 -10.264  18.615  0.00  0.00    +0.046 A 
ATOM     30  C   UNL     1      -9.196  -8.592  17.056  0.00  0.00    +0.046 A 
ATOM     31  C   UNL     1     -10.226  -9.153  17.812  0.00  0.00    +0.120 A 
BRANCH  31   4
ATOM      4  O   UNL     1     -11.475  -8.614  17.764  0.00  0.00    -0.495 OA
ATOM     32  C   UNL     1     -11.828  -7.895  16.583  0.00  0.00    +0.277 C 
ENDBRANCH  31   4
ENDBRANCH  17  20
ENDBRANCH   6  17
TORSDOF 7
ENDMDL
MODEL 6
REMARK VINA RESULT:      -6.5     28.463     30.835
REMARK  Name = 45361198
REMARK  9 active torsions:
REMARK  status: ('A' for Active; 'I' for Inactive)
REMARK    1  A    between atoms: O_3  and  C_26
REMARK    2  A    between atoms: O_4  and  C_31
REMARK    3  A    between atoms: O_4  and  C_32
REMARK    4  A    between atoms: N_5  and  C_18
REMARK    5  A    between atoms: N_6  and  C_17
REMARK    6  A    between atoms: C_13  and  C_16
REMARK    7  A    between atoms: C_16  and  C_19
REMARK    8  A    between atoms: C_17  and  C_20
REMARK    9  A    between atoms: C_19  and  C_21
REMARK                            x       y       z     vdW  Elec       q    Type
REMARK                         _______ _______ _______ _____ _____    ______ ____
ROOT
ATOM      1  O   UNL     1      -1.926 -10.998  16.293  0.00  0.00    -0.274 OA
ATOM      5  N   UNL     1      -5.548 -12.365  16.373  0.00  0.00    -0.296 NA
ATOM      6  N   UNL     1      -2.442 -12.983  14.537  0.00  0.00    -0.286 NA
ATOM      7  N   UNL     1      -3.960  -9.978  16.048  0.00  0.00    -0.312 N 
ATOM      9  C   UNL     1      -4.772 -12.831  15.202  0.00  0.00    +0.084 C 
ATOM     10  C   UNL     1      -3.527 -12.008  14.763  0.00  0.00    +0.161 C 
ATOM     11  C   UNL     1      -4.181 -14.244  15.366  0.00  0.00    +0.036 C 
ATOM     12  C   UNL     1      -3.072 -14.284  14.337  0.00  0.00    +0.087 C 
ATOM     13  C   UNL     1      -6.195 -11.035  16.194  0.00  0.00    +0.074 C 
ATOM     14  C   UNL     1      -3.043 -10.976  15.778  0.00  0.00    +0.232 C 
ATOM     15  C   UNL     1      -5.310  -9.968  15.521  0.00  0.00    +0.123 C 
ATOM     18  C   UNL     1      -6.547 -13.370  16.773  0.00  0.00    +0.105 C 
ATOM     33  H   UNL     1      -3.671  -9.217  16.656  0.00  0.00    +0.149 HD
ENDROOT
BRANCH  13  16
ATOM     16  C   UNL     1      -6.652 -10.469  17.555  0.00  0.00    +0.029 C 
BRANCH  16  19
ATOM     19  C   UNL     1      -7.728  -9.412  17.397  0.00  0.00    +0.097 C 
BRANCH  19  21
ATOM      2  O   UNL     1      -9.168 -11.098  18.231  0.00  0.00    -0.276 OA
ATOM      8  N   UNL     1     -10.160  -9.075  17.666  0.00  0.00    -0.301 N 
ATOM     21  C   UNL     1      -9.079  -9.944  17.805  0.00  0.00    +0.216 C 
ATOM     22  C   UNL     1     -10.083  -7.697  17.163  0.00  0.00    +0.110 C 
ATOM     23  C   UNL     1     -11.497  -9.503  18.085  0.00  0.00    +0.110 C 
ATOM     24  C   UNL     1     -11.067  -7.486  16.016  0.00  0.00    +0.050 C 
ATOM     25  C   UNL     1     -12.505  -9.325  16.955  0.00  0.00    +0.050 C 
ATOM     26  C   UNL     1     -12.485  -7.893  16.418  0.00  0.00    +0.118 C 
BRANCH  26   3
ATOM      3  O   UNL     1     -13.332  -7.794  15.279  0.00  0.00    -0.392 OA
ATOM     34  H   UNL     1     -13.656  -6.878  15.233  0.00  0.00    +0.210 HD
ENDBRANCH  26   3
ENDBRANCH  19  21
ENDBRANCH  16  19
ENDBRANCH  13  16
BRANCH   6  17
ATOM     17  C   UNL     1      -1.562 -12.624  13.433  0.00  0.00    +0.120 C 
BRANCH  17  20
ATOM     20  C   UNL     1      -2.315 -11.977  12.302  0.00  0.00    -0.033 A 
ATOM     27  C   UNL     1      -3.122 -12.751  11.468  0.00  0.00    +0.008 A 
ATOM     28  C   UNL     1      -2.208 -10.603  12.089  0.00  0.00    +0.008 A 
ATOM     29  C   UNL     1      -3.820 -12.151  10.420  0.00  0.00    +0.046 A 
ATOM     30  C   UNL     1      -2.905 -10.003  11.041  0.00  0.00    +0.046 A 
ATOM     31  C   UNL     1      -3.712 -10.778  10.207  0.00  0.00    +0.120 A 
BRANCH  31   4
ATOM      4  O   UNL     1      -4.395 -10.191   9.185  0.00  0.00    -0.495 OA
ATOM     32  C   UNL     1      -4.420  -8.765   9.155  0.00  0.00    +0.277 C 
ENDBRANCH  31   4
ENDBRANCH  17  20
ENDBRANCH   6  17
TORSDOF 7
ENDMDL
MODEL 7
REMARK VINA RESULT:      -6.5     28.159     32.666
REMARK  Name = 45361198
REMARK  9 active torsions:
REMARK  status: ('A' for Active; 'I' for Inactive)
REMARK    1  A    between atoms: O_3  and  C_26
REMARK    2  A    between atoms: O_4  and  C_31
REMARK    3  A    between atoms: O_4  and  C_32
REMARK    4  A    between atoms: N_5  and  C_18
REMARK    5  A    between atoms: N_6  and  C_17
REMARK    6  A    between atoms: C_13  and  C_16
REMARK    7  A    between atoms: C_16  and  C_19
REMARK    8  A    between atoms: C_17  and  C_20
REMARK    9  A    between atoms: C_19  and  C_21
REMARK                            x       y       z     vdW  Elec       q    Type
REMARK                         _______ _______ _______ _____ _____    ______ ____
ROOT
ATOM      1  O   UNL     1      -7.901  -8.864  16.858  0.00  0.00    -0.274 OA
ATOM      5  N   UNL     1      -7.438 -12.602  17.756  0.00  0.00    -0.296 NA
ATOM      6  N   UNL     1     -10.165 -10.171  17.534  0.00  0.00    -0.286 NA
ATOM      7  N   UNL     1      -6.588  -9.922  18.405  0.00  0.00    -0.312 N 
ATOM      9  C   UNL     1      -8.776 -12.077  18.109  0.00  0.00    +0.084 C 
ATOM     10  C   UNL     1      -8.947 -10.540  18.281  0.00  0.00    +0.161 C 
ATOM     11  C   UNL     1      -9.869 -12.408  17.077  0.00  0.00    +0.036 C 
ATOM     12  C   UNL     1     -10.950 -11.389  17.369  0.00  0.00    +0.087 C 
ATOM     13  C   UNL     1      -6.390 -12.362  18.787  0.00  0.00    +0.074 C 
ATOM     14  C   UNL     1      -7.787  -9.698  17.756  0.00  0.00    +0.232 C 
ATOM     15  C   UNL     1      -6.402 -10.952  19.409  0.00  0.00    +0.123 C 
ATOM     18  C   UNL     1      -7.509 -14.035  17.424  0.00  0.00    +0.105 C 
ATOM     33  H   UNL     1      -5.795  -9.339  18.157  0.00  0.00    +0.149 HD
ENDROOT
BRANCH  13  16
ATOM     16  C   UNL     1      -4.985 -12.595  18.193  0.00  0.00    +0.029 C 
BRANCH  16  19
ATOM     19  C   UNL     1      -4.962 -12.381  16.691  0.00  0.00    +0.097 C 
BRANCH  19  21
ATOM      2  O   UNL     1      -3.870 -10.297  16.967  0.00  0.00    -0.276 OA
ATOM      8  N   UNL     1      -3.149 -11.618  15.198  0.00  0.00    -0.301 N 
ATOM     21  C   UNL     1      -3.947 -11.334  16.306  0.00  0.00    +0.216 C 
ATOM     22  C   UNL     1      -3.217 -12.844  14.392  0.00  0.00    +0.110 C 
ATOM     23  C   UNL     1      -2.108 -10.671  14.789  0.00  0.00    +0.110 C 
ATOM     24  C   UNL     1      -3.387 -12.510  12.913  0.00  0.00    +0.050 C 
ATOM     25  C   UNL     1      -2.259 -10.297  13.319  0.00  0.00    +0.050 C 
ATOM     26  C   UNL     1      -2.303 -11.544  12.434  0.00  0.00    +0.118 C 
BRANCH  26   3
ATOM      3  O   UNL     1      -2.582 -11.171  11.090  0.00  0.00    -0.392 OA
ATOM     34  H   UNL     1      -3.414 -11.604  10.832  0.00  0.00    +0.210 HD
ENDBRANCH  26   3
ENDBRANCH  19  21
ENDBRANCH  16  19
ENDBRANCH  13  16
BRANCH   6  17
ATOM     17  C   UNL     1     -10.931  -9.106  18.167  0.00  0.00    +0.120 C 
BRANCH  17  20
ATOM     20  C   UNL     1     -11.542  -8.175  17.154  0.00  0.00    -0.033 A 
ATOM     27  C   UNL     1     -12.824  -8.422  16.662  0.00  0.00    +0.008 A 
ATOM     28  C   UNL     1     -10.827  -7.064  16.709  0.00  0.00    +0.008 A 
ATOM     29  C   UNL     1     -13.389  -7.558  15.724  0.00  0.00    +0.046 A 
ATOM     30  C   UNL     1     -11.392  -6.201  15.771  0.00  0.00    +0.046 A 
ATOM     31  C   UNL     1     -12.674  -6.448  15.278  0.00  0.00    +0.120 A 
BRANCH  31   4
ATOM      4  O   UNL     1     -13.226  -5.604  14.363  0.00  0.00    -0.495 OA
ATOM     32  C   UNL     1     -12.328  -4.840  13.560  0.00  0.00    +0.277 C 
ENDBRANCH  31   4
ENDBRANCH  17  20
ENDBRANCH   6  17
TORSDOF 7
ENDMDL
MODEL 8
REMARK VINA RESULT:      -6.5     28.409     31.831
REMARK  Name = 45361198
REMARK  9 active torsions:
REMARK  status: ('A' for Active; 'I' for Inactive)
REMARK    1  A    between atoms: O_3  and  C_26
REMARK    2  A    between atoms: O_4  and  C_31
REMARK    3  A    between atoms: O_4  and  C_32
REMARK    4  A    between atoms: N_5  and  C_18
REMARK    5  A    between atoms: N_6  and  C_17
REMARK    6  A    between atoms: C_13  and  C_16
REMARK    7  A    between atoms: C_16  and  C_19
REMARK    8  A    between atoms: C_17  and  C_20
REMARK    9  A    between atoms: C_19  and  C_21
REMARK                            x       y       z     vdW  Elec       q    Type
REMARK                         _______ _______ _______ _____ _____    ______ ____
ROOT
ATOM      1  O   UNL     1      -6.846  -8.738  12.074  0.00  0.00    -0.274 OA
ATOM      5  N   UNL     1      -3.301 -10.290  11.987  0.00  0.00    -0.296 NA
ATOM      6  N   UNL     1      -5.887  -9.270   9.607  0.00  0.00    -0.286 NA
ATOM      7  N   UNL     1      -5.966 -10.615  13.042  0.00  0.00    -0.312 N 
ATOM      9  C   UNL     1      -3.997 -10.349  10.682  0.00  0.00    +0.084 C 
ATOM     10  C   UNL     1      -5.549 -10.241  10.665  0.00  0.00    +0.161 C 
ATOM     11  C   UNL     1      -3.587  -9.232   9.705  0.00  0.00    +0.036 C 
ATOM     12  C   UNL     1      -4.734  -9.189   8.717  0.00  0.00    +0.087 C 
ATOM     13  C   UNL     1      -3.625 -11.414  12.909  0.00  0.00    +0.074 C 
ATOM     14  C   UNL     1      -6.178  -9.766  11.973  0.00  0.00    +0.232 C 
ATOM     15  C   UNL     1      -5.118 -11.789  12.975  0.00  0.00    +0.123 C 
ATOM     18  C   UNL     1      -1.843 -10.188  11.798  0.00  0.00    +0.105 C 
ATOM     33  H   UNL     1      -6.424 -10.397  13.922  0.00  0.00    +0.149 HD
ENDROOT
BRANCH  13  16
ATOM     16  C   UNL     1      -3.166 -11.083  14.345  0.00  0.00    +0.029 C 
BRANCH  16  19
ATOM     19  C   UNL     1      -3.751 -12.045  15.363  0.00  0.00    +0.097 C 
BRANCH  19  21
ATOM      2  O   UNL     1      -2.827 -10.949  17.249  0.00  0.00    -0.276 OA
ATOM      8  N   UNL     1      -5.109 -11.375  17.313  0.00  0.00    -0.301 N 
ATOM     21  C   UNL     1      -3.845 -11.405  16.725  0.00  0.00    +0.216 C 
ATOM     22  C   UNL     1      -6.339 -11.909  16.713  0.00  0.00    +0.110 C 
ATOM     23  C   UNL     1      -5.291 -10.729  18.616  0.00  0.00    +0.110 C 
ATOM     24  C   UNL     1      -7.030 -12.877  17.669  0.00  0.00    +0.050 C 
ATOM     25  C   UNL     1      -5.962 -11.676  19.605  0.00  0.00    +0.050 C 
ATOM     26  C   UNL     1      -7.267 -12.235  19.036  0.00  0.00    +0.118 C 
BRANCH  26   3
ATOM      3  O   UNL     1      -7.797 -13.216  19.919  0.00  0.00    -0.392 OA
ATOM     34  H   UNL     1      -7.511 -12.985  20.820  0.00  0.00    +0.210 HD
ENDBRANCH  26   3
ENDBRANCH  19  21
ENDBRANCH  16  19
ENDBRANCH  13  16
BRANCH   6  17
ATOM     17  C   UNL     1      -7.111  -9.599   8.889  0.00  0.00    +0.120 C 
BRANCH  17  20
ATOM     20  C   UNL     1      -8.055  -8.428   8.821  0.00  0.00    -0.033 A 
ATOM     27  C   UNL     1      -7.643  -7.233   8.230  0.00  0.00    +0.008 A 
ATOM     28  C   UNL     1      -9.341  -8.539   9.347  0.00  0.00    +0.008 A 
ATOM     29  C   UNL     1      -8.518  -6.149   8.167  0.00  0.00    +0.046 A 
ATOM     30  C   UNL     1     -10.216  -7.454   9.284  0.00  0.00    +0.046 A 
ATOM     31  C   UNL     1      -9.804  -6.259   8.693  0.00  0.00    +0.120 A 
BRANCH  31   4
ATOM      4  O   UNL     1     -10.659  -5.201   8.631  0.00  0.00    -0.495 OA
ATOM     32  C   UNL     1     -11.352  -4.855   9.828  0.00  0.00    +0.277 C 
ENDBRANCH  31   4
ENDBRANCH  17  20
ENDBRANCH   6  17
TORSDOF 7
ENDMDL
MODEL 9
REMARK VINA RESULT:      -6.4     29.227     32.677
REMARK  Name = 45361198
REMARK  9 active torsions:
REMARK  status: ('A' for Active; 'I' for Inactive)
REMARK    1  A    between atoms: O_3  and  C_26
REMARK    2  A    between atoms: O_4  and  C_31
REMARK    3  A    between atoms: O_4  and  C_32
REMARK    4  A    between atoms: N_5  and  C_18
REMARK    5  A    between atoms: N_6  and  C_17
REMARK    6  A    between atoms: C_13  and  C_16
REMARK    7  A    between atoms: C_16  and  C_19
REMARK    8  A    between atoms: C_17  and  C_20
REMARK    9  A    between atoms: C_19  and  C_21
REMARK                            x       y       z     vdW  Elec       q    Type
REMARK                         _______ _______ _______ _____ _____    ______ ____
ROOT
ATOM      1  O   UNL     1      -6.701  -7.989   9.254  0.00  0.00    -0.274 OA
ATOM      5  N   UNL     1      -9.888  -9.089   7.350  0.00  0.00    -0.296 NA
ATOM      6  N   UNL     1      -6.583 -10.447   8.142  0.00  0.00    -0.286 NA
ATOM      7  N   UNL     1      -7.863  -7.041   7.526  0.00  0.00    -0.312 N 
ATOM      9  C   UNL     1      -8.727  -9.973   7.107  0.00  0.00    +0.084 C 
ATOM     10  C   UNL     1      -7.299  -9.412   7.372  0.00  0.00    +0.161 C 
ATOM     11  C   UNL     1      -8.729 -11.257   7.956  0.00  0.00    +0.036 C 
ATOM     12  C   UNL     1      -7.284 -11.707   7.921  0.00  0.00    +0.087 C 
ATOM     13  C   UNL     1      -9.942  -7.885   6.475  0.00  0.00    +0.074 C 
ATOM     14  C   UNL     1      -7.255  -8.107   8.162  0.00  0.00    +0.232 C 
ATOM     15  C   UNL     1      -8.593  -7.164   6.280  0.00  0.00    +0.123 C 
ATOM     18  C   UNL     1     -11.149  -9.844   7.259  0.00  0.00    +0.105 C 
ATOM     33  H   UNL     1      -7.800  -6.126   7.963  0.00  0.00    +0.149 HD
ENDROOT
BRANCH  13  16
ATOM     16  C   UNL     1     -10.942  -6.854   7.035  0.00  0.00    +0.029 C 
BRANCH  16  19
ATOM     19  C   UNL     1     -10.902  -6.791   8.551  0.00  0.00    +0.097 C 
BRANCH  19  21
ATOM      2  O   UNL     1      -9.653  -4.793   8.806  0.00  0.00    -0.276 OA
ATOM      8  N   UNL     1     -11.788  -4.804   9.720  0.00  0.00    -0.301 N 
ATOM     21  C   UNL     1     -10.718  -5.374   9.032  0.00  0.00    +0.216 C 
ATOM     22  C   UNL     1     -13.067  -5.469  10.004  0.00  0.00    +0.110 C 
ATOM     23  C   UNL     1     -11.704  -3.415  10.179  0.00  0.00    +0.110 C 
ATOM     24  C   UNL     1     -13.390  -5.406  11.494  0.00  0.00    +0.050 C 
ATOM     25  C   UNL     1     -12.001  -3.315  11.671  0.00  0.00    +0.050 C 
ATOM     26  C   UNL     1     -13.341  -3.968  12.012  0.00  0.00    +0.118 C 
BRANCH  26   3
ATOM      3  O   UNL     1     -13.526  -3.982  13.422  0.00  0.00    -0.392 OA
ATOM     34  H   UNL     1     -12.878  -4.604  13.797  0.00  0.00    +0.210 HD
ENDBRANCH  26   3
ENDBRANCH  19  21
ENDBRANCH  16  19
ENDBRANCH  13  16
BRANCH   6  17
ATOM     17  C   UNL     1      -5.168 -10.541   7.807  0.00  0.00    +0.120 C 
BRANCH  17  20
ATOM     20  C   UNL     1      -4.297 -10.511   9.034  0.00  0.00    -0.033 A 
ATOM     27  C   UNL     1      -3.690  -9.319   9.432  0.00  0.00    +0.008 A 
ATOM     28  C   UNL     1      -4.098 -11.675   9.776  0.00  0.00    +0.008 A 
ATOM     29  C   UNL     1      -2.884  -9.292  10.569  0.00  0.00    +0.046 A 
ATOM     30  C   UNL     1      -3.292 -11.648  10.913  0.00  0.00    +0.046 A 
ATOM     31  C   UNL     1      -2.685 -10.456  11.310  0.00  0.00    +0.120 A 
BRANCH  31   4
ATOM      4  O   UNL     1      -1.899 -10.430  12.421  0.00  0.00    -0.495 OA
ATOM     32  C   UNL     1      -2.231 -11.336  13.473  0.00  0.00    +0.277 C 
ENDBRANCH  31   4
ENDBRANCH  17  20
ENDBRANCH   6  17
TORSDOF 7
ENDMDL
MODEL 10
REMARK VINA RESULT:      -6.3     27.827     31.313
REMARK  Name = 45361198
REMARK  9 active torsions:
REMARK  status: ('A' for Active; 'I' for Inactive)
REMARK    1  A    between atoms: O_3  and  C_26
REMARK    2  A    between atoms: O_4  and  C_31
REMARK    3  A    between atoms: O_4  and  C_32
REMARK    4  A    between atoms: N_5  and  C_18
REMARK    5  A    between atoms: N_6  and  C_17
REMARK    6  A    between atoms: C_13  and  C_16
REMARK    7  A    between atoms: C_16  and  C_19
REMARK    8  A    between atoms: C_17  and  C_20
REMARK    9  A    between atoms: C_19  and  C_21
REMARK                            x       y       z     vdW  Elec       q    Type
REMARK                         _______ _______ _______ _____ _____    ______ ____
ROOT
ATOM      1  O   UNL     1      -5.863  -9.549  13.466  0.00  0.00    -0.274 OA
ATOM      5  N   UNL     1      -3.099 -10.830  15.857  0.00  0.00    -0.296 NA
ATOM      6  N   UNL     1      -3.670 -10.554  12.252  0.00  0.00    -0.286 NA
ATOM      7  N   UNL     1      -5.885 -11.095  15.154  0.00  0.00    -0.312 N 
ATOM      9  C   UNL     1      -2.885 -11.229  14.447  0.00  0.00    +0.084 C 
ATOM     10  C   UNL     1      -4.108 -11.236  13.485  0.00  0.00    +0.161 C 
ATOM     11  C   UNL     1      -1.886 -10.334  13.690  0.00  0.00    +0.036 C 
ATOM     12  C   UNL     1      -2.212 -10.595  12.234  0.00  0.00    +0.087 C 
ATOM     13  C   UNL     1      -3.997 -11.737  16.624  0.00  0.00    +0.074 C 
ATOM     14  C   UNL     1      -5.350 -10.524  14.014  0.00  0.00    +0.232 C 
ATOM     15  C   UNL     1      -5.261 -12.191  15.867  0.00  0.00    +0.123 C 
ATOM     18  C   UNL     1      -1.813 -10.672  16.557  0.00  0.00    +0.105 C 
ATOM     33  H   UNL     1      -6.757 -10.717  15.512  0.00  0.00    +0.149 HD
ENDROOT
BRANCH  13  16
ATOM     16  C   UNL     1      -4.458 -11.061  17.932  0.00  0.00    +0.029 C 
BRANCH  16  19
ATOM     19  C   UNL     1      -5.317 -11.984  18.776  0.00  0.00    +0.097 C 
BRANCH  19  21
ATOM      2  O   UNL     1      -6.338 -10.297  20.089  0.00  0.00    -0.276 OA
ATOM      8  N   UNL     1      -7.767 -11.730  18.950  0.00  0.00    -0.301 N 
ATOM     21  C   UNL     1      -6.513 -11.255  19.333  0.00  0.00    +0.216 C 
ATOM     22  C   UNL     1      -8.007 -12.868  18.053  0.00  0.00    +0.110 C 
ATOM     23  C   UNL     1      -8.978 -11.047  19.413  0.00  0.00    +0.110 C 
ATOM     24  C   UNL     1      -8.945 -13.881  18.704  0.00  0.00    +0.050 C 
ATOM     25  C   UNL     1      -9.931 -12.026  20.089  0.00  0.00    +0.050 C 
ATOM     26  C   UNL     1     -10.238 -13.216  19.178  0.00  0.00    +0.118 C 
BRANCH  26   3
ATOM      3  O   UNL     1     -11.015 -14.175  19.884  0.00  0.00    -0.392 OA
ATOM     34  H   UNL     1     -10.925 -15.025  19.419  0.00  0.00    +0.210 HD
ENDBRANCH  26   3
ENDBRANCH  19  21
ENDBRANCH  16  19
ENDBRANCH  13  16
BRANCH   6  17
ATOM     17  C   UNL     1      -4.249 -11.121  11.041  0.00  0.00    +0.120 C 
BRANCH  17  20
ATOM     20  C   UNL     1      -5.158 -10.145  10.343  0.00  0.00    -0.033 A 
ATOM     27  C   UNL     1      -6.403 -10.563   9.872  0.00  0.00    +0.008 A 
ATOM     28  C   UNL     1      -4.756  -8.821  10.168  0.00  0.00    +0.008 A 
ATOM     29  C   UNL     1      -7.245  -9.659   9.226  0.00  0.00    +0.046 A 
ATOM     30  C   UNL     1      -5.598  -7.916   9.522  0.00  0.00    +0.046 A 
ATOM     31  C   UNL     1      -6.842  -8.335   9.051  0.00  0.00    +0.120 A 
BRANCH  31   4
ATOM      4  O   UNL     1      -7.664  -7.451   8.421  0.00  0.00    -0.495 OA
ATOM     32  C   UNL     1      -8.105  -7.795   7.109  0.00  0.00    +0.277 C 
ENDBRANCH  31   4
ENDBRANCH  17  20
ENDBRANCH   6  17
TORSDOF 7
ENDMDL
