MODEL 1
REMARK VINA RESULT:      -6.8      0.000      0.000
REMARK  Name = 7143842
REMARK  6 active torsions:
REMARK  status: ('A' for Active; 'I' for Inactive)
REMARK    1  A    between atoms: S_1  and  C_27
REMARK    2  A    between atoms: S_1  and  C_28
REMARK    3  A    between atoms: N_6  and  C_20
REMARK    4  A    between atoms: C_17  and  C_19
REMARK    5  A    between atoms: C_20  and  C_23
REMARK    6  A    between atoms: C_20  and  C_24
REMARK                            x       y       z     vdW  Elec       q    Type
REMARK                         _______ _______ _______ _____ _____    ______ ____
ROOT
ATOM      2  O   UNL     1      10.392   7.219   2.174  0.00  0.00    -0.267 OA
ATOM      3  O   UNL     1      13.553   6.578   7.270  0.00  0.00    -0.253 OA
ATOM      4  N   UNL     1      11.483   7.616   7.093  0.00  0.00    -0.285 N 
ATOM      5  N   UNL     1       9.964   6.696   4.406  0.00  0.00    -0.311 N 
ATOM      6  N   UNL     1      13.476   8.726   6.469  0.00  0.00    -0.297 N 
ATOM      7  C   UNL     1       9.321   8.467   6.138  0.00  0.00    +0.027 C 
ATOM      8  C   UNL     1       9.508   6.115   6.814  0.00  0.00    +0.054 C 
ATOM      9  C   UNL     1       8.585   7.330   6.833  0.00  0.00    +0.018 C 
ATOM     10  C   UNL     1      10.640   8.799   6.861  0.00  0.00    +0.114 C 
ATOM     11  C   UNL     1       9.554   8.080   4.672  0.00  0.00    +0.130 C 
ATOM     12  C   UNL     1      10.782   6.436   7.614  0.00  0.00    +0.119 C 
ATOM     13  C   UNL     1       9.874   5.716   5.397  0.00  0.00    +0.027 A 
ATOM     14  C   UNL     1      10.137   4.434   5.101  0.00  0.00    +0.022 A 
ATOM     15  C   UNL     1      10.339   6.388   3.084  0.00  0.00    +0.259 A 
ATOM     16  C   UNL     1      12.883   7.570   6.964  0.00  0.00    +0.302 C 
ATOM     17  C   UNL     1      10.663   4.948   2.791  0.00  0.00    +0.047 A 
ATOM     18  C   UNL     1      10.543   4.049   3.779  0.00  0.00    +0.015 A 
ATOM     29  H   UNL     1      12.948   9.580   6.360  0.00  0.00    +0.150 HD
ENDROOT
BRANCH  17  19
ATOM     19  C   UNL     1      11.112   4.523   1.455  0.00  0.00    -0.013 A 
ATOM     21  C   UNL     1      12.370   3.938   1.293  0.00  0.00    +0.010 A 
ATOM     22  C   UNL     1      10.282   4.703   0.348  0.00  0.00    +0.010 A 
ATOM     25  C   UNL     1      12.795   3.535   0.027  0.00  0.00    +0.015 A 
ATOM     26  C   UNL     1      10.708   4.300  -0.918  0.00  0.00    +0.015 A 
ATOM     27  C   UNL     1      11.964   3.717  -1.078  0.00  0.00    +0.008 A 
BRANCH  27   1
ATOM      1  S   UNL     1      12.508   3.203  -2.695  0.00  0.00    -0.129 S 
ATOM     28  C   UNL     1      10.931   2.838  -3.517  0.00  0.00    +0.090 C 
ENDBRANCH  27   1
ENDBRANCH  17  19
BRANCH   6  20
ATOM     20  C   UNL     1      14.906   8.839   6.284  0.00  0.00    +0.068 C 
ATOM     23  C   UNL     1      15.368  10.259   6.584  0.00  0.00    +0.027 C 
ATOM     24  C   UNL     1      15.298   8.416   4.874  0.00  0.00    +0.027 C 
ENDBRANCH   6  20
TORSDOF 3
ENDMDL
MODEL 2
REMARK VINA RESULT:      -6.7     12.672     15.192
REMARK  Name = 7143842
REMARK  6 active torsions:
REMARK  status: ('A' for Active; 'I' for Inactive)
REMARK    1  A    between atoms: S_1  and  C_27
REMARK    2  A    between atoms: S_1  and  C_28
REMARK    3  A    between atoms: N_6  and  C_20
REMARK    4  A    between atoms: C_17  and  C_19
REMARK    5  A    between atoms: C_20  and  C_23
REMARK    6  A    between atoms: C_20  and  C_24
REMARK                            x       y       z     vdW  Elec       q    Type
REMARK                         _______ _______ _______ _____ _____    ______ ____
ROOT
ATOM      2  O   UNL     1      14.220  12.055  17.832  0.00  0.00    -0.267 OA
ATOM      3  O   UNL     1      15.474   6.365  19.385  0.00  0.00    -0.253 OA
ATOM      4  N   UNL     1      13.910   7.729  20.426  0.00  0.00    -0.285 N 
ATOM      5  N   UNL     1      13.039  10.157  18.497  0.00  0.00    -0.311 N 
ATOM      6  N   UNL     1      16.222   7.939  20.877  0.00  0.00    -0.297 N 
ATOM      7  C   UNL     1      12.435   9.697  20.940  0.00  0.00    +0.027 C 
ATOM      8  C   UNL     1      11.767   8.101  19.200  0.00  0.00    +0.054 C 
ATOM      9  C   UNL     1      11.247   8.937  20.366  0.00  0.00    +0.018 C 
ATOM     10  C   UNL     1      13.527   8.729  21.435  0.00  0.00    +0.114 C 
ATOM     11  C   UNL     1      12.966  10.663  19.874  0.00  0.00    +0.130 C 
ATOM     12  C   UNL     1      12.793   7.083  19.726  0.00  0.00    +0.119 C 
ATOM     13  C   UNL     1      12.403   8.969  18.131  0.00  0.00    +0.027 A 
ATOM     14  C   UNL     1      12.379   8.588  16.845  0.00  0.00    +0.022 A 
ATOM     15  C   UNL     1      13.681  10.982  17.553  0.00  0.00    +0.259 A 
ATOM     16  C   UNL     1      15.219   7.282  20.173  0.00  0.00    +0.302 C 
ATOM     17  C   UNL     1      13.669  10.509  16.124  0.00  0.00    +0.047 A 
ATOM     18  C   UNL     1      13.027   9.369  15.830  0.00  0.00    +0.015 A 
ATOM     29  H   UNL     1      16.003   8.581  21.624  0.00  0.00    +0.150 HD
ENDROOT
BRANCH  17  19
ATOM     19  C   UNL     1      14.351  11.269  15.063  0.00  0.00    -0.013 A 
ATOM     21  C   UNL     1      13.626  12.154  14.261  0.00  0.00    +0.010 A 
ATOM     22  C   UNL     1      15.721  11.106  14.856  0.00  0.00    +0.010 A 
ATOM     25  C   UNL     1      14.272  12.873  13.256  0.00  0.00    +0.015 A 
ATOM     26  C   UNL     1      16.367  11.826  13.850  0.00  0.00    +0.015 A 
ATOM     27  C   UNL     1      15.641  12.709  13.050  0.00  0.00    +0.008 A 
BRANCH  27   1
ATOM      1  S   UNL     1      16.466  13.627  11.764  0.00  0.00    -0.129 S 
ATOM     28  C   UNL     1      17.561  12.366  11.054  0.00  0.00    +0.090 C 
ENDBRANCH  27   1
ENDBRANCH  17  19
BRANCH   6  20
ATOM     20  C   UNL     1      17.618   7.590  20.731  0.00  0.00    +0.068 C 
ATOM     23  C   UNL     1      17.926   6.308  21.493  0.00  0.00    +0.027 C 
ATOM     24  C   UNL     1      18.506   8.738  21.198  0.00  0.00    +0.027 C 
ENDBRANCH   6  20
TORSDOF 3
ENDMDL
MODEL 3
REMARK VINA RESULT:      -6.3      2.219      4.145
REMARK  Name = 7143842
REMARK  6 active torsions:
REMARK  status: ('A' for Active; 'I' for Inactive)
REMARK    1  A    between atoms: S_1  and  C_27
REMARK    2  A    between atoms: S_1  and  C_28
REMARK    3  A    between atoms: N_6  and  C_20
REMARK    4  A    between atoms: C_17  and  C_19
REMARK    5  A    between atoms: C_20  and  C_23
REMARK    6  A    between atoms: C_20  and  C_24
REMARK                            x       y       z     vdW  Elec       q    Type
REMARK                         _______ _______ _______ _____ _____    ______ ____
ROOT
ATOM      2  O   UNL     1      10.106   4.656   3.344  0.00  0.00    -0.267 OA
ATOM      3  O   UNL     1       9.437  10.432   4.944  0.00  0.00    -0.253 OA
ATOM      4  N   UNL     1       9.182   8.607   6.357  0.00  0.00    -0.285 N 
ATOM      5  N   UNL     1      10.665   6.011   5.158  0.00  0.00    -0.311 N 
ATOM      6  N   UNL     1       7.476   9.244   4.848  0.00  0.00    -0.297 N 
ATOM      7  C   UNL     1       9.163   6.247   7.217  0.00  0.00    +0.027 C 
ATOM      8  C   UNL     1      11.281   7.482   7.107  0.00  0.00    +0.054 C 
ATOM      9  C   UNL     1      10.459   6.525   7.966  0.00  0.00    +0.018 C 
ATOM     10  C   UNL     1       8.372   7.546   6.973  0.00  0.00    +0.114 C 
ATOM     11  C   UNL     1       9.498   5.525   5.905  0.00  0.00    +0.130 C 
ATOM     12  C   UNL     1      10.513   8.804   6.946  0.00  0.00    +0.119 C 
ATOM     13  C   UNL     1      11.580   6.889   5.743  0.00  0.00    +0.027 A 
ATOM     14  C   UNL     1      12.702   7.225   5.089  0.00  0.00    +0.022 A 
ATOM     15  C   UNL     1      10.871   5.462   3.877  0.00  0.00    +0.259 A 
ATOM     16  C   UNL     1       8.748   9.492   5.353  0.00  0.00    +0.302 C 
ATOM     17  C   UNL     1      12.120   5.887   3.154  0.00  0.00    +0.047 A 
ATOM     18  C   UNL     1      12.971   6.719   3.773  0.00  0.00    +0.015 A 
ATOM     29  H   UNL     1       6.861   8.572   5.284  0.00  0.00    +0.150 HD
ENDROOT
BRANCH  17  19
ATOM     19  C   UNL     1      12.412   5.412   1.791  0.00  0.00    -0.013 A 
ATOM     21  C   UNL     1      12.006   6.164   0.687  0.00  0.00    +0.010 A 
ATOM     22  C   UNL     1      13.095   4.210   1.600  0.00  0.00    +0.010 A 
ATOM     25  C   UNL     1      12.282   5.714  -0.604  0.00  0.00    +0.015 A 
ATOM     26  C   UNL     1      13.371   3.760   0.308  0.00  0.00    +0.015 A 
ATOM     27  C   UNL     1      12.964   4.512  -0.793  0.00  0.00    +0.008 A 
BRANCH  27   1
ATOM      1  S   UNL     1      13.316   3.937  -2.443  0.00  0.00    -0.129 S 
ATOM     28  C   UNL     1      11.722   4.195  -3.272  0.00  0.00    +0.090 C 
ENDBRANCH  27   1
ENDBRANCH  17  19
BRANCH   6  20
ATOM     20  C   UNL     1       6.884  10.068   3.818  0.00  0.00    +0.068 C 
ATOM     23  C   UNL     1       5.545  10.622   4.287  0.00  0.00    +0.027 C 
ATOM     24  C   UNL     1       6.733   9.278   2.523  0.00  0.00    +0.027 C 
ENDBRANCH   6  20
TORSDOF 3
ENDMDL
MODEL 4
REMARK VINA RESULT:      -6.2     14.850     17.268
REMARK  Name = 7143842
REMARK  6 active torsions:
REMARK  status: ('A' for Active; 'I' for Inactive)
REMARK    1  A    between atoms: S_1  and  C_27
REMARK    2  A    between atoms: S_1  and  C_28
REMARK    3  A    between atoms: N_6  and  C_20
REMARK    4  A    between atoms: C_17  and  C_19
REMARK    5  A    between atoms: C_20  and  C_23
REMARK    6  A    between atoms: C_20  and  C_24
REMARK                            x       y       z     vdW  Elec       q    Type
REMARK                         _______ _______ _______ _____ _____    ______ ____
ROOT
ATOM      2  O   UNL     1      -6.470   9.789   5.358  0.00  0.00    -0.267 OA
ATOM      3  O   UNL     1      -1.595   9.641   1.812  0.00  0.00    -0.253 OA
ATOM      4  N   UNL     1      -1.685  10.576   3.935  0.00  0.00    -0.285 N 
ATOM      5  N   UNL     1      -4.182   9.407   5.599  0.00  0.00    -0.311 N 
ATOM      6  N   UNL     1      -2.530  11.723   2.047  0.00  0.00    -0.297 N 
ATOM      7  C   UNL     1      -2.530  11.266   6.198  0.00  0.00    +0.027 C 
ATOM      8  C   UNL     1      -1.714   8.978   5.853  0.00  0.00    +0.054 C 
ATOM      9  C   UNL     1      -1.707  10.152   6.828  0.00  0.00    +0.018 C 
ATOM     10  C   UNL     1      -1.931  11.704   4.847  0.00  0.00    +0.114 C 
ATOM     11  C   UNL     1      -3.980  10.788   6.053  0.00  0.00    +0.130 C 
ATOM     12  C   UNL     1      -1.035   9.407   4.541  0.00  0.00    +0.119 C 
ATOM     13  C   UNL     1      -3.124   8.496   5.571  0.00  0.00    +0.027 A 
ATOM     14  C   UNL     1      -3.353   7.208   5.270  0.00  0.00    +0.022 A 
ATOM     15  C   UNL     1      -5.506   9.023   5.306  0.00  0.00    +0.259 A 
ATOM     16  C   UNL     1      -1.916  10.580   2.547  0.00  0.00    +0.302 C 
ATOM     17  C   UNL     1      -5.725   7.581   4.936  0.00  0.00    +0.047 A 
ATOM     18  C   UNL     1      -4.673   6.749   4.943  0.00  0.00    +0.015 A 
ATOM     29  H   UNL     1      -2.655  12.544   2.621  0.00  0.00    +0.150 HD
ENDROOT
BRANCH  17  19
ATOM     19  C   UNL     1      -7.060   7.082   4.565  0.00  0.00    -0.013 A 
ATOM     21  C   UNL     1      -7.649   6.051   5.299  0.00  0.00    +0.010 A 
ATOM     22  C   UNL     1      -7.738   7.640   3.481  0.00  0.00    +0.010 A 
ATOM     25  C   UNL     1      -8.913   5.578   4.947  0.00  0.00    +0.015 A 
ATOM     26  C   UNL     1      -9.003   7.167   3.129  0.00  0.00    +0.015 A 
ATOM     27  C   UNL     1      -9.590   6.136   3.862  0.00  0.00    +0.008 A 
BRANCH  27   1
ATOM      1  S   UNL     1     -11.204   5.531   3.412  0.00  0.00    -0.129 S 
ATOM     28  C   UNL     1     -11.102   5.517   1.600  0.00  0.00    +0.090 C 
ENDBRANCH  27   1
ENDBRANCH  17  19
BRANCH   6  20
ATOM     20  C   UNL     1      -2.828  11.882   0.641  0.00  0.00    +0.068 C 
ATOM     23  C   UNL     1      -2.373  13.252   0.155  0.00  0.00    +0.027 C 
ATOM     24  C   UNL     1      -4.315  11.670   0.383  0.00  0.00    +0.027 C 
ENDBRANCH   6  20
TORSDOF 3
ENDMDL
MODEL 5
REMARK VINA RESULT:      -6.2     25.424     28.006
REMARK  Name = 7143842
REMARK  6 active torsions:
REMARK  status: ('A' for Active; 'I' for Inactive)
REMARK    1  A    between atoms: S_1  and  C_27
REMARK    2  A    between atoms: S_1  and  C_28
REMARK    3  A    between atoms: N_6  and  C_20
REMARK    4  A    between atoms: C_17  and  C_19
REMARK    5  A    between atoms: C_20  and  C_23
REMARK    6  A    between atoms: C_20  and  C_24
REMARK                            x       y       z     vdW  Elec       q    Type
REMARK                         _______ _______ _______ _____ _____    ______ ____
ROOT
ATOM      2  O   UNL     1      -6.649 -10.350  14.176  0.00  0.00    -0.267 OA
ATOM      3  O   UNL     1      -2.633 -14.839  14.466  0.00  0.00    -0.253 OA
ATOM      4  N   UNL     1      -2.464 -12.970  13.099  0.00  0.00    -0.285 N 
ATOM      5  N   UNL     1      -4.329 -10.579  14.187  0.00  0.00    -0.311 N 
ATOM      6  N   UNL     1      -3.860 -14.792  12.528  0.00  0.00    -0.297 N 
ATOM      7  C   UNL     1      -2.950 -10.745  12.038  0.00  0.00    +0.027 C 
ATOM      8  C   UNL     1      -1.823 -10.831  14.216  0.00  0.00    +0.054 C 
ATOM      9  C   UNL     1      -1.832 -10.124  12.863  0.00  0.00    +0.018 C 
ATOM     10  C   UNL     1      -2.721 -12.256  11.839  0.00  0.00    +0.114 C 
ATOM     11  C   UNL     1      -4.290 -10.455  12.725  0.00  0.00    +0.130 C 
ATOM     12  C   UNL     1      -1.508 -12.322  14.006  0.00  0.00    +0.119 C 
ATOM     13  C   UNL     1      -3.152 -10.680  14.932  0.00  0.00    +0.027 A 
ATOM     14  C   UNL     1      -3.201 -10.670  16.273  0.00  0.00    +0.022 A 
ATOM     15  C   UNL     1      -5.593 -10.478  14.799  0.00  0.00    +0.259 A 
ATOM     16  C   UNL     1      -2.964 -14.241  13.437  0.00  0.00    +0.302 C 
ATOM     17  C   UNL     1      -5.620 -10.507  16.304  0.00  0.00    +0.047 A 
ATOM     18  C   UNL     1      -4.456 -10.588  16.966  0.00  0.00    +0.015 A 
ATOM     29  H   UNL     1      -4.013 -14.370  11.623  0.00  0.00    +0.150 HD
ENDROOT
BRANCH  17  19
ATOM     19  C   UNL     1      -6.891 -10.456  17.046  0.00  0.00    -0.013 A 
ATOM     21  C   UNL     1      -7.628  -9.271  17.089  0.00  0.00    +0.010 A 
ATOM     22  C   UNL     1      -7.360 -11.592  17.707  0.00  0.00    +0.010 A 
ATOM     25  C   UNL     1      -8.832  -9.223  17.792  0.00  0.00    +0.015 A 
ATOM     26  C   UNL     1      -8.564 -11.543  18.411  0.00  0.00    +0.015 A 
ATOM     27  C   UNL     1      -9.299 -10.358  18.453  0.00  0.00    +0.008 A 
BRANCH  27   1
ATOM      1  S   UNL     1     -10.836 -10.296  19.353  0.00  0.00    -0.129 S 
ATOM     28  C   UNL     1     -10.892 -11.948  20.103  0.00  0.00    +0.090 C 
ENDBRANCH  27   1
ENDBRANCH  17  19
BRANCH   6  20
ATOM     20  C   UNL     1      -4.456 -16.093  12.728  0.00  0.00    +0.068 C 
ATOM     23  C   UNL     1      -4.210 -16.981  11.516  0.00  0.00    +0.027 C 
ATOM     24  C   UNL     1      -5.946 -15.959  13.022  0.00  0.00    +0.027 C 
ENDBRANCH   6  20
TORSDOF 3
ENDMDL
MODEL 6
REMARK VINA RESULT:      -6.2     23.809     25.628
REMARK  Name = 7143842
REMARK  6 active torsions:
REMARK  status: ('A' for Active; 'I' for Inactive)
REMARK    1  A    between atoms: S_1  and  C_27
REMARK    2  A    between atoms: S_1  and  C_28
REMARK    3  A    between atoms: N_6  and  C_20
REMARK    4  A    between atoms: C_17  and  C_19
REMARK    5  A    between atoms: C_20  and  C_23
REMARK    6  A    between atoms: C_20  and  C_24
REMARK                            x       y       z     vdW  Elec       q    Type
REMARK                         _______ _______ _______ _____ _____    ______ ____
ROOT
ATOM      2  O   UNL     1      -5.913 -12.358  10.941  0.00  0.00    -0.267 OA
ATOM      3  O   UNL     1      -3.503 -10.192  16.027  0.00  0.00    -0.253 OA
ATOM      4  N   UNL     1      -3.184 -12.336  15.195  0.00  0.00    -0.285 N 
ATOM      5  N   UNL     1      -3.863 -12.459  12.049  0.00  0.00    -0.311 N 
ATOM      6  N   UNL     1      -5.159 -11.745  16.353  0.00  0.00    -0.297 N 
ATOM      7  C   UNL     1      -3.269 -14.338  13.680  0.00  0.00    +0.027 C 
ATOM      8  C   UNL     1      -1.646 -12.551  13.240  0.00  0.00    +0.054 C 
ATOM      9  C   UNL     1      -1.830 -14.066  13.264  0.00  0.00    +0.018 C 
ATOM     10  C   UNL     1      -3.565 -13.752  15.074  0.00  0.00    +0.114 C 
ATOM     11  C   UNL     1      -4.208 -13.772  12.608  0.00  0.00    +0.130 C 
ATOM     12  C   UNL     1      -1.861 -11.993  14.656  0.00  0.00    +0.119 C 
ATOM     13  C   UNL     1      -2.608 -11.889  12.272  0.00  0.00    +0.027 A 
ATOM     14  C   UNL     1      -2.268 -10.748  11.653  0.00  0.00    +0.022 A 
ATOM     15  C   UNL     1      -4.811 -11.866  11.192  0.00  0.00    +0.259 A 
ATOM     16  C   UNL     1      -3.920 -11.344  15.867  0.00  0.00    +0.302 C 
ATOM     17  C   UNL     1      -4.415 -10.568  10.541  0.00  0.00    +0.047 A 
ATOM     18  C   UNL     1      -3.189 -10.078  10.780  0.00  0.00    +0.015 A 
ATOM     29  H   UNL     1      -5.432 -12.718  16.352  0.00  0.00    +0.150 HD
ENDROOT
BRANCH  17  19
ATOM     19  C   UNL     1      -5.346  -9.838   9.665  0.00  0.00    -0.013 A 
ATOM     21  C   UNL     1      -6.212  -8.885  10.205  0.00  0.00    +0.010 A 
ATOM     22  C   UNL     1      -5.364 -10.097   8.294  0.00  0.00    +0.010 A 
ATOM     25  C   UNL     1      -7.093  -8.193   9.374  0.00  0.00    +0.015 A 
ATOM     26  C   UNL     1      -6.247  -9.405   7.464  0.00  0.00    +0.015 A 
ATOM     27  C   UNL     1      -7.112  -8.453   8.005  0.00  0.00    +0.008 A 
BRANCH  27   1
ATOM      1  S   UNL     1      -8.239  -7.571   6.944  0.00  0.00    -0.129 S 
ATOM     28  C   UNL     1      -8.770  -6.209   8.022  0.00  0.00    +0.090 C 
ENDBRANCH  27   1
ENDBRANCH  17  19
BRANCH   6  20
ATOM     20  C   UNL     1      -6.032 -10.844  17.072  0.00  0.00    +0.068 C 
ATOM     23  C   UNL     1      -5.775 -10.940  18.570  0.00  0.00    +0.027 C 
ATOM     24  C   UNL     1      -7.491 -11.137  16.742  0.00  0.00    +0.027 C 
ENDBRANCH   6  20
TORSDOF 3
ENDMDL
MODEL 7
REMARK VINA RESULT:      -6.0      3.799      6.106
REMARK  Name = 7143842
REMARK  6 active torsions:
REMARK  status: ('A' for Active; 'I' for Inactive)
REMARK    1  A    between atoms: S_1  and  C_27
REMARK    2  A    between atoms: S_1  and  C_28
REMARK    3  A    between atoms: N_6  and  C_20
REMARK    4  A    between atoms: C_17  and  C_19
REMARK    5  A    between atoms: C_20  and  C_23
REMARK    6  A    between atoms: C_20  and  C_24
REMARK                            x       y       z     vdW  Elec       q    Type
REMARK                         _______ _______ _______ _____ _____    ______ ____
ROOT
ATOM      2  O   UNL     1      12.603   6.813   3.279  0.00  0.00    -0.267 OA
ATOM      3  O   UNL     1       8.732   9.419   7.098  0.00  0.00    -0.253 OA
ATOM      4  N   UNL     1       8.675   7.194   6.436  0.00  0.00    -0.285 N 
ATOM      5  N   UNL     1      11.535   6.268   5.279  0.00  0.00    -0.311 N 
ATOM      6  N   UNL     1       7.840   8.915   5.045  0.00  0.00    -0.297 N 
ATOM      7  C   UNL     1       9.304   5.016   5.354  0.00  0.00    +0.027 C 
ATOM      8  C   UNL     1      10.392   5.691   7.448  0.00  0.00    +0.054 C 
ATOM      9  C   UNL     1       9.788   4.503   6.703  0.00  0.00    +0.018 C 
ATOM     10  C   UNL     1       8.244   6.121   5.527  0.00  0.00    +0.114 C 
ATOM     11  C   UNL     1      10.515   5.505   4.549  0.00  0.00    +0.130 C 
ATOM     12  C   UNL     1       9.300   6.746   7.688  0.00  0.00    +0.119 C 
ATOM     13  C   UNL     1      11.543   6.305   6.675  0.00  0.00    +0.027 A 
ATOM     14  C   UNL     1      12.552   6.905   7.326  0.00  0.00    +0.022 A 
ATOM     15  C   UNL     1      12.556   6.858   4.510  0.00  0.00    +0.259 A 
ATOM     16  C   UNL     1       8.438   8.569   6.252  0.00  0.00    +0.302 C 
ATOM     17  C   UNL     1      13.655   7.555   5.267  0.00  0.00    +0.047 A 
ATOM     18  C   UNL     1      13.619   7.543   6.608  0.00  0.00    +0.015 A 
ATOM     29  H   UNL     1       7.468   8.211   4.424  0.00  0.00    +0.150 HD
ENDROOT
BRANCH  17  19
ATOM     19  C   UNL     1      14.748   8.246   4.562  0.00  0.00    -0.013 A 
ATOM     21  C   UNL     1      14.585   9.570   4.149  0.00  0.00    +0.010 A 
ATOM     22  C   UNL     1      15.947   7.580   4.308  0.00  0.00    +0.010 A 
ATOM     25  C   UNL     1      15.621  10.224   3.481  0.00  0.00    +0.015 A 
ATOM     26  C   UNL     1      16.982   8.235   3.640  0.00  0.00    +0.015 A 
ATOM     27  C   UNL     1      16.818   9.557   3.226  0.00  0.00    +0.008 A 
BRANCH  27   1
ATOM      1  S   UNL     1      18.140  10.393   2.373  0.00  0.00    -0.129 S 
ATOM     28  C   UNL     1      19.387   9.080   2.247  0.00  0.00    +0.090 C 
ENDBRANCH  27   1
ENDBRANCH  17  19
BRANCH   6  20
ATOM     20  C   UNL     1       7.525  10.286   4.709  0.00  0.00    +0.068 C 
ATOM     23  C   UNL     1       6.090  10.392   4.209  0.00  0.00    +0.027 C 
ATOM     24  C   UNL     1       8.511  10.823   3.678  0.00  0.00    +0.027 C 
ENDBRANCH   6  20
TORSDOF 3
ENDMDL
MODEL 8
REMARK VINA RESULT:      -6.0      4.219      6.082
REMARK  Name = 7143842
REMARK  6 active torsions:
REMARK  status: ('A' for Active; 'I' for Inactive)
REMARK    1  A    between atoms: S_1  and  C_27
REMARK    2  A    between atoms: S_1  and  C_28
REMARK    3  A    between atoms: N_6  and  C_20
REMARK    4  A    between atoms: C_17  and  C_19
REMARK    5  A    between atoms: C_20  and  C_23
REMARK    6  A    between atoms: C_20  and  C_24
REMARK                            x       y       z     vdW  Elec       q    Type
REMARK                         _______ _______ _______ _____ _____    ______ ____
ROOT
ATOM      2  O   UNL     1      12.679   8.271   3.791  0.00  0.00    -0.267 OA
ATOM      3  O   UNL     1       9.701  10.083   8.711  0.00  0.00    -0.253 OA
ATOM      4  N   UNL     1       8.844   8.699   7.055  0.00  0.00    -0.285 N 
ATOM      5  N   UNL     1      11.218   7.341   5.353  0.00  0.00    -0.311 N 
ATOM      6  N   UNL     1       8.973  11.042   6.759  0.00  0.00    -0.297 N 
ATOM      7  C   UNL     1       8.685   7.267   4.997  0.00  0.00    +0.027 C 
ATOM      8  C   UNL     1       9.653   6.338   7.051  0.00  0.00    +0.054 C 
ATOM      9  C   UNL     1       8.731   6.025   5.876  0.00  0.00    +0.018 C 
ATOM     10  C   UNL     1       8.148   8.482   5.778  0.00  0.00    +0.114 C 
ATOM     11  C   UNL     1      10.089   7.524   4.433  0.00  0.00    +0.130 C 
ATOM     12  C   UNL     1       9.057   7.496   7.868  0.00  0.00    +0.119 C 
ATOM     13  C   UNL     1      11.049   6.701   6.582  0.00  0.00    +0.027 A 
ATOM     14  C   UNL     1      12.114   6.435   7.354  0.00  0.00    +0.022 A 
ATOM     15  C   UNL     1      12.486   7.739   4.886  0.00  0.00    +0.259 A 
ATOM     16  C   UNL     1       9.209   9.950   7.586  0.00  0.00    +0.302 C 
ATOM     17  C   UNL     1      13.657   7.460   5.790  0.00  0.00    +0.047 A 
ATOM     18  C   UNL     1      13.435   6.826   6.952  0.00  0.00    +0.015 A 
ATOM     29  H   UNL     1       8.439  10.949   5.907  0.00  0.00    +0.150 HD
ENDROOT
BRANCH  17  19
ATOM     19  C   UNL     1      15.021   7.875   5.423  0.00  0.00    -0.013 A 
ATOM     21  C   UNL     1      15.664   7.281   4.335  0.00  0.00    +0.010 A 
ATOM     22  C   UNL     1      15.673   8.863   6.161  0.00  0.00    +0.010 A 
ATOM     25  C   UNL     1      16.956   7.674   3.988  0.00  0.00    +0.015 A 
ATOM     26  C   UNL     1      16.967   9.256   5.813  0.00  0.00    +0.015 A 
ATOM     27  C   UNL     1      17.607   8.661   4.727  0.00  0.00    +0.008 A 
BRANCH  27   1
ATOM      1  S   UNL     1      19.259   9.162   4.284  0.00  0.00    -0.129 S 
ATOM     28  C   UNL     1      20.066   7.562   3.995  0.00  0.00    +0.090 C 
ENDBRANCH  27   1
ENDBRANCH  17  19
BRANCH   6  20
ATOM     20  C   UNL     1       9.286  12.395   7.163  0.00  0.00    +0.068 C 
ATOM     23  C   UNL     1       8.137  13.331   6.816  0.00  0.00    +0.027 C 
ATOM     24  C   UNL     1      10.589  12.856   6.522  0.00  0.00    +0.027 C 
ENDBRANCH   6  20
TORSDOF 3
ENDMDL
MODEL 9
REMARK VINA RESULT:      -6.0     13.082     16.400
REMARK  Name = 7143842
REMARK  6 active torsions:
REMARK  status: ('A' for Active; 'I' for Inactive)
REMARK    1  A    between atoms: S_1  and  C_27
REMARK    2  A    between atoms: S_1  and  C_28
REMARK    3  A    between atoms: N_6  and  C_20
REMARK    4  A    between atoms: C_17  and  C_19
REMARK    5  A    between atoms: C_20  and  C_23
REMARK    6  A    between atoms: C_20  and  C_24
REMARK                            x       y       z     vdW  Elec       q    Type
REMARK                         _______ _______ _______ _____ _____    ______ ____
ROOT
ATOM      2  O   UNL     1      11.907   9.978  17.206  0.00  0.00    -0.267 OA
ATOM      3  O   UNL     1      13.132  11.711  22.850  0.00  0.00    -0.253 OA
ATOM      4  N   UNL     1      12.011   9.767  22.254  0.00  0.00    -0.285 N 
ATOM      5  N   UNL     1      12.622   8.983  19.190  0.00  0.00    -0.311 N 
ATOM      6  N   UNL     1      10.917  11.863  22.275  0.00  0.00    -0.297 N 
ATOM      7  C   UNL     1      11.001   7.932  20.867  0.00  0.00    +0.027 C 
ATOM      8  C   UNL     1      13.410   7.917  21.330  0.00  0.00    +0.054 C 
ATOM      9  C   UNL     1      12.171   7.031  21.233  0.00  0.00    +0.018 C 
ATOM     10  C   UNL     1      10.784   9.023  21.934  0.00  0.00    +0.114 C 
ATOM     11  C   UNL     1      11.255   8.532  19.478  0.00  0.00    +0.130 C 
ATOM     12  C   UNL     1      13.211   8.944  22.457  0.00  0.00    +0.119 C 
ATOM     13  C   UNL     1      13.687   8.632  20.022  0.00  0.00    +0.027 A 
ATOM     14  C   UNL     1      14.944   8.951  19.677  0.00  0.00    +0.022 A 
ATOM     15  C   UNL     1      12.816   9.684  17.984  0.00  0.00    +0.259 A 
ATOM     16  C   UNL     1      12.093  11.152  22.483  0.00  0.00    +0.302 C 
ATOM     17  C   UNL     1      14.233  10.060  17.642  0.00  0.00    +0.047 A 
ATOM     18  C   UNL     1      15.217   9.681  18.471  0.00  0.00    +0.015 A 
ATOM     29  H   UNL     1      10.039  11.389  22.120  0.00  0.00    +0.150 HD
ENDROOT
BRANCH  17  19
ATOM     19  C   UNL     1      14.546  10.835  16.429  0.00  0.00    -0.013 A 
ATOM     21  C   UNL     1      15.025  10.186  15.290  0.00  0.00    +0.010 A 
ATOM     22  C   UNL     1      14.363  12.218  16.417  0.00  0.00    +0.010 A 
ATOM     25  C   UNL     1      15.322  10.921  14.141  0.00  0.00    +0.015 A 
ATOM     26  C   UNL     1      14.660  12.953  15.268  0.00  0.00    +0.015 A 
ATOM     27  C   UNL     1      15.140  12.303  14.130  0.00  0.00    +0.008 A 
BRANCH  27   1
ATOM      1  S   UNL     1      15.520  13.241  12.664  0.00  0.00    -0.129 S 
ATOM     28  C   UNL     1      16.585  12.087  11.753  0.00  0.00    +0.090 C 
ENDBRANCH  27   1
ENDBRANCH  17  19
BRANCH   6  20
ATOM     20  C   UNL     1      10.836  13.293  22.474  0.00  0.00    +0.068 C 
ATOM     23  C   UNL     1       9.963  13.611  23.680  0.00  0.00    +0.027 C 
ATOM     24  C   UNL     1      10.315  13.979  21.218  0.00  0.00    +0.027 C 
ENDBRANCH   6  20
TORSDOF 3
ENDMDL
MODEL 10
REMARK VINA RESULT:      -5.9     26.260     28.569
REMARK  Name = 7143842
REMARK  6 active torsions:
REMARK  status: ('A' for Active; 'I' for Inactive)
REMARK    1  A    between atoms: S_1  and  C_27
REMARK    2  A    between atoms: S_1  and  C_28
REMARK    3  A    between atoms: N_6  and  C_20
REMARK    4  A    between atoms: C_17  and  C_19
REMARK    5  A    between atoms: C_20  and  C_23
REMARK    6  A    between atoms: C_20  and  C_24
REMARK                            x       y       z     vdW  Elec       q    Type
REMARK                         _______ _______ _______ _____ _____    ______ ____
ROOT
ATOM      2  O   UNL     1      -7.493  -8.797  17.097  0.00  0.00    -0.267 OA
ATOM      3  O   UNL     1      -5.106 -13.007  13.499  0.00  0.00    -0.253 OA
ATOM      4  N   UNL     1      -4.288 -12.401  15.586  0.00  0.00    -0.285 N 
ATOM      5  N   UNL     1      -6.561 -10.922  17.325  0.00  0.00    -0.311 N 
ATOM      6  N   UNL     1      -3.860 -11.089  13.665  0.00  0.00    -0.297 N 
ATOM      7  C   UNL     1      -4.080 -11.293  17.831  0.00  0.00    +0.027 C 
ATOM      8  C   UNL     1      -5.569 -13.225  17.564  0.00  0.00    +0.054 C 
ATOM      9  C   UNL     1      -4.543 -12.582  18.493  0.00  0.00    +0.018 C 
ATOM     10  C   UNL     1      -3.441 -11.572  16.457  0.00  0.00    +0.114 C 
ATOM     11  C   UNL     1      -5.275 -10.337  17.723  0.00  0.00    +0.130 C 
ATOM     12  C   UNL     1      -4.892 -13.575  16.228  0.00  0.00    +0.119 C 
ATOM     13  C   UNL     1      -6.751 -12.306  17.318  0.00  0.00    +0.027 A 
ATOM     14  C   UNL     1      -7.966 -12.817  17.070  0.00  0.00    +0.022 A 
ATOM     15  C   UNL     1      -7.613 -10.023  17.063  0.00  0.00    +0.259 A 
ATOM     16  C   UNL     1      -4.464 -12.220  14.202  0.00  0.00    +0.302 C 
ATOM     17  C   UNL     1      -8.956 -10.627  16.752  0.00  0.00    +0.047 A 
ATOM     18  C   UNL     1      -9.082 -11.962  16.778  0.00  0.00    +0.015 A 
ATOM     29  H   UNL     1      -3.217 -10.531  14.209  0.00  0.00    +0.150 HD
ENDROOT
BRANCH  17  19
ATOM     19  C   UNL     1     -10.114  -9.782  16.417  0.00  0.00    -0.013 A 
ATOM     21  C   UNL     1     -11.040  -9.441  17.405  0.00  0.00    +0.010 A 
ATOM     22  C   UNL     1     -10.288  -9.319  15.112  0.00  0.00    +0.010 A 
ATOM     25  C   UNL     1     -12.137  -8.640  17.087  0.00  0.00    +0.015 A 
ATOM     26  C   UNL     1     -11.386  -8.518  14.794  0.00  0.00    +0.015 A 
ATOM     27  C   UNL     1     -12.310  -8.179  15.782  0.00  0.00    +0.008 A 
BRANCH  27   1
ATOM      1  S   UNL     1     -13.712  -7.158  15.376  0.00  0.00    -0.129 S 
ATOM     28  C   UNL     1     -12.927  -5.797  14.467  0.00  0.00    +0.090 C 
ENDBRANCH  27   1
ENDBRANCH  17  19
BRANCH   6  20
ATOM     20  C   UNL     1      -3.943 -10.766  12.258  0.00  0.00    +0.068 C 
ATOM     23  C   UNL     1      -2.590 -10.296  11.742  0.00  0.00    +0.027 C 
ATOM     24  C   UNL     1      -5.022  -9.719  12.013  0.00  0.00    +0.027 C 
ENDBRANCH   6  20
TORSDOF 3
ENDMDL
