MODEL 1
REMARK VINA RESULT:      -6.7      0.000      0.000
REMARK  Name = 45783780
REMARK  6 active torsions:
REMARK  status: ('A' for Active; 'I' for Inactive)
REMARK    1  A    between atoms: N_2  and  C_12
REMARK    2  A    between atoms: N_7  and  C_24
REMARK    3  A    between atoms: N_7  and  C_25
REMARK    4  A    between atoms: C_8  and  C_13
REMARK    5  A    between atoms: C_12  and  C_14
REMARK    6  A    between atoms: C_15  and  C_18
REMARK                            x       y       z     vdW  Elec       q    Type
REMARK                         _______ _______ _______ _____ _____    ______ ____
ROOT
ATOM      1  O   UNL     1      15.150   9.708  21.848  0.00  0.00    -0.336 OA
ATOM      3  N   UNL     1      15.042   7.720  20.822  0.00  0.00    -0.190 NA
ATOM      4  N   UNL     1      16.469   9.240  21.764  0.00  0.00    -0.056 NA
ATOM     13  C   UNL     1      14.375   8.752  21.272  0.00  0.00    +0.245 A 
ATOM     15  C   UNL     1      16.322   8.063  21.147  0.00  0.00    +0.204 A 
ENDROOT
BRANCH  15  18
ATOM      6  N   UNL     1      19.686   6.492  21.343  0.00  0.00    -0.240 NA
ATOM     18  C   UNL     1      17.432   7.209  20.842  0.00  0.00    +0.041 A 
ATOM     21  C   UNL     1      17.366   6.294  19.797  0.00  0.00    +0.016 A 
ATOM     22  C   UNL     1      18.604   7.268  21.578  0.00  0.00    +0.124 A 
ATOM     23  C   UNL     1      18.458   5.478  19.524  0.00  0.00    +0.044 A 
ATOM     24  C   UNL     1      19.585   5.615  20.319  0.00  0.00    +0.118 A 
BRANCH  24   7
ATOM      7  N   UNL     1      20.689   4.776  20.031  0.00  0.00    -0.332 N 
ATOM     25  C   UNL     1      22.026   5.104  20.407  0.00  0.00    +0.127 C 
ATOM     26  H   UNL     1      20.485   3.824  19.746  0.00  0.00    +0.147 HD
ENDBRANCH  24   7
ENDBRANCH  15  18
BRANCH  13   8
ATOM      2  N   UNL     1      12.315   8.880  19.881  0.00  0.00    -0.287 NA
ATOM      8  C   UNL     1      12.885   9.024  21.235  0.00  0.00    +0.146 C 
ATOM      9  C   UNL     1      12.081   8.041  22.106  0.00  0.00    +0.030 C 
ATOM     10  C   UNL     1      11.044   7.437  21.168  0.00  0.00    +0.017 C 
ATOM     11  C   UNL     1      10.924   8.464  20.060  0.00  0.00    +0.085 C 
BRANCH   2  12
ATOM     12  C   UNL     1      12.426  10.091  19.079  0.00  0.00    +0.121 C 
BRANCH  12  14
ATOM      5  N   UNL     1      13.739   8.317  16.004  0.00  0.00    -0.263 NA
ATOM     14  C   UNL     1      13.157   9.843  17.786  0.00  0.00    -0.015 A 
ATOM     16  C   UNL     1      13.903  10.847  17.180  0.00  0.00    +0.008 A 
ATOM     17  C   UNL     1      13.107   8.606  17.164  0.00  0.00    +0.115 A 
ATOM     19  C   UNL     1      14.568  10.588  15.986  0.00  0.00    +0.020 A 
ATOM     20  C   UNL     1      14.454   9.318  15.443  0.00  0.00    +0.111 A 
ENDBRANCH  12  14
ENDBRANCH   2  12
ENDBRANCH  13   8
TORSDOF 5
ENDMDL
MODEL 2
REMARK VINA RESULT:      -6.5     26.198     29.268
REMARK  Name = 45783780
REMARK  6 active torsions:
REMARK  status: ('A' for Active; 'I' for Inactive)
REMARK    1  A    between atoms: N_2  and  C_12
REMARK    2  A    between atoms: N_7  and  C_24
REMARK    3  A    between atoms: N_7  and  C_25
REMARK    4  A    between atoms: C_8  and  C_13
REMARK    5  A    between atoms: C_12  and  C_14
REMARK    6  A    between atoms: C_15  and  C_18
REMARK                            x       y       z     vdW  Elec       q    Type
REMARK                         _______ _______ _______ _____ _____    ______ ____
ROOT
ATOM      1  O   UNL     1      -5.527  -9.542  15.672  0.00  0.00    -0.336 OA
ATOM      3  N   UNL     1      -5.900 -11.208  17.123  0.00  0.00    -0.190 NA
ATOM      4  N   UNL     1      -6.739  -9.242  16.309  0.00  0.00    -0.056 NA
ATOM     13  C   UNL     1      -5.102 -10.715  16.209  0.00  0.00    +0.245 A 
ATOM     15  C   UNL     1      -6.890 -10.270  17.149  0.00  0.00    +0.204 A 
ENDROOT
BRANCH  15  18
ATOM      6  N   UNL     1      -8.971 -11.301  20.053  0.00  0.00    -0.240 NA
ATOM     18  C   UNL     1      -8.018 -10.390  18.026  0.00  0.00    +0.041 A 
ATOM     21  C   UNL     1      -9.219  -9.749  17.742  0.00  0.00    +0.016 A 
ATOM     22  C   UNL     1      -7.947 -11.147  19.184  0.00  0.00    +0.124 A 
ATOM     23  C   UNL     1     -10.296  -9.882  18.611  0.00  0.00    +0.044 A 
ATOM     24  C   UNL     1     -10.122 -10.664  19.743  0.00  0.00    +0.118 A 
BRANCH  24   7
ATOM      7  N   UNL     1     -11.227 -10.789  20.620  0.00  0.00    -0.332 N 
ATOM     25  C   UNL     1     -12.410 -10.002  20.488  0.00  0.00    +0.127 C 
ATOM     26  H   UNL     1     -11.255 -11.610  21.215  0.00  0.00    +0.147 HD
ENDBRANCH  24   7
ENDBRANCH  15  18
BRANCH  13   8
ATOM      2  N   UNL     1      -3.388 -10.638  14.406  0.00  0.00    -0.287 NA
ATOM      8  C   UNL     1      -3.792 -11.263  15.682  0.00  0.00    +0.146 C 
ATOM      9  C   UNL     1      -2.611 -11.003  16.636  0.00  0.00    +0.030 C 
ATOM     10  C   UNL     1      -1.569 -10.282  15.793  0.00  0.00    +0.017 C 
ATOM     11  C   UNL     1      -1.926 -10.675  14.373  0.00  0.00    +0.085 C 
BRANCH   2  12
ATOM     12  C   UNL     1      -3.979 -11.280  13.239  0.00  0.00    +0.121 C 
BRANCH  12  14
ATOM      5  N   UNL     1      -5.647  -8.667  11.067  0.00  0.00    -0.263 NA
ATOM     14  C   UNL     1      -4.210 -10.301  12.118  0.00  0.00    -0.015 A 
ATOM     16  C   UNL     1      -3.257 -10.114  11.123  0.00  0.00    +0.008 A 
ATOM     17  C   UNL     1      -5.378  -9.561  12.045  0.00  0.00    +0.115 A 
ATOM     19  C   UNL     1      -3.498  -9.203  10.100  0.00  0.00    +0.020 A 
ATOM     20  C   UNL     1      -4.698  -8.511  10.117  0.00  0.00    +0.111 A 
ENDBRANCH  12  14
ENDBRANCH   2  12
ENDBRANCH  13   8
TORSDOF 5
ENDMDL
MODEL 3
REMARK VINA RESULT:      -6.4     25.911     28.995
REMARK  Name = 45783780
REMARK  6 active torsions:
REMARK  status: ('A' for Active; 'I' for Inactive)
REMARK    1  A    between atoms: N_2  and  C_12
REMARK    2  A    between atoms: N_7  and  C_24
REMARK    3  A    between atoms: N_7  and  C_25
REMARK    4  A    between atoms: C_8  and  C_13
REMARK    5  A    between atoms: C_12  and  C_14
REMARK    6  A    between atoms: C_15  and  C_18
REMARK                            x       y       z     vdW  Elec       q    Type
REMARK                         _______ _______ _______ _____ _____    ______ ____
ROOT
ATOM      1  O   UNL     1      -5.196 -11.754  16.855  0.00  0.00    -0.336 OA
ATOM      3  N   UNL     1      -5.647 -10.101  15.412  0.00  0.00    -0.190 NA
ATOM      4  N   UNL     1      -6.490 -11.311  17.161  0.00  0.00    -0.056 NA
ATOM     13  C   UNL     1      -4.773 -10.988  15.816  0.00  0.00    +0.245 A 
ATOM     15  C   UNL     1      -6.683 -10.337  16.268  0.00  0.00    +0.204 A 
ENDROOT
BRANCH  15  18
ATOM      6  N   UNL     1      -9.800  -8.829  14.910  0.00  0.00    -0.240 NA
ATOM     18  C   UNL     1      -7.900  -9.580  16.203  0.00  0.00    +0.041 A 
ATOM     21  C   UNL     1      -8.368  -8.880  17.311  0.00  0.00    +0.016 A 
ATOM     22  C   UNL     1      -8.646  -9.523  15.037  0.00  0.00    +0.124 A 
ATOM     23  C   UNL     1      -9.551  -8.156  17.219  0.00  0.00    +0.044 A 
ATOM     24  C   UNL     1     -10.224  -8.162  16.006  0.00  0.00    +0.118 A 
BRANCH  24   7
ATOM      7  N   UNL     1     -11.428  -7.421  15.929  0.00  0.00    -0.332 N 
ATOM     25  C   UNL     1     -11.468  -6.000  16.055  0.00  0.00    +0.127 C 
ATOM     26  H   UNL     1     -12.242  -7.898  15.557  0.00  0.00    +0.147 HD
ENDBRANCH  24   7
ENDBRANCH  15  18
BRANCH  13   8
ATOM      2  N   UNL     1      -3.081 -10.535  14.047  0.00  0.00    -0.287 NA
ATOM      8  C   UNL     1      -3.382 -11.274  15.289  0.00  0.00    +0.146 C 
ATOM      9  C   UNL     1      -2.275 -10.852  16.274  0.00  0.00    +0.030 C 
ATOM     10  C   UNL     1      -1.368  -9.924  15.478  0.00  0.00    +0.017 C 
ATOM     11  C   UNL     1      -1.636 -10.313  14.038  0.00  0.00    +0.085 C 
BRANCH   2  12
ATOM     12  C   UNL     1      -3.538 -11.221  12.845  0.00  0.00    +0.121 C 
BRANCH  12  14
ATOM      5  N   UNL     1      -5.648  -8.711  10.955  0.00  0.00    -0.263 NA
ATOM     14  C   UNL     1      -3.980 -10.252  11.781  0.00  0.00    -0.015 A 
ATOM     16  C   UNL     1      -3.181  -9.993  10.672  0.00  0.00    +0.008 A 
ATOM     17  C   UNL     1      -5.193  -9.591  11.874  0.00  0.00    +0.115 A 
ATOM     19  C   UNL     1      -3.615  -9.094   9.704  0.00  0.00    +0.020 A 
ATOM     20  C   UNL     1      -4.845  -8.484   9.891  0.00  0.00    +0.111 A 
ENDBRANCH  12  14
ENDBRANCH   2  12
ENDBRANCH  13   8
TORSDOF 5
ENDMDL
MODEL 4
REMARK VINA RESULT:      -6.1     28.384     31.438
REMARK  Name = 45783780
REMARK  6 active torsions:
REMARK  status: ('A' for Active; 'I' for Inactive)
REMARK    1  A    between atoms: N_2  and  C_12
REMARK    2  A    between atoms: N_7  and  C_24
REMARK    3  A    between atoms: N_7  and  C_25
REMARK    4  A    between atoms: C_8  and  C_13
REMARK    5  A    between atoms: C_12  and  C_14
REMARK    6  A    between atoms: C_15  and  C_18
REMARK                            x       y       z     vdW  Elec       q    Type
REMARK                         _______ _______ _______ _____ _____    ______ ____
ROOT
ATOM      1  O   UNL     1      -8.931 -11.066  20.272  0.00  0.00    -0.336 OA
ATOM      3  N   UNL     1      -8.808 -10.915  18.040  0.00  0.00    -0.190 NA
ATOM      4  N   UNL     1      -7.569 -10.943  19.963  0.00  0.00    -0.056 NA
ATOM     13  C   UNL     1      -9.588 -11.042  19.083  0.00  0.00    +0.245 A 
ATOM     15  C   UNL     1      -7.579 -10.859  18.629  0.00  0.00    +0.204 A 
ENDROOT
BRANCH  15  18
ATOM      6  N   UNL     1      -5.286  -9.874  15.872  0.00  0.00    -0.240 NA
ATOM     18  C   UNL     1      -6.379 -10.719  17.857  0.00  0.00    +0.041 A 
ATOM     21  C   UNL     1      -5.175 -11.259  18.298  0.00  0.00    +0.016 A 
ATOM     22  C   UNL     1      -6.381 -10.042  16.648  0.00  0.00    +0.124 A 
ATOM     23  C   UNL     1      -4.027 -11.106  17.528  0.00  0.00    +0.044 A 
ATOM     24  C   UNL     1      -4.135 -10.412  16.333  0.00  0.00    +0.118 A 
BRANCH  24   7
ATOM      7  N   UNL     1      -2.957 -10.264  15.561  0.00  0.00    -0.332 N 
ATOM     25  C   UNL     1      -1.676 -10.693  16.018  0.00  0.00    +0.127 C 
ATOM     26  H   UNL     1      -3.073 -10.047  14.577  0.00  0.00    +0.147 HD
ENDBRANCH  24   7
ENDBRANCH  15  18
BRANCH  13   8
ATOM      2  N   UNL     1     -11.563 -11.869  20.354  0.00  0.00    -0.287 NA
ATOM      8  C   UNL     1     -11.097 -11.160  19.145  0.00  0.00    +0.146 C 
ATOM      9  C   UNL     1     -11.799  -9.790  19.199  0.00  0.00    +0.030 C 
ATOM     10  C   UNL     1     -12.682  -9.845  20.438  0.00  0.00    +0.017 C 
ATOM     11  C   UNL     1     -12.886 -11.330  20.665  0.00  0.00    +0.085 C 
BRANCH   2  12
ATOM     12  C   UNL     1     -11.583 -13.317  20.199  0.00  0.00    +0.121 C 
BRANCH  12  14
ATOM      5  N   UNL     1     -10.820 -14.821  23.587  0.00  0.00    -0.263 NA
ATOM     14  C   UNL     1     -10.841 -14.011  21.310  0.00  0.00    -0.015 A 
ATOM     16  C   UNL     1      -9.542 -14.473  21.126  0.00  0.00    +0.008 A 
ATOM     17  C   UNL     1     -11.430 -14.207  22.548  0.00  0.00    +0.115 A 
ATOM     19  C   UNL     1      -8.882 -15.109  22.171  0.00  0.00    +0.020 A 
ATOM     20  C   UNL     1      -9.559 -15.257  23.371  0.00  0.00    +0.111 A 
ENDBRANCH  12  14
ENDBRANCH   2  12
ENDBRANCH  13   8
TORSDOF 5
ENDMDL
MODEL 5
REMARK VINA RESULT:      -6.1      2.349      6.538
REMARK  Name = 45783780
REMARK  6 active torsions:
REMARK  status: ('A' for Active; 'I' for Inactive)
REMARK    1  A    between atoms: N_2  and  C_12
REMARK    2  A    between atoms: N_7  and  C_24
REMARK    3  A    between atoms: N_7  and  C_25
REMARK    4  A    between atoms: C_8  and  C_13
REMARK    5  A    between atoms: C_12  and  C_14
REMARK    6  A    between atoms: C_15  and  C_18
REMARK                            x       y       z     vdW  Elec       q    Type
REMARK                         _______ _______ _______ _____ _____    ______ ____
ROOT
ATOM      1  O   UNL     1      12.759  10.509  19.362  0.00  0.00    -0.336 OA
ATOM      3  N   UNL     1      13.448   9.341  17.580  0.00  0.00    -0.190 NA
ATOM      4  N   UNL     1      13.375  11.432  18.506  0.00  0.00    -0.056 NA
ATOM     13  C   UNL     1      12.846   9.304  18.741  0.00  0.00    +0.245 A 
ATOM     15  C   UNL     1      13.756  10.667  17.478  0.00  0.00    +0.204 A 
ENDROOT
BRANCH  15  18
ATOM      6  N   UNL     1      14.506  11.553  13.946  0.00  0.00    -0.240 NA
ATOM     18  C   UNL     1      14.443  11.196  16.336  0.00  0.00    +0.041 A 
ATOM     21  C   UNL     1      15.666  11.845  16.473  0.00  0.00    +0.016 A 
ATOM     22  C   UNL     1      13.911  11.077  15.062  0.00  0.00    +0.124 A 
ATOM     23  C   UNL     1      16.309  12.348  15.348  0.00  0.00    +0.044 A 
ATOM     24  C   UNL     1      15.693  12.177  14.117  0.00  0.00    +0.118 A 
BRANCH  24   7
ATOM      7  N   UNL     1      16.360  12.696  12.980  0.00  0.00    -0.332 N 
ATOM     25  C   UNL     1      16.257  12.101  11.688  0.00  0.00    +0.127 C 
ATOM     26  H   UNL     1      16.737  13.635  13.053  0.00  0.00    +0.147 HD
ENDBRANCH  24   7
ENDBRANCH  15  18
BRANCH  13   8
ATOM      2  N   UNL     1      13.121   7.609  20.544  0.00  0.00    -0.287 NA
ATOM      8  C   UNL     1      12.243   8.123  19.473  0.00  0.00    +0.146 C 
ATOM      9  C   UNL     1      10.923   8.475  20.183  0.00  0.00    +0.030 C 
ATOM     10  C   UNL     1      11.133   8.069  21.636  0.00  0.00    +0.017 C 
ATOM     11  C   UNL     1      12.240   7.036  21.561  0.00  0.00    +0.085 C 
BRANCH   2  12
ATOM     12  C   UNL     1      14.107   6.648  20.067  0.00  0.00    +0.121 C 
BRANCH  12  14
ATOM      5  N   UNL     1      16.978   8.560  21.626  0.00  0.00    -0.263 NA
ATOM     14  C   UNL     1      15.509   7.055  20.434  0.00  0.00    -0.015 A 
ATOM     16  C   UNL     1      16.608   6.351  19.954  0.00  0.00    +0.008 A 
ATOM     17  C   UNL     1      15.745   8.142  21.259  0.00  0.00    +0.115 A 
ATOM     19  C   UNL     1      17.892   6.750  20.310  0.00  0.00    +0.020 A 
ATOM     20  C   UNL     1      18.022   7.851  21.141  0.00  0.00    +0.111 A 
ENDBRANCH  12  14
ENDBRANCH   2  12
ENDBRANCH  13   8
TORSDOF 5
ENDMDL
MODEL 6
REMARK VINA RESULT:      -6.0     13.576     17.449
REMARK  Name = 45783780
REMARK  6 active torsions:
REMARK  status: ('A' for Active; 'I' for Inactive)
REMARK    1  A    between atoms: N_2  and  C_12
REMARK    2  A    between atoms: N_7  and  C_24
REMARK    3  A    between atoms: N_7  and  C_25
REMARK    4  A    between atoms: C_8  and  C_13
REMARK    5  A    between atoms: C_12  and  C_14
REMARK    6  A    between atoms: C_15  and  C_18
REMARK                            x       y       z     vdW  Elec       q    Type
REMARK                         _______ _______ _______ _____ _____    ______ ____
ROOT
ATOM      1  O   UNL     1      11.193   6.973   4.085  0.00  0.00    -0.336 OA
ATOM      3  N   UNL     1      10.856   4.782   3.764  0.00  0.00    -0.190 NA
ATOM      4  N   UNL     1      11.546   6.714   2.754  0.00  0.00    -0.056 NA
ATOM     13  C   UNL     1      10.799   5.782   4.607  0.00  0.00    +0.245 A 
ATOM     15  C   UNL     1      11.320   5.402   2.641  0.00  0.00    +0.204 A 
ENDROOT
BRANCH  15  18
ATOM      6  N   UNL     1      10.732   3.970  -0.740  0.00  0.00    -0.240 NA
ATOM     18  C   UNL     1      11.548   4.682   1.423  0.00  0.00    +0.041 A 
ATOM     21  C   UNL     1      12.747   4.013   1.198  0.00  0.00    +0.016 A 
ATOM     22  C   UNL     1      10.582   4.630   0.431  0.00  0.00    +0.124 A 
ATOM     23  C   UNL     1      12.940   3.324   0.006  0.00  0.00    +0.044 A 
ATOM     24  C   UNL     1      11.910   3.332  -0.922  0.00  0.00    +0.118 A 
BRANCH  24   7
ATOM      7  N   UNL     1      12.122   2.627  -2.132  0.00  0.00    -0.332 N 
ATOM     25  C   UNL     1      11.062   2.301  -3.030  0.00  0.00    +0.127 C 
ATOM     26  H   UNL     1      13.078   2.549  -2.462  0.00  0.00    +0.147 HD
ENDBRANCH  24   7
ENDBRANCH  15  18
BRANCH  13   8
ATOM      2  N   UNL     1      10.973   6.893   6.827  0.00  0.00    -0.287 NA
ATOM      8  C   UNL     1      10.360   5.792   6.057  0.00  0.00    +0.146 C 
ATOM      9  C   UNL     1       8.842   6.000   6.216  0.00  0.00    +0.030 C 
ATOM     10  C   UNL     1       8.700   7.201   7.141  0.00  0.00    +0.017 C 
ATOM     11  C   UNL     1      10.021   7.237   7.884  0.00  0.00    +0.085 C 
BRANCH   2  12
ATOM     12  C   UNL     1      12.287   6.558   7.361  0.00  0.00    +0.121 C 
BRANCH  12  14
ATOM      5  N   UNL     1      13.953   9.866   6.579  0.00  0.00    -0.263 NA
ATOM     14  C   UNL     1      13.332   7.559   6.944  0.00  0.00    -0.015 A 
ATOM     16  C   UNL     1      14.600   7.147   6.548  0.00  0.00    +0.008 A 
ATOM     17  C   UNL     1      13.061   8.917   6.942  0.00  0.00    +0.115 A 
ATOM     19  C   UNL     1      15.545   8.094   6.168  0.00  0.00    +0.020 A 
ATOM     20  C   UNL     1      15.175   9.429   6.201  0.00  0.00    +0.111 A 
ENDBRANCH  12  14
ENDBRANCH   2  12
ENDBRANCH  13   8
TORSDOF 5
ENDMDL
MODEL 7
REMARK VINA RESULT:      -5.9     26.298     28.370
REMARK  Name = 45783780
REMARK  6 active torsions:
REMARK  status: ('A' for Active; 'I' for Inactive)
REMARK    1  A    between atoms: N_2  and  C_12
REMARK    2  A    between atoms: N_7  and  C_24
REMARK    3  A    between atoms: N_7  and  C_25
REMARK    4  A    between atoms: C_8  and  C_13
REMARK    5  A    between atoms: C_12  and  C_14
REMARK    6  A    between atoms: C_15  and  C_18
REMARK                            x       y       z     vdW  Elec       q    Type
REMARK                         _______ _______ _______ _____ _____    ______ ____
ROOT
ATOM      1  O   UNL     1     -12.052  11.865  19.308  0.00  0.00    -0.336 OA
ATOM      3  N   UNL     1     -11.265  10.282  20.684  0.00  0.00    -0.190 NA
ATOM      4  N   UNL     1     -12.748  12.015  20.514  0.00  0.00    -0.056 NA
ATOM     13  C   UNL     1     -11.200  10.822  19.493  0.00  0.00    +0.245 A 
ATOM     15  C   UNL     1     -12.229  11.046  21.274  0.00  0.00    +0.204 A 
ENDROOT
BRANCH  15  18
ATOM      6  N   UNL     1     -14.201   9.769  24.156  0.00  0.00    -0.240 NA
ATOM     18  C   UNL     1     -12.650  10.816  22.625  0.00  0.00    +0.041 A 
ATOM     21  C   UNL     1     -11.963  11.380  23.696  0.00  0.00    +0.016 A 
ATOM     22  C   UNL     1     -13.752  10.026  22.907  0.00  0.00    +0.124 A 
ATOM     23  C   UNL     1     -12.394  11.138  24.996  0.00  0.00    +0.044 A 
ATOM     24  C   UNL     1     -13.509  10.334  25.171  0.00  0.00    +0.118 A 
BRANCH  24   7
ATOM      7  N   UNL     1     -13.935  10.096  26.500  0.00  0.00    -0.332 N 
ATOM     25  C   UNL     1     -13.246  10.618  27.635  0.00  0.00    +0.127 C 
ATOM     26  H   UNL     1     -14.873   9.730  26.628  0.00  0.00    +0.147 HD
ENDBRANCH  24   7
ENDBRANCH  15  18
BRANCH  13   8
ATOM      2  N   UNL     1     -10.990   9.540  17.371  0.00  0.00    -0.287 NA
ATOM      8  C   UNL     1     -10.320  10.453  18.317  0.00  0.00    +0.146 C 
ATOM      9  C   UNL     1      -9.920  11.674  17.468  0.00  0.00    +0.030 C 
ATOM     10  C   UNL     1     -10.352  11.329  16.049  0.00  0.00    +0.017 C 
ATOM     11  C   UNL     1     -10.416   9.815  16.054  0.00  0.00    +0.085 C 
BRANCH   2  12
ATOM     12  C   UNL     1     -10.866   8.136  17.741  0.00  0.00    +0.121 C 
BRANCH  12  14
ATOM      5  N   UNL     1     -14.203   7.654  19.461  0.00  0.00    -0.263 NA
ATOM     14  C   UNL     1     -11.888   7.736  18.772  0.00  0.00    -0.015 A 
ATOM     16  C   UNL     1     -11.507   7.102  19.950  0.00  0.00    +0.008 A 
ATOM     17  C   UNL     1     -13.236   7.987  18.577  0.00  0.00    +0.115 A 
ATOM     19  C   UNL     1     -12.473   6.745  20.884  0.00  0.00    +0.020 A 
ATOM     20  C   UNL     1     -13.796   7.040  20.594  0.00  0.00    +0.111 A 
ENDBRANCH  12  14
ENDBRANCH   2  12
ENDBRANCH  13   8
TORSDOF 5
ENDMDL
MODEL 8
REMARK VINA RESULT:      -5.9     31.921     33.485
REMARK  Name = 45783780
REMARK  6 active torsions:
REMARK  status: ('A' for Active; 'I' for Inactive)
REMARK    1  A    between atoms: N_2  and  C_12
REMARK    2  A    between atoms: N_7  and  C_24
REMARK    3  A    between atoms: N_7  and  C_25
REMARK    4  A    between atoms: C_8  and  C_13
REMARK    5  A    between atoms: C_12  and  C_14
REMARK    6  A    between atoms: C_15  and  C_18
REMARK                            x       y       z     vdW  Elec       q    Type
REMARK                         _______ _______ _______ _____ _____    ______ ____
ROOT
ATOM      1  O   UNL     1     -17.420   3.321  30.754  0.00  0.00    -0.336 OA
ATOM      3  N   UNL     1     -15.969   4.299  29.357  0.00  0.00    -0.190 NA
ATOM      4  N   UNL     1     -17.687   2.794  29.483  0.00  0.00    -0.056 NA
ATOM     13  C   UNL     1     -16.397   4.199  30.590  0.00  0.00    +0.245 A 
ATOM     15  C   UNL     1     -16.791   3.420  28.714  0.00  0.00    +0.204 A 
ENDROOT
BRANCH  15  18
ATOM      6  N   UNL     1     -16.538   4.095  25.066  0.00  0.00    -0.240 NA
ATOM     18  C   UNL     1     -16.690   3.188  27.303  0.00  0.00    +0.041 A 
ATOM     21  C   UNL     1     -16.646   1.896  26.789  0.00  0.00    +0.016 A 
ATOM     22  C   UNL     1     -16.633   4.244  26.407  0.00  0.00    +0.124 A 
ATOM     23  C   UNL     1     -16.548   1.703  25.416  0.00  0.00    +0.044 A 
ATOM     24  C   UNL     1     -16.498   2.825  24.604  0.00  0.00    +0.118 A 
BRANCH  24   7
ATOM      7  N   UNL     1     -16.397   2.612  23.208  0.00  0.00    -0.332 N 
ATOM     25  C   UNL     1     -17.538   2.424  22.372  0.00  0.00    +0.127 C 
ATOM     26  H   UNL     1     -15.505   2.818  22.772  0.00  0.00    +0.147 HD
ENDBRANCH  24   7
ENDBRANCH  15  18
BRANCH  13   8
ATOM      2  N   UNL     1     -14.480   4.681  32.102  0.00  0.00    -0.287 NA
ATOM      8  C   UNL     1     -15.913   4.913  31.835  0.00  0.00    +0.146 C 
ATOM      9  C   UNL     1     -16.051   6.444  31.734  0.00  0.00    +0.030 C 
ATOM     10  C   UNL     1     -14.658   6.987  32.018  0.00  0.00    +0.017 C 
ATOM     11  C   UNL     1     -13.992   5.872  32.799  0.00  0.00    +0.085 C 
BRANCH   2  12
ATOM     12  C   UNL     1     -14.226   3.461  32.858  0.00  0.00    +0.121 C 
BRANCH  12  14
ATOM      5  N   UNL     1     -13.535   1.177  29.920  0.00  0.00    -0.263 NA
ATOM     14  C   UNL     1     -14.234   2.243  31.973  0.00  0.00    -0.015 A 
ATOM     16  C   UNL     1     -14.914   1.089  32.350  0.00  0.00    +0.008 A 
ATOM     17  C   UNL     1     -13.567   2.236  30.760  0.00  0.00    +0.115 A 
ATOM     19  C   UNL     1     -14.904  -0.021  31.512  0.00  0.00    +0.020 A 
ATOM     20  C   UNL     1     -14.206   0.073  30.319  0.00  0.00    +0.111 A 
ENDBRANCH  12  14
ENDBRANCH   2  12
ENDBRANCH  13   8
TORSDOF 5
ENDMDL
MODEL 9
REMARK VINA RESULT:      -5.9     26.569     28.531
REMARK  Name = 45783780
REMARK  6 active torsions:
REMARK  status: ('A' for Active; 'I' for Inactive)
REMARK    1  A    between atoms: N_2  and  C_12
REMARK    2  A    between atoms: N_7  and  C_24
REMARK    3  A    between atoms: N_7  and  C_25
REMARK    4  A    between atoms: C_8  and  C_13
REMARK    5  A    between atoms: C_12  and  C_14
REMARK    6  A    between atoms: C_15  and  C_18
REMARK                            x       y       z     vdW  Elec       q    Type
REMARK                         _______ _______ _______ _____ _____    ______ ____
ROOT
ATOM      1  O   UNL     1     -13.141  10.320  18.896  0.00  0.00    -0.336 OA
ATOM      3  N   UNL     1     -11.829   8.610  19.509  0.00  0.00    -0.190 NA
ATOM      4  N   UNL     1     -13.964   9.428  19.596  0.00  0.00    -0.056 NA
ATOM     13  C   UNL     1     -11.902   9.762  18.891  0.00  0.00    +0.245 A 
ATOM     15  C   UNL     1     -13.118   8.446  19.924  0.00  0.00    +0.204 A 
ENDROOT
BRANCH  15  18
ATOM      6  N   UNL     1     -15.324   5.887  21.477  0.00  0.00    -0.240 NA
ATOM     18  C   UNL     1     -13.530   7.290  20.665  0.00  0.00    +0.041 A 
ATOM     21  C   UNL     1     -12.595   6.462  21.279  0.00  0.00    +0.016 A 
ATOM     22  C   UNL     1     -14.870   6.961  20.794  0.00  0.00    +0.124 A 
ATOM     23  C   UNL     1     -13.023   5.347  21.990  0.00  0.00    +0.044 A 
ATOM     24  C   UNL     1     -14.387   5.106  22.060  0.00  0.00    +0.118 A 
BRANCH  24   7
ATOM      7  N   UNL     1     -14.808   3.965  22.787  0.00  0.00    -0.332 N 
ATOM     25  C   UNL     1     -15.248   4.035  24.142  0.00  0.00    +0.127 C 
ATOM     26  H   UNL     1     -15.004   3.124  22.256  0.00  0.00    +0.147 HD
ENDBRANCH  24   7
ENDBRANCH  15  18
BRANCH  13   8
ATOM      2  N   UNL     1     -10.931  10.484  16.715  0.00  0.00    -0.287 NA
ATOM      8  C   UNL     1     -10.813  10.544  18.186  0.00  0.00    +0.146 C 
ATOM      9  C   UNL     1     -10.848  12.047  18.521  0.00  0.00    +0.030 C 
ATOM     10  C   UNL     1     -10.927  12.752  17.174  0.00  0.00    +0.017 C 
ATOM     11  C   UNL     1     -10.366  11.732  16.204  0.00  0.00    +0.085 C 
BRANCH   2  12
ATOM     12  C   UNL     1     -10.289   9.312  16.134  0.00  0.00    +0.121 C 
BRANCH  12  14
ATOM      5  N   UNL     1     -11.465   7.086  13.308  0.00  0.00    -0.263 NA
ATOM     14  C   UNL     1     -11.205   8.583  15.187  0.00  0.00    -0.015 A 
ATOM     16  C   UNL     1     -12.587   8.710  15.286  0.00  0.00    +0.008 A 
ATOM     17  C   UNL     1     -10.699   7.767  14.189  0.00  0.00    +0.115 A 
ATOM     19  C   UNL     1     -13.407   8.025  14.397  0.00  0.00    +0.020 A 
ATOM     20  C   UNL     1     -12.803   7.232  13.434  0.00  0.00    +0.111 A 
ENDBRANCH  12  14
ENDBRANCH   2  12
ENDBRANCH  13   8
TORSDOF 5
ENDMDL
MODEL 10
REMARK VINA RESULT:      -5.8     29.775     32.726
REMARK  Name = 45783780
REMARK  6 active torsions:
REMARK  status: ('A' for Active; 'I' for Inactive)
REMARK    1  A    between atoms: N_2  and  C_12
REMARK    2  A    between atoms: N_7  and  C_24
REMARK    3  A    between atoms: N_7  and  C_25
REMARK    4  A    between atoms: C_8  and  C_13
REMARK    5  A    between atoms: C_12  and  C_14
REMARK    6  A    between atoms: C_15  and  C_18
REMARK                            x       y       z     vdW  Elec       q    Type
REMARK                         _______ _______ _______ _____ _____    ______ ____
ROOT
ATOM      1  O   UNL     1     -16.284   6.234  30.706  0.00  0.00    -0.336 OA
ATOM      3  N   UNL     1     -15.645   4.656  32.162  0.00  0.00    -0.190 NA
ATOM      4  N   UNL     1     -16.047   5.078  29.950  0.00  0.00    -0.056 NA
ATOM     13  C   UNL     1     -16.023   5.898  31.997  0.00  0.00    +0.245 A 
ATOM     15  C   UNL     1     -15.674   4.193  30.878  0.00  0.00    +0.204 A 
ENDROOT
BRANCH  15  18
ATOM      6  N   UNL     1     -13.681   1.067  30.591  0.00  0.00    -0.240 NA
ATOM     18  C   UNL     1     -15.325   2.840  30.557  0.00  0.00    +0.041 A 
ATOM     21  C   UNL     1     -16.233   1.995  29.927  0.00  0.00    +0.016 A 
ATOM     22  C   UNL     1     -14.073   2.331  30.865  0.00  0.00    +0.124 A 
ATOM     23  C   UNL     1     -15.866   0.687  29.629  0.00  0.00    +0.044 A 
ATOM     24  C   UNL     1     -14.589   0.276  29.978  0.00  0.00    +0.118 A 
BRANCH  24   7
ATOM      7  N   UNL     1     -14.231  -1.059  29.669  0.00  0.00    -0.332 N 
ATOM     25  C   UNL     1     -12.963  -1.409  29.116  0.00  0.00    +0.127 C 
ATOM     26  H   UNL     1     -14.811  -1.796  30.057  0.00  0.00    +0.147 HD
ENDBRANCH  24   7
ENDBRANCH  15  18
BRANCH  13   8
ATOM      2  N   UNL     1     -15.103   7.971  33.023  0.00  0.00    -0.287 NA
ATOM      8  C   UNL     1     -16.207   6.991  33.029  0.00  0.00    +0.146 C 
ATOM      9  C   UNL     1     -17.477   7.829  32.787  0.00  0.00    +0.030 C 
ATOM     10  C   UNL     1     -16.993   9.271  32.718  0.00  0.00    +0.017 C 
ATOM     11  C   UNL     1     -15.675   9.241  33.466  0.00  0.00    +0.085 C 
BRANCH   2  12
ATOM     12  C   UNL     1     -13.969   7.564  33.842  0.00  0.00    +0.121 C 
BRANCH  12  14
ATOM      5  N   UNL     1     -10.910   9.773  34.150  0.00  0.00    -0.263 NA
ATOM     14  C   UNL     1     -12.715   8.314  33.476  0.00  0.00    -0.015 A 
ATOM     16  C   UNL     1     -12.201   8.262  32.184  0.00  0.00    +0.008 A 
ATOM     17  C   UNL     1     -12.039   9.077  34.413  0.00  0.00    +0.115 A 
ATOM     19  C   UNL     1     -11.041   8.965  31.876  0.00  0.00    +0.020 A 
ATOM     20  C   UNL     1     -10.439   9.698  32.885  0.00  0.00    +0.111 A 
ENDBRANCH  12  14
ENDBRANCH   2  12
ENDBRANCH  13   8
TORSDOF 5
ENDMDL
