MODEL 1
REMARK VINA RESULT:      -7.9      0.000      0.000
REMARK  Name = 45783312
REMARK  6 active torsions:
REMARK  status: ('A' for Active; 'I' for Inactive)
REMARK    1  A    between atoms: N_3  and  C_15
REMARK    2  A    between atoms: C_10  and  C_20
REMARK    3  A    between atoms: C_14  and  C_23
REMARK    4  A    between atoms: C_15  and  C_21
REMARK    5  A    between atoms: C_24  and  C_26
REMARK    6  A    between atoms: C_33  and  C_34
REMARK                            x       y       z     vdW  Elec       q    Type
REMARK                         _______ _______ _______ _____ _____    ______ ____
ROOT
ATOM      1  O   UNL     1      14.623   6.802  20.216  0.00  0.00    -0.336 OA
ATOM      5  N   UNL     1      15.597   8.256  21.612  0.00  0.00    -0.190 NA
ATOM      6  N   UNL     1      16.001   6.580  20.108  0.00  0.00    -0.056 NA
ATOM     20  C   UNL     1      14.472   7.803  21.121  0.00  0.00    +0.245 A 
ATOM     24  C   UNL     1      16.508   7.475  20.961  0.00  0.00    +0.202 A 
ENDROOT
BRANCH  24  26
ATOM      4  N   UNL     1      20.883   5.535  21.595  0.00  0.00    -0.315 N 
ATOM      7  N   UNL     1      20.666   7.893  21.624  0.00  0.00    -0.240 NA
ATOM     14  C   UNL     1      22.586   3.196  21.836  0.00  0.00    +0.078 C 
ATOM     16  C   UNL     1      21.351   3.206  20.938  0.00  0.00    +0.031 C 
ATOM     17  C   UNL     1      22.465   4.228  22.956  0.00  0.00    +0.031 C 
ATOM     18  C   UNL     1      20.954   4.607  20.464  0.00  0.00    +0.107 C 
ATOM     19  C   UNL     1      22.078   5.615  22.445  0.00  0.00    +0.107 C 
ATOM     22  C   UNL     1      20.082   6.679  21.500  0.00  0.00    +0.122 A 
ATOM     25  C   UNL     1      18.727   6.489  21.283  0.00  0.00    +0.055 A 
ATOM     26  C   UNL     1      17.919   7.616  21.186  0.00  0.00    +0.027 A 
ATOM     29  C   UNL     1      18.482   8.882  21.309  0.00  0.00    +0.031 A 
ATOM     30  C   UNL     1      19.849   8.965  21.525  0.00  0.00    +0.113 A 
BRANCH  14  23
ATOM      2  O   UNL     1      24.668   4.271  21.361  0.00  0.00    -0.276 OA
ATOM      8  N   UNL     1      23.959   2.597  19.950  0.00  0.00    -0.329 N 
ATOM     23  C   UNL     1      23.842   3.417  21.047  0.00  0.00    +0.214 C 
ATOM     35  H   UNL     1      24.771   2.658  19.343  0.00  0.00    +0.145 HD
ATOM     36  H   UNL     1      23.238   1.942  19.670  0.00  0.00    +0.145 HD
ENDBRANCH  14  23
ENDBRANCH  24  26
BRANCH  20  10
ATOM      3  N   UNL     1      12.338   8.707  20.214  0.00  0.00    -0.287 NA
ATOM     10  C   UNL     1      13.052   8.236  21.418  0.00  0.00    +0.146 C 
ATOM     11  C   UNL     1      12.182   7.089  21.964  0.00  0.00    +0.030 C 
ATOM     12  C   UNL     1      10.975   7.029  21.038  0.00  0.00    +0.017 C 
ATOM     13  C   UNL     1      10.921   8.417  20.433  0.00  0.00    +0.085 C 
BRANCH   3  15
ATOM     15  C   UNL     1      12.571  10.116  19.922  0.00  0.00    +0.120 C 
BRANCH  15  21
ATOM     21  C   UNL     1      13.194  10.312  18.566  0.00  0.00    -0.033 A 
ATOM     27  C   UNL     1      13.710  11.558  18.209  0.00  0.00    +0.006 A 
ATOM     28  C   UNL     1      13.255   9.247  17.666  0.00  0.00    +0.006 A 
ATOM     31  C   UNL     1      14.287  11.739  16.953  0.00  0.00    +0.019 A 
ATOM     32  C   UNL     1      13.832   9.430  16.410  0.00  0.00    +0.019 A 
ATOM     33  C   UNL     1      14.349  10.675  16.053  0.00  0.00    +0.052 A 
BRANCH  33  34
ATOM      9  N   UNL     1      15.419  11.013  13.719  0.00  0.00    -0.191 NA
ATOM     34  C   UNL     1      14.939  10.861  14.765  0.00  0.00    +0.099 C 
ENDBRANCH  33  34
ENDBRANCH  15  21
ENDBRANCH   3  15
ENDBRANCH  20  10
TORSDOF 6
ENDMDL
MODEL 2
REMARK VINA RESULT:      -7.8      2.159      4.196
REMARK  Name = 45783312
REMARK  6 active torsions:
REMARK  status: ('A' for Active; 'I' for Inactive)
REMARK    1  A    between atoms: N_3  and  C_15
REMARK    2  A    between atoms: C_10  and  C_20
REMARK    3  A    between atoms: C_14  and  C_23
REMARK    4  A    between atoms: C_15  and  C_21
REMARK    5  A    between atoms: C_24  and  C_26
REMARK    6  A    between atoms: C_33  and  C_34
REMARK                            x       y       z     vdW  Elec       q    Type
REMARK                         _______ _______ _______ _____ _____    ______ ____
ROOT
ATOM      1  O   UNL     1      16.217   5.833  18.322  0.00  0.00    -0.336 OA
ATOM      5  N   UNL     1      16.274   7.371  19.949  0.00  0.00    -0.190 NA
ATOM      6  N   UNL     1      17.456   5.682  18.957  0.00  0.00    -0.056 NA
ATOM     20  C   UNL     1      15.584   6.847  18.968  0.00  0.00    +0.245 A 
ATOM     24  C   UNL     1      17.415   6.623  19.904  0.00  0.00    +0.202 A 
ENDROOT
BRANCH  24  26
ATOM      4  N   UNL     1      21.519   5.180  21.999  0.00  0.00    -0.315 N 
ATOM      7  N   UNL     1      20.602   7.277  22.610  0.00  0.00    -0.240 NA
ATOM     14  C   UNL     1      23.600   3.186  22.343  0.00  0.00    +0.078 C 
ATOM     16  C   UNL     1      22.898   3.397  21.004  0.00  0.00    +0.031 C 
ATOM     17  C   UNL     1      22.728   3.654  23.506  0.00  0.00    +0.031 C 
ATOM     18  C   UNL     1      22.321   4.805  20.832  0.00  0.00    +0.107 C 
ATOM     19  C   UNL     1      22.179   5.067  23.305  0.00  0.00    +0.107 C 
ATOM     22  C   UNL     1      20.519   6.151  21.865  0.00  0.00    +0.122 A 
ATOM     25  C   UNL     1      19.497   5.890  20.966  0.00  0.00    +0.055 A 
ATOM     26  C   UNL     1      18.497   6.844  20.823  0.00  0.00    +0.027 A 
ATOM     29  C   UNL     1      18.547   8.015  21.572  0.00  0.00    +0.031 A 
ATOM     30  C   UNL     1      19.611   8.181  22.444  0.00  0.00    +0.113 A 
BRANCH  14  23
ATOM      2  O   UNL     1      25.478   4.293  21.359  0.00  0.00    -0.276 OA
ATOM      8  N   UNL     1      25.486   3.949  23.634  0.00  0.00    -0.329 N 
ATOM     23  C   UNL     1      24.936   3.869  22.377  0.00  0.00    +0.214 C 
ATOM     35  H   UNL     1      26.388   4.393  23.776  0.00  0.00    +0.145 HD
ATOM     36  H   UNL     1      25.054   3.537  24.454  0.00  0.00    +0.145 HD
ENDBRANCH  14  23
ENDBRANCH  24  26
BRANCH  20  10
ATOM      3  N   UNL     1      13.526   8.198  19.327  0.00  0.00    -0.287 NA
ATOM     10  C   UNL     1      14.204   7.211  18.463  0.00  0.00    +0.146 C 
ATOM     11  C   UNL     1      14.233   7.865  17.070  0.00  0.00    +0.030 C 
ATOM     12  C   UNL     1      13.496   9.187  17.236  0.00  0.00    +0.017 C 
ATOM     13  C   UNL     1      12.630   8.961  18.458  0.00  0.00    +0.085 C 
BRANCH   3  15
ATOM     15  C   UNL     1      12.817   7.591  20.447  0.00  0.00    +0.120 C 
BRANCH  15  21
ATOM     21  C   UNL     1      12.294   8.626  21.407  0.00  0.00    -0.033 A 
ATOM     27  C   UNL     1      13.146   9.616  21.898  0.00  0.00    +0.006 A 
ATOM     28  C   UNL     1      10.958   8.593  21.807  0.00  0.00    +0.006 A 
ATOM     31  C   UNL     1      12.661  10.574  22.787  0.00  0.00    +0.019 A 
ATOM     32  C   UNL     1      10.474   9.552  22.697  0.00  0.00    +0.019 A 
ATOM     33  C   UNL     1      11.325  10.543  23.186  0.00  0.00    +0.052 A 
BRANCH  33  34
ATOM      9  N   UNL     1      10.424  12.322  24.839  0.00  0.00    -0.191 NA
ATOM     34  C   UNL     1      10.828  11.524  24.098  0.00  0.00    +0.099 C 
ENDBRANCH  33  34
ENDBRANCH  15  21
ENDBRANCH   3  15
ENDBRANCH  20  10
TORSDOF 6
ENDMDL
MODEL 3
REMARK VINA RESULT:      -7.4      2.379      4.080
REMARK  Name = 45783312
REMARK  6 active torsions:
REMARK  status: ('A' for Active; 'I' for Inactive)
REMARK    1  A    between atoms: N_3  and  C_15
REMARK    2  A    between atoms: C_10  and  C_20
REMARK    3  A    between atoms: C_14  and  C_23
REMARK    4  A    between atoms: C_15  and  C_21
REMARK    5  A    between atoms: C_24  and  C_26
REMARK    6  A    between atoms: C_33  and  C_34
REMARK                            x       y       z     vdW  Elec       q    Type
REMARK                         _______ _______ _______ _____ _____    ______ ____
ROOT
ATOM      1  O   UNL     1      14.613   6.664  20.750  0.00  0.00    -0.336 OA
ATOM      5  N   UNL     1      15.685   8.379  21.713  0.00  0.00    -0.190 NA
ATOM      6  N   UNL     1      15.980   6.382  20.637  0.00  0.00    -0.056 NA
ATOM     20  C   UNL     1      14.527   7.857  21.395  0.00  0.00    +0.245 A 
ATOM     24  C   UNL     1      16.546   7.438  21.227  0.00  0.00    +0.202 A 
ENDROOT
BRANCH  24  26
ATOM      4  N   UNL     1      20.957   5.520  21.644  0.00  0.00    -0.315 N 
ATOM      7  N   UNL     1      20.739   7.877  21.583  0.00  0.00    -0.240 NA
ATOM     14  C   UNL     1      22.674   3.190  21.871  0.00  0.00    +0.078 C 
ATOM     16  C   UNL     1      21.380   3.163  21.060  0.00  0.00    +0.031 C 
ATOM     17  C   UNL     1      22.630   4.271  22.949  0.00  0.00    +0.031 C 
ATOM     18  C   UNL     1      20.950   4.542  20.553  0.00  0.00    +0.107 C 
ATOM     19  C   UNL     1      22.207   5.635  22.405  0.00  0.00    +0.107 C 
ATOM     22  C   UNL     1      20.150   6.660  21.553  0.00  0.00    +0.122 A 
ATOM     25  C   UNL     1      18.783   6.463  21.439  0.00  0.00    +0.055 A 
ATOM     26  C   UNL     1      17.970   7.586  21.348  0.00  0.00    +0.027 A 
ATOM     29  C   UNL     1      18.539   8.855  21.376  0.00  0.00    +0.031 A 
ATOM     30  C   UNL     1      19.916   8.946  21.494  0.00  0.00    +0.113 A 
BRANCH  14  23
ATOM      2  O   UNL     1      24.708   4.252  21.195  0.00  0.00    -0.276 OA
ATOM      8  N   UNL     1      23.927   2.491  19.936  0.00  0.00    -0.329 N 
ATOM     23  C   UNL     1      23.873   3.374  20.988  0.00  0.00    +0.214 C 
ATOM     35  H   UNL     1      24.696   2.521  19.274  0.00  0.00    +0.145 HD
ATOM     36  H   UNL     1      23.197   1.813  19.744  0.00  0.00    +0.145 HD
ENDBRANCH  14  23
ENDBRANCH  24  26
BRANCH  20  10
ATOM      3  N   UNL     1      12.616   9.182  20.509  0.00  0.00    -0.287 NA
ATOM     10  C   UNL     1      13.133   8.390  21.644  0.00  0.00    +0.146 C 
ATOM     11  C   UNL     1      12.095   7.271  21.844  0.00  0.00    +0.030 C 
ATOM     12  C   UNL     1      11.005   7.551  20.819  0.00  0.00    +0.017 C 
ATOM     13  C   UNL     1      11.161   9.029  20.527  0.00  0.00    +0.085 C 
BRANCH   3  15
ATOM     15  C   UNL     1      13.022  10.581  20.553  0.00  0.00    +0.120 C 
BRANCH  15  21
ATOM     21  C   UNL     1      12.452  11.292  21.752  0.00  0.00    -0.033 A 
ATOM     27  C   UNL     1      11.411  12.206  21.591  0.00  0.00    +0.006 A 
ATOM     28  C   UNL     1      12.967  11.036  23.024  0.00  0.00    +0.006 A 
ATOM     31  C   UNL     1      10.884  12.864  22.701  0.00  0.00    +0.019 A 
ATOM     32  C   UNL     1      12.439  11.696  24.134  0.00  0.00    +0.019 A 
ATOM     33  C   UNL     1      11.397  12.609  23.973  0.00  0.00    +0.052 A 
BRANCH  33  34
ATOM      9  N   UNL     1      10.420  13.833  26.036  0.00  0.00    -0.191 NA
ATOM     34  C   UNL     1      10.857  13.284  25.111  0.00  0.00    +0.099 C 
ENDBRANCH  33  34
ENDBRANCH  15  21
ENDBRANCH   3  15
ENDBRANCH  20  10
TORSDOF 6
ENDMDL
MODEL 4
REMARK VINA RESULT:      -7.3     27.064     30.466
REMARK  Name = 45783312
REMARK  6 active torsions:
REMARK  status: ('A' for Active; 'I' for Inactive)
REMARK    1  A    between atoms: N_3  and  C_15
REMARK    2  A    between atoms: C_10  and  C_20
REMARK    3  A    between atoms: C_14  and  C_23
REMARK    4  A    between atoms: C_15  and  C_21
REMARK    5  A    between atoms: C_24  and  C_26
REMARK    6  A    between atoms: C_33  and  C_34
REMARK                            x       y       z     vdW  Elec       q    Type
REMARK                         _______ _______ _______ _____ _____    ______ ____
ROOT
ATOM      1  O   UNL     1      -4.559  -9.707   8.375  0.00  0.00    -0.336 OA
ATOM      5  N   UNL     1      -4.121 -11.504   9.638  0.00  0.00    -0.190 NA
ATOM      6  N   UNL     1      -3.968  -9.223   9.549  0.00  0.00    -0.056 NA
ATOM     20  C   UNL     1      -4.610 -11.058   8.509  0.00  0.00    +0.245 A 
ATOM     24  C   UNL     1      -3.739 -10.341  10.243  0.00  0.00    +0.202 A 
ENDROOT
BRANCH  24  26
ATOM      4  N   UNL     1      -3.985 -11.072  15.009  0.00  0.00    -0.315 N 
ATOM      7  N   UNL     1      -1.943 -10.320  14.074  0.00  0.00    -0.240 NA
ATOM     14  C   UNL     1      -5.510 -11.824  17.362  0.00  0.00    +0.078 C 
ATOM     16  C   UNL     1      -5.774 -12.451  15.995  0.00  0.00    +0.031 C 
ATOM     17  C   UNL     1      -4.859 -10.449  17.225  0.00  0.00    +0.031 C 
ATOM     18  C   UNL     1      -4.559 -12.419  15.065  0.00  0.00    +0.107 C 
ATOM     19  C   UNL     1      -3.643 -10.458  16.298  0.00  0.00    +0.107 C 
ATOM     22  C   UNL     1      -3.232 -10.689  13.893  0.00  0.00    +0.122 A 
ATOM     25  C   UNL     1      -3.865 -10.713  12.661  0.00  0.00    +0.055 A 
ATOM     26  C   UNL     1      -3.130 -10.334  11.544  0.00  0.00    +0.027 A 
ATOM     29  C   UNL     1      -1.802  -9.948  11.690  0.00  0.00    +0.031 A 
ATOM     30  C   UNL     1      -1.260  -9.958  12.965  0.00  0.00    +0.113 A 
BRANCH  14  23
ATOM      2  O   UNL     1      -4.012 -12.289  19.168  0.00  0.00    -0.276 OA
ATOM      8  N   UNL     1      -4.707 -14.042  17.849  0.00  0.00    -0.329 N 
ATOM     23  C   UNL     1      -4.673 -12.721  18.226  0.00  0.00    +0.214 C 
ATOM     35  H   UNL     1      -4.179 -14.740  18.364  0.00  0.00    +0.145 HD
ATOM     36  H   UNL     1      -5.208 -14.372  17.031  0.00  0.00    +0.145 HD
ENDBRANCH  14  23
ENDBRANCH  24  26
BRANCH  20  10
ATOM      3  N   UNL     1      -6.128 -11.001   6.538  0.00  0.00    -0.287 NA
ATOM     10  C   UNL     1      -5.216 -11.827   7.355  0.00  0.00    +0.146 C 
ATOM     11  C   UNL     1      -4.158 -12.340   6.361  0.00  0.00    +0.030 C 
ATOM     12  C   UNL     1      -4.591 -11.801   5.004  0.00  0.00    +0.017 C 
ATOM     13  C   UNL     1      -6.074 -11.544   5.180  0.00  0.00    +0.085 C 
BRANCH   3  15
ATOM     15  C   UNL     1      -7.489 -10.960   7.059  0.00  0.00    +0.120 C 
BRANCH  15  21
ATOM     21  C   UNL     1      -7.912  -9.560   7.412  0.00  0.00    -0.033 A 
ATOM     27  C   UNL     1      -8.169  -9.223   8.741  0.00  0.00    +0.006 A 
ATOM     28  C   UNL     1      -8.049  -8.599   6.409  0.00  0.00    +0.006 A 
ATOM     31  C   UNL     1      -8.561  -7.926   9.068  0.00  0.00    +0.019 A 
ATOM     32  C   UNL     1      -8.442  -7.301   6.737  0.00  0.00    +0.019 A 
ATOM     33  C   UNL     1      -8.698  -6.964   8.066  0.00  0.00    +0.052 A 
BRANCH  33  34
ATOM      9  N   UNL     1      -9.427  -4.555   8.674  0.00  0.00    -0.191 NA
ATOM     34  C   UNL     1      -9.101  -5.635   8.401  0.00  0.00    +0.099 C 
ENDBRANCH  33  34
ENDBRANCH  15  21
ENDBRANCH   3  15
ENDBRANCH  20  10
TORSDOF 6
ENDMDL
MODEL 5
REMARK VINA RESULT:      -7.2      2.897      4.934
REMARK  Name = 45783312
REMARK  6 active torsions:
REMARK  status: ('A' for Active; 'I' for Inactive)
REMARK    1  A    between atoms: N_3  and  C_15
REMARK    2  A    between atoms: C_10  and  C_20
REMARK    3  A    between atoms: C_14  and  C_23
REMARK    4  A    between atoms: C_15  and  C_21
REMARK    5  A    between atoms: C_24  and  C_26
REMARK    6  A    between atoms: C_33  and  C_34
REMARK                            x       y       z     vdW  Elec       q    Type
REMARK                         _______ _______ _______ _____ _____    ______ ____
ROOT
ATOM      1  O   UNL     1      15.696  12.338  20.386  0.00  0.00    -0.336 OA
ATOM      5  N   UNL     1      14.711  10.556  21.318  0.00  0.00    -0.190 NA
ATOM      6  N   UNL     1      16.474  11.231  20.026  0.00  0.00    -0.056 NA
ATOM     20  C   UNL     1      14.679  11.853  21.145  0.00  0.00    +0.245 A 
ATOM     24  C   UNL     1      15.830  10.218  20.613  0.00  0.00    +0.202 A 
ENDROOT
BRANCH  24  26
ATOM      4  N   UNL     1      19.256   6.864  21.170  0.00  0.00    -0.315 N 
ATOM      7  N   UNL     1      17.143   6.207  20.328  0.00  0.00    -0.240 NA
ATOM     14  C   UNL     1      21.964   6.135  21.924  0.00  0.00    +0.078 C 
ATOM     16  C   UNL     1      21.208   7.266  22.620  0.00  0.00    +0.031 C 
ATOM     17  C   UNL     1      21.422   5.890  20.517  0.00  0.00    +0.031 C 
ATOM     18  C   UNL     1      19.687   7.117  22.548  0.00  0.00    +0.107 C 
ATOM     19  C   UNL     1      19.901   5.736  20.486  0.00  0.00    +0.107 C 
ATOM     22  C   UNL     1      17.951   7.190  20.784  0.00  0.00    +0.122 A 
ATOM     25  C   UNL     1      17.570   8.517  20.896  0.00  0.00    +0.055 A 
ATOM     26  C   UNL     1      16.277   8.857  20.516  0.00  0.00    +0.027 A 
ATOM     29  C   UNL     1      15.416   7.873  20.041  0.00  0.00    +0.031 A 
ATOM     30  C   UNL     1      15.893   6.574  19.967  0.00  0.00    +0.113 A 
BRANCH  14  23
ATOM      2  O   UNL     1      21.886   4.882  23.960  0.00  0.00    -0.276 OA
ATOM      8  N   UNL     1      21.966   3.727  21.971  0.00  0.00    -0.329 N 
ATOM     23  C   UNL     1      21.927   4.872  22.732  0.00  0.00    +0.214 C 
ATOM     35  H   UNL     1      21.944   2.813  22.412  0.00  0.00    +0.145 HD
ATOM     36  H   UNL     1      22.063   3.736  20.962  0.00  0.00    +0.145 HD
ENDBRANCH  14  23
ENDBRANCH  24  26
BRANCH  20  10
ATOM      3  N   UNL     1      12.570  12.241  22.408  0.00  0.00    -0.287 NA
ATOM     10  C   UNL     1      13.683  12.868  21.665  0.00  0.00    +0.146 C 
ATOM     11  C   UNL     1      14.309  13.859  22.662  0.00  0.00    +0.030 C 
ATOM     12  C   UNL     1      13.446  13.765  23.913  0.00  0.00    +0.017 C 
ATOM     13  C   UNL     1      12.128  13.225  23.397  0.00  0.00    +0.085 C 
BRANCH   3  15
ATOM     15  C   UNL     1      11.480  11.801  21.546  0.00  0.00    +0.120 C 
BRANCH  15  21
ATOM     21  C   UNL     1      11.348  10.302  21.532  0.00  0.00    -0.033 A 
ATOM     27  C   UNL     1      11.654   9.585  20.374  0.00  0.00    +0.006 A 
ATOM     28  C   UNL     1      10.919   9.628  22.676  0.00  0.00    +0.006 A 
ATOM     31  C   UNL     1      11.531   8.197  20.361  0.00  0.00    +0.019 A 
ATOM     32  C   UNL     1      10.796   8.239  22.662  0.00  0.00    +0.019 A 
ATOM     33  C   UNL     1      11.103   7.523  21.505  0.00  0.00    +0.052 A 
BRANCH  33  34
ATOM      9  N   UNL     1      10.875   4.943  21.480  0.00  0.00    -0.191 NA
ATOM     34  C   UNL     1      10.976   6.100  21.491  0.00  0.00    +0.099 C 
ENDBRANCH  33  34
ENDBRANCH  15  21
ENDBRANCH   3  15
ENDBRANCH  20  10
TORSDOF 6
ENDMDL
MODEL 6
REMARK VINA RESULT:      -7.2     15.215     20.413
REMARK  Name = 45783312
REMARK  6 active torsions:
REMARK  status: ('A' for Active; 'I' for Inactive)
REMARK    1  A    between atoms: N_3  and  C_15
REMARK    2  A    between atoms: C_10  and  C_20
REMARK    3  A    between atoms: C_14  and  C_23
REMARK    4  A    between atoms: C_15  and  C_21
REMARK    5  A    between atoms: C_24  and  C_26
REMARK    6  A    between atoms: C_33  and  C_34
REMARK                            x       y       z     vdW  Elec       q    Type
REMARK                         _______ _______ _______ _____ _____    ______ ____
ROOT
ATOM      1  O   UNL     1      11.162   6.938   3.844  0.00  0.00    -0.336 OA
ATOM      5  N   UNL     1      10.972   4.725   3.555  0.00  0.00    -0.190 NA
ATOM      6  N   UNL     1      11.717   6.661   2.589  0.00  0.00    -0.056 NA
ATOM     20  C   UNL     1      10.747   5.745   4.345  0.00  0.00    +0.245 A 
ATOM     24  C   UNL     1      11.569   5.336   2.491  0.00  0.00    +0.202 A 
ENDROOT
BRANCH  24  26
ATOM      4  N   UNL     1      10.783   3.589  -1.940  0.00  0.00    -0.315 N 
ATOM      7  N   UNL     1      12.859   3.144  -0.890  0.00  0.00    -0.240 NA
ATOM     14  C   UNL     1       9.039   3.248  -4.236  0.00  0.00    +0.078 C 
ATOM     16  C   UNL     1       9.002   4.508  -3.374  0.00  0.00    +0.031 C 
ATOM     17  C   UNL     1       9.588   2.057  -3.454  0.00  0.00    +0.031 C 
ATOM     18  C   UNL     1      10.318   4.787  -2.645  0.00  0.00    +0.107 C 
ATOM     19  C   UNL     1      10.908   2.369  -2.748  0.00  0.00    +0.107 C 
ATOM     22  C   UNL     1      11.638   3.724  -0.840  0.00  0.00    +0.122 A 
ATOM     25  C   UNL     1      11.169   4.450   0.242  0.00  0.00    +0.055 A 
ATOM     26  C   UNL     1      12.006   4.592   1.343  0.00  0.00    +0.027 A 
ATOM     29  C   UNL     1      13.269   4.011   1.328  0.00  0.00    +0.031 A 
ATOM     30  C   UNL     1      13.645   3.303   0.198  0.00  0.00    +0.113 A 
BRANCH  14  23
ATOM      2  O   UNL     1      10.367   4.540  -5.749  0.00  0.00    -0.276 OA
ATOM      8  N   UNL     1       9.873   2.366  -6.317  0.00  0.00    -0.329 N 
ATOM     23  C   UNL     1       9.830   3.465  -5.493  0.00  0.00    +0.214 C 
ATOM     35  H   UNL     1      10.382   2.397  -7.195  0.00  0.00    +0.145 HD
ATOM     36  H   UNL     1       9.371   1.507  -6.120  0.00  0.00    +0.145 HD
ENDBRANCH  14  23
ENDBRANCH  24  26
BRANCH  20  10
ATOM      3  N   UNL     1      10.604   6.881   6.554  0.00  0.00    -0.287 NA
ATOM     10  C   UNL     1      10.100   5.776   5.713  0.00  0.00    +0.146 C 
ATOM     11  C   UNL     1       8.579   5.997   5.647  0.00  0.00    +0.030 C 
ATOM     12  C   UNL     1       8.314   7.210   6.528  0.00  0.00    +0.017 C 
ATOM     13  C   UNL     1       9.511   7.245   7.456  0.00  0.00    +0.085 C 
BRANCH   3  15
ATOM     15  C   UNL     1      11.823   6.543   7.278  0.00  0.00    +0.120 C 
BRANCH  15  21
ATOM     21  C   UNL     1      12.953   7.478   6.940  0.00  0.00    -0.033 A 
ATOM     27  C   UNL     1      12.750   8.858   6.972  0.00  0.00    +0.006 A 
ATOM     28  C   UNL     1      14.203   6.965   6.594  0.00  0.00    +0.006 A 
ATOM     31  C   UNL     1      13.796   9.724   6.659  0.00  0.00    +0.019 A 
ATOM     32  C   UNL     1      15.250   7.832   6.281  0.00  0.00    +0.019 A 
ATOM     33  C   UNL     1      15.047   9.212   6.313  0.00  0.00    +0.052 A 
BRANCH  33  34
ATOM      9  N   UNL     1      16.990  10.822   5.730  0.00  0.00    -0.191 NA
ATOM     34  C   UNL     1      16.119  10.100   5.992  0.00  0.00    +0.099 C 
ENDBRANCH  33  34
ENDBRANCH  15  21
ENDBRANCH   3  15
ENDBRANCH  20  10
TORSDOF 6
ENDMDL
MODEL 7
REMARK VINA RESULT:      -7.1     27.884     30.989
REMARK  Name = 45783312
REMARK  6 active torsions:
REMARK  status: ('A' for Active; 'I' for Inactive)
REMARK    1  A    between atoms: N_3  and  C_15
REMARK    2  A    between atoms: C_10  and  C_20
REMARK    3  A    between atoms: C_14  and  C_23
REMARK    4  A    between atoms: C_15  and  C_21
REMARK    5  A    between atoms: C_24  and  C_26
REMARK    6  A    between atoms: C_33  and  C_34
REMARK                            x       y       z     vdW  Elec       q    Type
REMARK                         _______ _______ _______ _____ _____    ______ ____
ROOT
ATOM      1  O   UNL     1      -6.810 -10.992  19.638  0.00  0.00    -0.336 OA
ATOM      5  N   UNL     1      -7.096 -11.604  17.503  0.00  0.00    -0.190 NA
ATOM      6  N   UNL     1      -5.628 -10.645  18.973  0.00  0.00    -0.056 NA
ATOM     20  C   UNL     1      -7.620 -11.550  18.701  0.00  0.00    +0.245 A 
ATOM     24  C   UNL     1      -5.873 -11.037  17.719  0.00  0.00    +0.202 A 
ENDROOT
BRANCH  24  26
ATOM      4  N   UNL     1      -4.841 -10.448  13.040  0.00  0.00    -0.315 N 
ATOM      7  N   UNL     1      -3.059 -10.567  14.595  0.00  0.00    -0.240 NA
ATOM     14  C   UNL     1      -5.718 -10.190  10.284  0.00  0.00    +0.078 C 
ATOM     16  C   UNL     1      -6.548  -9.655  11.449  0.00  0.00    +0.031 C 
ATOM     17  C   UNL     1      -4.789 -11.315  10.736  0.00  0.00    +0.031 C 
ATOM     18  C   UNL     1      -5.716  -9.325  12.691  0.00  0.00    +0.107 C 
ATOM     19  C   UNL     1      -3.967 -10.947  11.971  0.00  0.00    +0.107 C 
ATOM     22  C   UNL     1      -4.390 -10.587  14.358  0.00  0.00    +0.122 A 
ATOM     25  C   UNL     1      -5.351 -10.738  15.345  0.00  0.00    +0.055 A 
ATOM     26  C   UNL     1      -4.918 -10.878  16.658  0.00  0.00    +0.027 A 
ATOM     29  C   UNL     1      -3.557 -10.863  16.942  0.00  0.00    +0.031 A 
ATOM     30  C   UNL     1      -2.676 -10.707  15.884  0.00  0.00    +0.113 A 
BRANCH  14  23
ATOM      2  O   UNL     1      -3.725  -9.181   9.430  0.00  0.00    -0.276 OA
ATOM      8  N   UNL     1      -5.697  -8.006   9.269  0.00  0.00    -0.329 N 
ATOM     23  C   UNL     1      -4.936  -9.096   9.619  0.00  0.00    +0.214 C 
ATOM     35  H   UNL     1      -5.273  -7.205   8.810  0.00  0.00    +0.145 HD
ATOM     36  H   UNL     1      -6.684  -7.926   9.489  0.00  0.00    +0.145 HD
ENDBRANCH  14  23
ENDBRANCH  24  26
BRANCH  20  10
ATOM      3  N   UNL     1     -10.089 -11.367  18.446  0.00  0.00    -0.287 NA
ATOM     10  C   UNL     1      -8.980 -12.016  19.175  0.00  0.00    +0.146 C 
ATOM     11  C   UNL     1      -9.201 -13.524  18.961  0.00  0.00    +0.030 C 
ATOM     12  C   UNL     1     -10.488 -13.627  18.153  0.00  0.00    +0.017 C 
ATOM     13  C   UNL     1     -11.198 -12.321  18.446  0.00  0.00    +0.085 C 
BRANCH   3  15
ATOM     15  C   UNL     1     -10.473 -10.080  19.012  0.00  0.00    +0.120 C 
BRANCH  15  21
ATOM     21  C   UNL     1     -10.792  -9.070  17.942  0.00  0.00    -0.033 A 
ATOM     27  C   UNL     1     -12.101  -8.936  17.477  0.00  0.00    +0.006 A 
ATOM     28  C   UNL     1      -9.779  -8.269  17.415  0.00  0.00    +0.006 A 
ATOM     31  C   UNL     1     -12.396  -8.001  16.486  0.00  0.00    +0.019 A 
ATOM     32  C   UNL     1     -10.075  -7.334  16.423  0.00  0.00    +0.019 A 
ATOM     33  C   UNL     1     -11.384  -7.199  15.959  0.00  0.00    +0.052 A 
BRANCH  33  34
ATOM      9  N   UNL     1     -11.933  -5.464  14.117  0.00  0.00    -0.191 NA
ATOM     34  C   UNL     1     -11.686  -6.242  14.943  0.00  0.00    +0.099 C 
ENDBRANCH  33  34
ENDBRANCH  15  21
ENDBRANCH   3  15
ENDBRANCH  20  10
TORSDOF 6
ENDMDL
MODEL 8
REMARK VINA RESULT:      -6.9     26.649     31.078
REMARK  Name = 45783312
REMARK  6 active torsions:
REMARK  status: ('A' for Active; 'I' for Inactive)
REMARK    1  A    between atoms: N_3  and  C_15
REMARK    2  A    between atoms: C_10  and  C_20
REMARK    3  A    between atoms: C_14  and  C_23
REMARK    4  A    between atoms: C_15  and  C_21
REMARK    5  A    between atoms: C_24  and  C_26
REMARK    6  A    between atoms: C_33  and  C_34
REMARK                            x       y       z     vdW  Elec       q    Type
REMARK                         _______ _______ _______ _____ _____    ______ ____
ROOT
ATOM      1  O   UNL     1      -3.574 -11.573  18.105  0.00  0.00    -0.336 OA
ATOM      5  N   UNL     1      -5.144 -10.939  16.640  0.00  0.00    -0.190 NA
ATOM      6  N   UNL     1      -4.756 -11.426  18.841  0.00  0.00    -0.056 NA
ATOM     20  C   UNL     1      -3.890 -11.267  16.820  0.00  0.00    +0.245 A 
ATOM     24  C   UNL     1      -5.636 -11.051  17.909  0.00  0.00    +0.202 A 
ENDROOT
BRANCH  24  26
ATOM      4  N   UNL     1      -9.825  -8.892  16.862  0.00  0.00    -0.315 N 
ATOM      7  N   UNL     1      -9.695 -10.253  18.796  0.00  0.00    -0.240 NA
ATOM     14  C   UNL     1     -11.397  -7.145  15.157  0.00  0.00    +0.078 C 
ATOM     16  C   UNL     1     -10.281  -8.027  14.600  0.00  0.00    +0.031 C 
ATOM     17  C   UNL     1     -11.180  -6.848  16.639  0.00  0.00    +0.031 C 
ATOM     18  C   UNL     1      -9.998  -9.264  15.455  0.00  0.00    +0.107 C 
ATOM     19  C   UNL     1     -10.910  -8.107  17.463  0.00  0.00    +0.107 C 
ATOM     22  C   UNL     1      -9.085  -9.725  17.710  0.00  0.00    +0.122 A 
ATOM     25  C   UNL     1      -7.761  -9.955  17.376  0.00  0.00    +0.055 A 
ATOM     26  C   UNL     1      -7.013 -10.779  18.209  0.00  0.00    +0.027 A 
ATOM     29  C   UNL     1      -7.605 -11.340  19.336  0.00  0.00    +0.031 A 
ATOM     30  C   UNL     1      -8.937 -11.048  19.583  0.00  0.00    +0.113 A 
BRANCH  14  23
ATOM      2  O   UNL     1     -12.919  -8.689  14.149  0.00  0.00    -0.276 OA
ATOM      8  N   UNL     1     -13.751  -7.172  15.666  0.00  0.00    -0.329 N 
ATOM     23  C   UNL     1     -12.747  -7.759  14.933  0.00  0.00    +0.214 C 
ATOM     35  H   UNL     1     -14.707  -7.508  15.595  0.00  0.00    +0.145 HD
ATOM     36  H   UNL     1     -13.602  -6.364  16.261  0.00  0.00    +0.145 HD
ENDBRANCH  14  23
ENDBRANCH  24  26
BRANCH  20  10
ATOM      3  N   UNL     1      -3.091 -10.672  14.539  0.00  0.00    -0.287 NA
ATOM     10  C   UNL     1      -2.766 -11.352  15.810  0.00  0.00    +0.146 C 
ATOM     11  C   UNL     1      -1.475 -10.671  16.299  0.00  0.00    +0.030 C 
ATOM     12  C   UNL     1      -1.118  -9.666  15.211  0.00  0.00    +0.017 C 
ATOM     13  C   UNL     1      -1.820 -10.207  13.982  0.00  0.00    +0.085 C 
BRANCH   3  15
ATOM     15  C   UNL     1      -3.822 -11.518  13.606  0.00  0.00    +0.120 C 
BRANCH  15  21
ATOM     21  C   UNL     1      -4.542 -10.708  12.560  0.00  0.00    -0.033 A 
ATOM     27  C   UNL     1      -5.629  -9.912  12.920  0.00  0.00    +0.006 A 
ATOM     28  C   UNL     1      -4.121 -10.754  11.231  0.00  0.00    +0.006 A 
ATOM     31  C   UNL     1      -6.295  -9.162  11.952  0.00  0.00    +0.019 A 
ATOM     32  C   UNL     1      -4.787 -10.004  10.262  0.00  0.00    +0.019 A 
ATOM     33  C   UNL     1      -5.874  -9.207  10.623  0.00  0.00    +0.052 A 
BRANCH  33  34
ATOM      9  N   UNL     1      -7.113  -7.815   8.824  0.00  0.00    -0.191 NA
ATOM     34  C   UNL     1      -6.557  -8.439   9.630  0.00  0.00    +0.099 C 
ENDBRANCH  33  34
ENDBRANCH  15  21
ENDBRANCH   3  15
ENDBRANCH  20  10
TORSDOF 6
ENDMDL
MODEL 9
REMARK VINA RESULT:      -6.9      4.670      8.360
REMARK  Name = 45783312
REMARK  6 active torsions:
REMARK  status: ('A' for Active; 'I' for Inactive)
REMARK    1  A    between atoms: N_3  and  C_15
REMARK    2  A    between atoms: C_10  and  C_20
REMARK    3  A    between atoms: C_14  and  C_23
REMARK    4  A    between atoms: C_15  and  C_21
REMARK    5  A    between atoms: C_24  and  C_26
REMARK    6  A    between atoms: C_33  and  C_34
REMARK                            x       y       z     vdW  Elec       q    Type
REMARK                         _______ _______ _______ _____ _____    ______ ____
ROOT
ATOM      1  O   UNL     1      13.443  12.162  20.478  0.00  0.00    -0.336 OA
ATOM      5  N   UNL     1      12.472  10.524  19.300  0.00  0.00    -0.190 NA
ATOM      6  N   UNL     1      14.196  12.028  19.306  0.00  0.00    -0.056 NA
ATOM     20  C   UNL     1      12.448  11.241  20.395  0.00  0.00    +0.245 A 
ATOM     24  C   UNL     1      13.562  11.043  18.663  0.00  0.00    +0.202 A 
ENDROOT
BRANCH  24  26
ATOM      4  N   UNL     1      15.984  11.628  14.528  0.00  0.00    -0.315 N 
ATOM      7  N   UNL     1      14.824   9.596  14.893  0.00  0.00    -0.240 NA
ATOM     14  C   UNL     1      17.627  13.271  12.787  0.00  0.00    +0.078 C 
ATOM     16  C   UNL     1      17.731  13.353  14.308  0.00  0.00    +0.031 C 
ATOM     17  C   UNL     1      16.260  12.747  12.352  0.00  0.00    +0.031 C 
ATOM     18  C   UNL     1      17.292  12.071  15.020  0.00  0.00    +0.107 C 
ATOM     19  C   UNL     1      15.860  11.461  13.075  0.00  0.00    +0.107 C 
ATOM     22  C   UNL     1      15.178  10.822  15.341  0.00  0.00    +0.122 A 
ATOM     25  C   UNL     1      14.791  11.342  16.565  0.00  0.00    +0.055 A 
ATOM     26  C   UNL     1      13.990  10.553  17.383  0.00  0.00    +0.027 A 
ATOM     29  C   UNL     1      13.605   9.286  16.957  0.00  0.00    +0.031 A 
ATOM     30  C   UNL     1      14.044   8.858  15.714  0.00  0.00    +0.113 A 
BRANCH  14  23
ATOM      2  O   UNL     1      19.793  12.256  12.788  0.00  0.00    -0.276 OA
ATOM      8  N   UNL     1      18.424  11.900  10.974  0.00  0.00    -0.329 N 
ATOM     23  C   UNL     1      18.725  12.429  12.206  0.00  0.00    +0.214 C 
ATOM     35  H   UNL     1      19.092  11.311  10.486  0.00  0.00    +0.145 HD
ATOM     36  H   UNL     1      17.562  12.104  10.479  0.00  0.00    +0.145 HD
ENDBRANCH  14  23
ENDBRANCH  24  26
BRANCH  20  10
ATOM      3  N   UNL     1      12.012  10.409  22.699  0.00  0.00    -0.287 NA
ATOM     10  C   UNL     1      11.482  11.184  21.559  0.00  0.00    +0.146 C 
ATOM     11  C   UNL     1      11.171  12.574  22.142  0.00  0.00    +0.030 C 
ATOM     12  C   UNL     1      11.500  12.466  23.625  0.00  0.00    +0.017 C 
ATOM     13  C   UNL     1      11.408  10.980  23.903  0.00  0.00    +0.085 C 
BRANCH   3  15
ATOM     15  C   UNL     1      11.762   8.977  22.586  0.00  0.00    +0.120 C 
BRANCH  15  21
ATOM     21  C   UNL     1      12.829   8.284  21.782  0.00  0.00    -0.033 A 
ATOM     27  C   UNL     1      12.471   7.401  20.762  0.00  0.00    +0.006 A 
ATOM     28  C   UNL     1      14.175   8.523  22.058  0.00  0.00    +0.006 A 
ATOM     31  C   UNL     1      13.459   6.759  20.018  0.00  0.00    +0.019 A 
ATOM     32  C   UNL     1      15.164   7.879  21.313  0.00  0.00    +0.019 A 
ATOM     33  C   UNL     1      14.806   6.998  20.293  0.00  0.00    +0.052 A 
BRANCH  33  34
ATOM      9  N   UNL     1      16.641   5.802  18.911  0.00  0.00    -0.191 NA
ATOM     34  C   UNL     1      15.819   6.339  19.530  0.00  0.00    +0.099 C 
ENDBRANCH  33  34
ENDBRANCH  15  21
ENDBRANCH   3  15
ENDBRANCH  20  10
TORSDOF 6
ENDMDL
MODEL 10
REMARK VINA RESULT:      -6.9     14.242     15.974
REMARK  Name = 45783312
REMARK  6 active torsions:
REMARK  status: ('A' for Active; 'I' for Inactive)
REMARK    1  A    between atoms: N_3  and  C_15
REMARK    2  A    between atoms: C_10  and  C_20
REMARK    3  A    between atoms: C_14  and  C_23
REMARK    4  A    between atoms: C_15  and  C_21
REMARK    5  A    between atoms: C_24  and  C_26
REMARK    6  A    between atoms: C_33  and  C_34
REMARK                            x       y       z     vdW  Elec       q    Type
REMARK                         _______ _______ _______ _____ _____    ______ ____
ROOT
ATOM      1  O   UNL     1      12.999   6.433   6.859  0.00  0.00    -0.336 OA
ATOM      5  N   UNL     1      12.998   8.445   5.876  0.00  0.00    -0.190 NA
ATOM      6  N   UNL     1      14.308   6.918   6.966  0.00  0.00    -0.056 NA
ATOM     20  C   UNL     1      12.293   7.393   6.205  0.00  0.00    +0.245 A 
ATOM     24  C   UNL     1      14.228   8.108   6.364  0.00  0.00    +0.202 A 
ENDROOT
BRANCH  24  26
ATOM      4  N   UNL     1      18.938   8.818   5.578  0.00  0.00    -0.315 N 
ATOM      7  N   UNL     1      17.551  10.697   5.972  0.00  0.00    -0.240 NA
ATOM     14  C   UNL     1      21.588   7.754   5.057  0.00  0.00    +0.078 C 
ATOM     16  C   UNL     1      20.328   7.079   4.520  0.00  0.00    +0.031 C 
ATOM     17  C   UNL     1      21.282   8.594   6.296  0.00  0.00    +0.031 C 
ATOM     18  C   UNL     1      19.147   8.038   4.355  0.00  0.00    +0.107 C 
ATOM     19  C   UNL     1      20.105   9.546   6.090  0.00  0.00    +0.107 C 
ATOM     22  C   UNL     1      17.673   9.356   5.845  0.00  0.00    +0.122 A 
ATOM     25  C   UNL     1      16.618   8.467   5.965  0.00  0.00    +0.055 A 
ATOM     26  C   UNL     1      15.356   8.986   6.231  0.00  0.00    +0.027 A 
ATOM     29  C   UNL     1      15.191  10.360   6.368  0.00  0.00    +0.031 A 
ATOM     30  C   UNL     1      16.310  11.165   6.232  0.00  0.00    +0.113 A 
BRANCH  14  23
ATOM      2  O   UNL     1      21.973   8.486   2.813  0.00  0.00    -0.276 OA
ATOM      8  N   UNL     1      23.212   9.444   4.500  0.00  0.00    -0.329 N 
ATOM     23  C   UNL     1      22.257   8.588   4.005  0.00  0.00    +0.214 C 
ATOM     35  H   UNL     1      23.727  10.058   3.878  0.00  0.00    +0.145 HD
ATOM     36  H   UNL     1      23.478   9.470   5.478  0.00  0.00    +0.145 HD
ENDBRANCH  14  23
ENDBRANCH  24  26
BRANCH  20  10
ATOM      3  N   UNL     1      10.618   5.966   5.043  0.00  0.00    -0.287 NA
ATOM     10  C   UNL     1      10.827   7.104   5.962  0.00  0.00    +0.146 C 
ATOM     11  C   UNL     1      10.076   6.711   7.247  0.00  0.00    +0.030 C 
ATOM     12  C   UNL     1       9.428   5.369   6.936  0.00  0.00    +0.017 C 
ATOM     13  C   UNL     1       9.343   5.357   5.423  0.00  0.00    +0.085 C 
BRANCH   3  15
ATOM     15  C   UNL     1      10.645   6.350   3.638  0.00  0.00    +0.120 C 
BRANCH  15  21
ATOM     21  C   UNL     1      11.825   5.755   2.917  0.00  0.00    -0.033 A 
ATOM     27  C   UNL     1      12.990   6.504   2.749  0.00  0.00    +0.006 A 
ATOM     28  C   UNL     1      11.754   4.454   2.416  0.00  0.00    +0.006 A 
ATOM     31  C   UNL     1      14.083   5.953   2.082  0.00  0.00    +0.019 A 
ATOM     32  C   UNL     1      12.847   3.904   1.748  0.00  0.00    +0.019 A 
ATOM     33  C   UNL     1      14.012   4.653   1.581  0.00  0.00    +0.052 A 
BRANCH  33  34
ATOM      9  N   UNL     1      16.042   3.631   0.339  0.00  0.00    -0.191 NA
ATOM     34  C   UNL     1      15.132   4.088   0.896  0.00  0.00    +0.099 C 
ENDBRANCH  33  34
ENDBRANCH  15  21
ENDBRANCH   3  15
ENDBRANCH  20  10
TORSDOF 6
ENDMDL
