MODEL 1
REMARK VINA RESULT:      -6.4      0.000      0.000
REMARK  Name = 38028701
REMARK  11 active torsions:
REMARK  status: ('A' for Active; 'I' for Inactive)
REMARK    1  A    between atoms: N_4  and  C_13
REMARK    2  A    between atoms: N_5  and  C_21
REMARK    3  A    between atoms: C_6  and  C_10
REMARK    4  A    between atoms: C_7  and  C_13
REMARK    5  A    between atoms: C_9  and  C_14
REMARK    6  A    between atoms: C_10  and  C_15
REMARK    7  A    between atoms: C_10  and  C_16
REMARK    8  A    between atoms: C_11  and  C_17
REMARK    9  A    between atoms: C_14  and  C_18
REMARK   10  A    between atoms: C_19  and  C_20
REMARK   11  A    between atoms: C_21  and  C_24
REMARK                            x       y       z     vdW  Elec       q    Type
REMARK                         _______ _______ _______ _____ _____    ______ ____
ROOT
ATOM      6  C   UNL     1      -3.345 -11.994  12.565  0.00  0.00    +0.000 C 
ATOM      7  C   UNL     1      -2.187 -10.984  12.362  0.00  0.00    +0.032 C 
ATOM      8  C   UNL     1      -3.994 -12.343  11.217  0.00  0.00    +0.012 C 
ATOM      9  C   UNL     1      -4.552 -11.099  10.499  0.00  0.00    +0.023 C 
ATOM     11  C   UNL     1      -3.555  -9.958  10.494  0.00  0.00    -0.073 C 
ATOM     12  C   UNL     1      -2.497  -9.930  11.324  0.00  0.00    -0.022 C 
ATOM     17  C   UNL     1      -3.777  -8.870   9.481  0.00  0.00    +0.039 C 
ENDROOT
BRANCH   6  10
ATOM     10  C   UNL     1      -2.868 -13.274  13.258  0.00  0.00    -0.013 C 
ATOM     15  C   UNL     1      -3.906 -13.751  14.267  0.00  0.00    +0.007 C 
ATOM     16  C   UNL     1      -2.576 -14.360  12.227  0.00  0.00    +0.007 C 
ENDBRANCH   6  10
BRANCH   7  13
ATOM     13  C   UNL     1      -1.808 -10.304  13.682  0.00  0.00    +0.112 C 
BRANCH  13   4
ATOM      3  O   UNL     1      -1.784 -10.973  16.474  0.00  0.00    -0.270 OA
ATOM      4  N   UNL     1      -2.922 -10.274  14.576  0.00  0.00    -0.311 N 
ATOM     19  C   UNL     1      -2.823 -10.617  15.925  0.00  0.00    +0.244 C 
ATOM     29  H   UNL     1      -3.794  -9.901  14.217  0.00  0.00    +0.149 HD
BRANCH  19  20
ATOM      1  F   UNL     1      -7.423  -9.144  16.485  0.00  0.00    -0.205 F 
ATOM     20  C   UNL     1      -4.079 -10.559  16.715  0.00  0.00    +0.039 A 
ATOM     22  C   UNL     1      -5.183  -9.865  16.220  0.00  0.00    +0.051 A 
ATOM     23  C   UNL     1      -4.155 -11.199  17.951  0.00  0.00    +0.013 A 
ATOM     25  C   UNL     1      -6.363  -9.810  16.961  0.00  0.00    +0.124 A 
ATOM     26  C   UNL     1      -5.336 -11.144  18.693  0.00  0.00    +0.004 A 
ATOM     27  C   UNL     1      -6.439 -10.450  18.198  0.00  0.00    +0.038 A 
ENDBRANCH  19  20
ENDBRANCH  13   4
ENDBRANCH   7  13
BRANCH   9  14
ATOM     14  C   UNL     1      -5.886 -10.659  11.112  0.00  0.00    +0.103 C 
BRANCH  14  18
ATOM      2  O   UNL     1      -6.994 -10.908   8.974  0.00  0.00    -0.276 OA
ATOM      5  N   UNL     1      -7.742  -9.296  10.470  0.00  0.00    -0.304 N 
ATOM     18  C   UNL     1      -6.916 -10.328  10.054  0.00  0.00    +0.214 C 
ATOM     30  H   UNL     1      -7.605  -8.892  11.393  0.00  0.00    +0.150 HD
BRANCH   5  21
ATOM     21  C   UNL     1      -8.816  -8.769   9.660  0.00  0.00    +0.193 C 
BRANCH  21  24
ATOM     24  C   UNL     1      -8.348  -7.675   8.810  0.00  0.00    -0.087 C 
ATOM     28  C   UNL     1      -7.959  -6.778   8.114  0.00  0.00    +0.005 C 
ENDBRANCH  21  24
ENDBRANCH   5  21
ENDBRANCH  14  18
ENDBRANCH   9  14
TORSDOF 8
ENDMDL
MODEL 2
REMARK VINA RESULT:      -6.3     26.435     28.659
REMARK  Name = 38028701
REMARK  11 active torsions:
REMARK  status: ('A' for Active; 'I' for Inactive)
REMARK    1  A    between atoms: N_4  and  C_13
REMARK    2  A    between atoms: N_5  and  C_21
REMARK    3  A    between atoms: C_6  and  C_10
REMARK    4  A    between atoms: C_7  and  C_13
REMARK    5  A    between atoms: C_9  and  C_14
REMARK    6  A    between atoms: C_10  and  C_15
REMARK    7  A    between atoms: C_10  and  C_16
REMARK    8  A    between atoms: C_11  and  C_17
REMARK    9  A    between atoms: C_14  and  C_18
REMARK   10  A    between atoms: C_19  and  C_20
REMARK   11  A    between atoms: C_21  and  C_24
REMARK                            x       y       z     vdW  Elec       q    Type
REMARK                         _______ _______ _______ _____ _____    ______ ____
ROOT
ATOM      6  C   UNL     1      13.236   9.121  20.141  0.00  0.00    +0.000 C 
ATOM      7  C   UNL     1      12.312   8.053  19.506  0.00  0.00    +0.032 C 
ATOM      8  C   UNL     1      12.974  10.498  19.513  0.00  0.00    +0.012 C 
ATOM      9  C   UNL     1      13.202  10.498  17.990  0.00  0.00    +0.023 C 
ATOM     11  C   UNL     1      12.536   9.313  17.321  0.00  0.00    -0.073 C 
ATOM     12  C   UNL     1      12.133   8.234  18.017  0.00  0.00    -0.022 C 
ATOM     17  C   UNL     1      12.304   9.414  15.840  0.00  0.00    +0.039 C 
ENDROOT
BRANCH   6  10
ATOM     10  C   UNL     1      13.056   9.200  21.660  0.00  0.00    -0.013 C 
ATOM     15  C   UNL     1      14.204   9.978  22.292  0.00  0.00    +0.007 C 
ATOM     16  C   UNL     1      11.715   9.839  22.004  0.00  0.00    +0.007 C 
ENDBRANCH   6  10
BRANCH   7  13
ATOM     13  C   UNL     1      12.826   6.636  19.789  0.00  0.00    +0.112 C 
BRANCH  13   4
ATOM      3  O   UNL     1      15.161   6.843  18.133  0.00  0.00    -0.270 OA
ATOM      4  N   UNL     1      14.184   6.669  20.231  0.00  0.00    -0.311 N 
ATOM     19  C   UNL     1      15.265   6.770  19.355  0.00  0.00    +0.244 C 
ATOM     29  H   UNL     1      14.344   6.707  21.232  0.00  0.00    +0.149 HD
BRANCH  19  20
ATOM      1  F   UNL     1      19.694   4.828  19.863  0.00  0.00    -0.205 F 
ATOM     20  C   UNL     1      16.617   6.766  19.971  0.00  0.00    +0.039 A 
ATOM     22  C   UNL     1      17.539   5.779  19.621  0.00  0.00    +0.051 A 
ATOM     23  C   UNL     1      16.964   7.749  20.897  0.00  0.00    +0.013 A 
ATOM     25  C   UNL     1      18.809   5.775  20.198  0.00  0.00    +0.124 A 
ATOM     26  C   UNL     1      18.234   7.744  21.475  0.00  0.00    +0.004 A 
ATOM     27  C   UNL     1      19.156   6.758  21.126  0.00  0.00    +0.038 A 
ENDBRANCH  19  20
ENDBRANCH  13   4
ENDBRANCH   7  13
BRANCH   9  14
ATOM     14  C   UNL     1      14.697  10.550  17.655  0.00  0.00    +0.103 C 
BRANCH  14  18
ATOM      2  O   UNL     1      14.934  12.843  16.920  0.00  0.00    -0.276 OA
ATOM      5  N   UNL     1      15.419  11.113  15.446  0.00  0.00    -0.304 N 
ATOM     18  C   UNL     1      15.020  11.645  16.663  0.00  0.00    +0.214 C 
ATOM     30  H   UNL     1      15.473  10.104  15.340  0.00  0.00    +0.150 HD
BRANCH   5  21
ATOM     21  C   UNL     1      15.787  11.927  14.311  0.00  0.00    +0.193 C 
BRANCH  21  24
ATOM     24  C   UNL     1      14.611  12.298  13.525  0.00  0.00    -0.087 C 
ATOM     28  C   UNL     1      13.644  12.599  12.881  0.00  0.00    +0.005 C 
ENDBRANCH  21  24
ENDBRANCH   5  21
ENDBRANCH  14  18
ENDBRANCH   9  14
TORSDOF 8
ENDMDL
MODEL 3
REMARK VINA RESULT:      -6.2      3.995      6.810
REMARK  Name = 38028701
REMARK  11 active torsions:
REMARK  status: ('A' for Active; 'I' for Inactive)
REMARK    1  A    between atoms: N_4  and  C_13
REMARK    2  A    between atoms: N_5  and  C_21
REMARK    3  A    between atoms: C_6  and  C_10
REMARK    4  A    between atoms: C_7  and  C_13
REMARK    5  A    between atoms: C_9  and  C_14
REMARK    6  A    between atoms: C_10  and  C_15
REMARK    7  A    between atoms: C_10  and  C_16
REMARK    8  A    between atoms: C_11  and  C_17
REMARK    9  A    between atoms: C_14  and  C_18
REMARK   10  A    between atoms: C_19  and  C_20
REMARK   11  A    between atoms: C_21  and  C_24
REMARK                            x       y       z     vdW  Elec       q    Type
REMARK                         _______ _______ _______ _____ _____    ______ ____
ROOT
ATOM      6  C   UNL     1      -6.833 -10.858  17.863  0.00  0.00    +0.000 C 
ATOM      7  C   UNL     1      -6.161 -11.245  16.522  0.00  0.00    +0.032 C 
ATOM      8  C   UNL     1      -8.362 -10.936  17.738  0.00  0.00    +0.012 C 
ATOM      9  C   UNL     1      -8.905 -10.009  16.634  0.00  0.00    +0.023 C 
ATOM     11  C   UNL     1      -8.115 -10.141  15.349  0.00  0.00    -0.073 C 
ATOM     12  C   UNL     1      -6.895 -10.708  15.315  0.00  0.00    -0.022 C 
ATOM     17  C   UNL     1      -8.776  -9.646  14.093  0.00  0.00    +0.039 C 
ENDROOT
BRANCH   6  10
ATOM     10  C   UNL     1      -6.360 -11.750  19.015  0.00  0.00    -0.013 C 
ATOM     15  C   UNL     1      -5.692 -10.911  20.098  0.00  0.00    +0.007 C 
ATOM     16  C   UNL     1      -7.530 -12.542  19.589  0.00  0.00    +0.007 C 
ENDBRANCH   6  10
BRANCH   7  13
ATOM     13  C   UNL     1      -4.701 -10.779  16.479  0.00  0.00    +0.112 C 
BRANCH  13   4
ATOM      3  O   UNL     1      -2.964 -12.146  14.647  0.00  0.00    -0.270 OA
ATOM      4  N   UNL     1      -4.343 -10.352  15.164  0.00  0.00    -0.311 N 
ATOM     19  C   UNL     1      -3.488 -11.080  14.336  0.00  0.00    +0.244 C 
ATOM     29  H   UNL     1      -4.810  -9.528  14.802  0.00  0.00    +0.149 HD
BRANCH  19  20
ATOM      1  F   UNL     1      -0.348  -9.280  11.087  0.00  0.00    -0.205 F 
ATOM     20  C   UNL     1      -3.194 -10.487  13.006  0.00  0.00    +0.039 A 
ATOM     22  C   UNL     1      -1.883 -10.155  12.664  0.00  0.00    +0.051 A 
ATOM     23  C   UNL     1      -4.229 -10.264  12.098  0.00  0.00    +0.013 A 
ATOM     25  C   UNL     1      -1.607  -9.599  11.415  0.00  0.00    +0.124 A 
ATOM     26  C   UNL     1      -3.953  -9.708  10.849  0.00  0.00    +0.004 A 
ATOM     27  C   UNL     1      -2.642  -9.375  10.507  0.00  0.00    +0.038 A 
ENDBRANCH  19  20
ENDBRANCH  13   4
ENDBRANCH   7  13
BRANCH   9  14
ATOM     14  C   UNL     1      -8.945  -8.551  17.107  0.00  0.00    +0.103 C 
BRANCH  14  18
ATOM      2  O   UNL     1     -11.328  -8.560  17.530  0.00  0.00    -0.276 OA
ATOM      5  N   UNL     1     -10.361  -6.735  16.466  0.00  0.00    -0.304 N 
ATOM     18  C   UNL     1     -10.345  -7.980  17.074  0.00  0.00    +0.214 C 
ATOM     30  H   UNL     1      -9.488  -6.333  16.135  0.00  0.00    +0.150 HD
BRANCH   5  21
ATOM     21  C   UNL     1     -11.565  -5.955  16.294  0.00  0.00    +0.193 C 
BRANCH  21  24
ATOM     24  C   UNL     1     -11.919  -5.838  14.879  0.00  0.00    -0.087 C 
ATOM     28  C   UNL     1     -12.210  -5.746  13.719  0.00  0.00    +0.005 C 
ENDBRANCH  21  24
ENDBRANCH   5  21
ENDBRANCH  14  18
ENDBRANCH   9  14
TORSDOF 8
ENDMDL
MODEL 4
REMARK VINA RESULT:      -6.2      1.656      2.103
REMARK  Name = 38028701
REMARK  11 active torsions:
REMARK  status: ('A' for Active; 'I' for Inactive)
REMARK    1  A    between atoms: N_4  and  C_13
REMARK    2  A    between atoms: N_5  and  C_21
REMARK    3  A    between atoms: C_6  and  C_10
REMARK    4  A    between atoms: C_7  and  C_13
REMARK    5  A    between atoms: C_9  and  C_14
REMARK    6  A    between atoms: C_10  and  C_15
REMARK    7  A    between atoms: C_10  and  C_16
REMARK    8  A    between atoms: C_11  and  C_17
REMARK    9  A    between atoms: C_14  and  C_18
REMARK   10  A    between atoms: C_19  and  C_20
REMARK   11  A    between atoms: C_21  and  C_24
REMARK                            x       y       z     vdW  Elec       q    Type
REMARK                         _______ _______ _______ _____ _____    ______ ____
ROOT
ATOM      6  C   UNL     1      -2.991 -12.284  12.938  0.00  0.00    +0.000 C 
ATOM      7  C   UNL     1      -1.899 -11.186  12.917  0.00  0.00    +0.032 C 
ATOM      8  C   UNL     1      -3.431 -12.629  11.506  0.00  0.00    +0.012 C 
ATOM      9  C   UNL     1      -3.986 -11.403  10.756  0.00  0.00    +0.023 C 
ATOM     11  C   UNL     1      -3.089 -10.193  10.914  0.00  0.00    -0.073 C 
ATOM     12  C   UNL     1      -2.153 -10.119  11.878  0.00  0.00    -0.022 C 
ATOM     17  C   UNL     1      -3.261  -9.087   9.912  0.00  0.00    +0.039 C 
ENDROOT
BRANCH   6  10
ATOM     10  C   UNL     1      -2.510 -13.551  13.652  0.00  0.00    -0.013 C 
ATOM     15  C   UNL     1      -3.571 -14.048  14.627  0.00  0.00    +0.007 C 
ATOM     16  C   UNL     1      -2.160 -14.634  12.636  0.00  0.00    +0.007 C 
ENDBRANCH   6  10
BRANCH   7  13
ATOM     13  C   UNL     1      -1.748 -10.530  14.295  0.00  0.00    +0.112 C 
BRANCH  13   4
ATOM      3  O   UNL     1      -2.457 -11.089  17.021  0.00  0.00    -0.270 OA
ATOM      4  N   UNL     1      -3.025 -10.327  14.903  0.00  0.00    -0.311 N 
ATOM     19  C   UNL     1      -3.285 -10.627  16.240  0.00  0.00    +0.244 C 
ATOM     29  H   UNL     1      -3.734  -9.862  14.346  0.00  0.00    +0.149 HD
BRANCH  19  20
ATOM      1  F   UNL     1      -6.662 -10.748  19.738  0.00  0.00    -0.205 F 
ATOM     20  C   UNL     1      -4.672 -10.382  16.714  0.00  0.00    +0.039 A 
ATOM     22  C   UNL     1      -5.023 -10.687  18.029  0.00  0.00    +0.051 A 
ATOM     23  C   UNL     1      -5.621  -9.846  15.845  0.00  0.00    +0.013 A 
ATOM     25  C   UNL     1      -6.325 -10.456  18.475  0.00  0.00    +0.124 A 
ATOM     26  C   UNL     1      -6.923  -9.616  16.290  0.00  0.00    +0.004 A 
ATOM     27  C   UNL     1      -7.275  -9.921  17.605  0.00  0.00    +0.038 A 
ENDBRANCH  19  20
ENDBRANCH  13   4
ENDBRANCH   7  13
BRANCH   9  14
ATOM     14  C   UNL     1      -5.419 -11.086  11.199  0.00  0.00    +0.103 C 
BRANCH  14  18
ATOM      2  O   UNL     1      -7.385 -12.135  10.256  0.00  0.00    -0.276 OA
ATOM      5  N   UNL     1      -6.123 -10.686   8.949  0.00  0.00    -0.304 N 
ATOM     18  C   UNL     1      -6.428 -11.379  10.111  0.00  0.00    +0.214 C 
ATOM     30  H   UNL     1      -5.314 -10.070   8.937  0.00  0.00    +0.150 HD
BRANCH   5  21
ATOM     21  C   UNL     1      -6.915 -10.777   7.745  0.00  0.00    +0.193 C 
BRANCH  21  24
ATOM     24  C   UNL     1      -6.069 -10.996   6.573  0.00  0.00    -0.087 C 
ATOM     28  C   UNL     1      -5.371 -11.177   5.613  0.00  0.00    +0.005 C 
ENDBRANCH  21  24
ENDBRANCH   5  21
ENDBRANCH  14  18
ENDBRANCH   9  14
TORSDOF 8
ENDMDL
MODEL 5
REMARK VINA RESULT:      -6.2     20.698     22.761
REMARK  Name = 38028701
REMARK  11 active torsions:
REMARK  status: ('A' for Active; 'I' for Inactive)
REMARK    1  A    between atoms: N_4  and  C_13
REMARK    2  A    between atoms: N_5  and  C_21
REMARK    3  A    between atoms: C_6  and  C_10
REMARK    4  A    between atoms: C_7  and  C_13
REMARK    5  A    between atoms: C_9  and  C_14
REMARK    6  A    between atoms: C_10  and  C_15
REMARK    7  A    between atoms: C_10  and  C_16
REMARK    8  A    between atoms: C_11  and  C_17
REMARK    9  A    between atoms: C_14  and  C_18
REMARK   10  A    between atoms: C_19  and  C_20
REMARK   11  A    between atoms: C_21  and  C_24
REMARK                            x       y       z     vdW  Elec       q    Type
REMARK                         _______ _______ _______ _____ _____    ______ ____
ROOT
ATOM      6  C   UNL     1     -12.896   8.091  20.404  0.00  0.00    +0.000 C 
ATOM      7  C   UNL     1     -12.258   9.285  21.157  0.00  0.00    +0.032 C 
ATOM      8  C   UNL     1     -11.898   7.497  19.398  0.00  0.00    +0.012 C 
ATOM      9  C   UNL     1     -11.429   8.534  18.360  0.00  0.00    +0.023 C 
ATOM     11  C   UNL     1     -11.032   9.842  19.012  0.00  0.00    -0.073 C 
ATOM     12  C   UNL     1     -11.401  10.155  20.268  0.00  0.00    -0.022 C 
ATOM     17  C   UNL     1     -10.164  10.766  18.204  0.00  0.00    +0.039 C 
ENDROOT
BRANCH   6  10
ATOM     10  C   UNL     1     -13.374   7.000  21.366  0.00  0.00    -0.013 C 
ATOM     15  C   UNL     1     -14.717   6.439  20.911  0.00  0.00    +0.007 C 
ATOM     16  C   UNL     1     -12.333   5.891  21.473  0.00  0.00    +0.007 C 
ENDBRANCH   6  10
BRANCH   7  13
ATOM     13  C   UNL     1     -13.328  10.147  21.837  0.00  0.00    +0.112 C 
BRANCH  13   4
ATOM      3  O   UNL     1     -11.584  11.739  23.469  0.00  0.00    -0.270 OA
ATOM      4  N   UNL     1     -13.199  10.087  23.259  0.00  0.00    -0.311 N 
ATOM     19  C   UNL     1     -12.323  10.900  23.977  0.00  0.00    +0.244 C 
ATOM     29  H   UNL     1     -13.845   9.483  23.757  0.00  0.00    +0.149 HD
BRANCH  19  20
ATOM      1  F   UNL     1     -14.594  10.358  28.243  0.00  0.00    -0.205 F 
ATOM     20  C   UNL     1     -12.289  10.697  25.448  0.00  0.00    +0.039 A 
ATOM     22  C   UNL     1     -13.481  10.622  26.169  0.00  0.00    +0.051 A 
ATOM     23  C   UNL     1     -11.066  10.581  26.108  0.00  0.00    +0.013 A 
ATOM     25  C   UNL     1     -13.450  10.431  27.550  0.00  0.00    +0.124 A 
ATOM     26  C   UNL     1     -11.035  10.391  27.490  0.00  0.00    +0.004 A 
ATOM     27  C   UNL     1     -12.226  10.316  28.211  0.00  0.00    +0.038 A 
ENDBRANCH  19  20
ENDBRANCH  13   4
ENDBRANCH   7  13
BRANCH   9  14
ATOM     14  C   UNL     1     -12.494   8.758  17.282  0.00  0.00    +0.103 C 
BRANCH  14  18
ATOM      2  O   UNL     1     -10.799   8.695  15.556  0.00  0.00    -0.276 OA
ATOM      5  N   UNL     1     -12.958   7.991  15.065  0.00  0.00    -0.304 N 
ATOM     18  C   UNL     1     -11.962   8.490  15.891  0.00  0.00    +0.214 C 
ATOM     30  H   UNL     1     -13.889   7.841  15.445  0.00  0.00    +0.150 HD
BRANCH   5  21
ATOM     21  C   UNL     1     -12.735   7.646  13.680  0.00  0.00    +0.193 C 
BRANCH  21  24
ATOM     24  C   UNL     1     -13.886   6.935  13.123  0.00  0.00    -0.087 C 
ATOM     28  C   UNL     1     -14.831   6.355  12.664  0.00  0.00    +0.005 C 
ENDBRANCH  21  24
ENDBRANCH   5  21
ENDBRANCH  14  18
ENDBRANCH   9  14
TORSDOF 8
ENDMDL
MODEL 6
REMARK VINA RESULT:      -6.0     23.700     26.232
REMARK  Name = 38028701
REMARK  11 active torsions:
REMARK  status: ('A' for Active; 'I' for Inactive)
REMARK    1  A    between atoms: N_4  and  C_13
REMARK    2  A    between atoms: N_5  and  C_21
REMARK    3  A    between atoms: C_6  and  C_10
REMARK    4  A    between atoms: C_7  and  C_13
REMARK    5  A    between atoms: C_9  and  C_14
REMARK    6  A    between atoms: C_10  and  C_15
REMARK    7  A    between atoms: C_10  and  C_16
REMARK    8  A    between atoms: C_11  and  C_17
REMARK    9  A    between atoms: C_14  and  C_18
REMARK   10  A    between atoms: C_19  and  C_20
REMARK   11  A    between atoms: C_21  and  C_24
REMARK                            x       y       z     vdW  Elec       q    Type
REMARK                         _______ _______ _______ _____ _____    ______ ____
ROOT
ATOM      6  C   UNL     1       9.118   8.258   5.853  0.00  0.00    +0.000 C 
ATOM      7  C   UNL     1       8.803   8.281   7.370  0.00  0.00    +0.032 C 
ATOM      8  C   UNL     1       8.714   6.908   5.242  0.00  0.00    +0.012 C 
ATOM      9  C   UNL     1       9.442   5.725   5.909  0.00  0.00    +0.023 C 
ATOM     11  C   UNL     1       9.404   5.821   7.420  0.00  0.00    -0.073 C 
ATOM     12  C   UNL     1       9.103   6.969   8.056  0.00  0.00    -0.022 C 
ATOM     17  C   UNL     1       9.675   4.557   8.186  0.00  0.00    +0.039 C 
ENDROOT
BRANCH   6  10
ATOM     10  C   UNL     1       8.414   9.396   5.109  0.00  0.00    -0.013 C 
ATOM     15  C   UNL     1       9.436  10.327   4.466  0.00  0.00    +0.007 C 
ATOM     16  C   UNL     1       7.459   8.835   4.060  0.00  0.00    +0.007 C 
ENDBRANCH   6  10
BRANCH   7  13
ATOM     13  C   UNL     1       9.561   9.411   8.076  0.00  0.00    +0.112 C 
BRANCH  13   4
ATOM      3  O   UNL     1      11.192  11.657   7.343  0.00  0.00    -0.270 OA
ATOM      4  N   UNL     1      10.949   9.383   7.734  0.00  0.00    -0.311 N 
ATOM     19  C   UNL     1      11.668  10.526   7.387  0.00  0.00    +0.244 C 
ATOM     29  H   UNL     1      11.433   8.498   7.839  0.00  0.00    +0.149 HD
BRANCH  19  20
ATOM      1  F   UNL     1      15.334   7.651   5.993  0.00  0.00    -0.205 F 
ATOM     20  C   UNL     1      13.097  10.325   7.033  0.00  0.00    +0.039 A 
ATOM     22  C   UNL     1      13.554   9.057   6.673  0.00  0.00    +0.051 A 
ATOM     23  C   UNL     1      13.980  11.404   7.059  0.00  0.00    +0.013 A 
ATOM     25  C   UNL     1      14.895   8.868   6.339  0.00  0.00    +0.124 A 
ATOM     26  C   UNL     1      15.322  11.214   6.727  0.00  0.00    +0.004 A 
ATOM     27  C   UNL     1      15.779   9.947   6.366  0.00  0.00    +0.038 A 
ENDBRANCH  19  20
ENDBRANCH  13   4
ENDBRANCH   7  13
BRANCH   9  14
ATOM     14  C   UNL     1      10.884   5.607   5.402  0.00  0.00    +0.103 C 
BRANCH  14  18
ATOM      2  O   UNL     1      10.122   4.493   3.393  0.00  0.00    -0.276 OA
ATOM      5  N   UNL     1      12.037   5.807   3.318  0.00  0.00    -0.304 N 
ATOM     18  C   UNL     1      10.943   5.225   3.940  0.00  0.00    +0.214 C 
ATOM     30  H   UNL     1      12.650   6.412   3.857  0.00  0.00    +0.150 HD
BRANCH   5  21
ATOM     21  C   UNL     1      12.345   5.614   1.919  0.00  0.00    +0.193 C 
BRANCH  21  24
ATOM     24  C   UNL     1      13.065   4.358   1.707  0.00  0.00    -0.087 C 
ATOM     28  C   UNL     1      13.656   3.329   1.529  0.00  0.00    +0.005 C 
ENDBRANCH  21  24
ENDBRANCH   5  21
ENDBRANCH  14  18
ENDBRANCH   9  14
TORSDOF 8
ENDMDL
MODEL 7
REMARK VINA RESULT:      -6.0     24.220     26.782
REMARK  Name = 38028701
REMARK  11 active torsions:
REMARK  status: ('A' for Active; 'I' for Inactive)
REMARK    1  A    between atoms: N_4  and  C_13
REMARK    2  A    between atoms: N_5  and  C_21
REMARK    3  A    between atoms: C_6  and  C_10
REMARK    4  A    between atoms: C_7  and  C_13
REMARK    5  A    between atoms: C_9  and  C_14
REMARK    6  A    between atoms: C_10  and  C_15
REMARK    7  A    between atoms: C_10  and  C_16
REMARK    8  A    between atoms: C_11  and  C_17
REMARK    9  A    between atoms: C_14  and  C_18
REMARK   10  A    between atoms: C_19  and  C_20
REMARK   11  A    between atoms: C_21  and  C_24
REMARK                            x       y       z     vdW  Elec       q    Type
REMARK                         _______ _______ _______ _____ _____    ______ ____
ROOT
ATOM      6  C   UNL     1      12.561   4.534   1.978  0.00  0.00    +0.000 C 
ATOM      7  C   UNL     1      12.318   5.639   0.919  0.00  0.00    +0.032 C 
ATOM      8  C   UNL     1      11.224   4.028   2.542  0.00  0.00    +0.012 C 
ATOM      9  C   UNL     1      10.402   5.156   3.194  0.00  0.00    +0.023 C 
ATOM     11  C   UNL     1      10.342   6.389   2.315  0.00  0.00    -0.073 C 
ATOM     12  C   UNL     1      11.198   6.581   1.295  0.00  0.00    -0.022 C 
ATOM     17  C   UNL     1       9.246   7.376   2.607  0.00  0.00    +0.039 C 
ENDROOT
BRANCH   6  10
ATOM     10  C   UNL     1      13.359   3.360   1.402  0.00  0.00    -0.013 C 
ATOM     15  C   UNL     1      13.104   3.226  -0.095  0.00  0.00    +0.007 C 
ATOM     16  C   UNL     1      14.847   3.540   1.683  0.00  0.00    +0.007 C 
ENDBRANCH   6  10
BRANCH   7  13
ATOM     13  C   UNL     1      13.595   6.444   0.656  0.00  0.00    +0.112 C 
BRANCH  13   4
ATOM      3  O   UNL     1      16.358   7.022   1.180  0.00  0.00    -0.270 OA
ATOM      4  N   UNL     1      14.147   6.935   1.879  0.00  0.00    -0.311 N 
ATOM     19  C   UNL     1      15.508   7.190   2.050  0.00  0.00    +0.244 C 
ATOM     29  H   UNL     1      13.494   7.187   2.613  0.00  0.00    +0.149 HD
BRANCH  19  20
ATOM      1  F   UNL     1      18.718   9.404   4.955  0.00  0.00    -0.205 F 
ATOM     20  C   UNL     1      15.926   7.674   3.390  0.00  0.00    +0.039 A 
ATOM     22  C   UNL     1      17.150   8.324   3.547  0.00  0.00    +0.051 A 
ATOM     23  C   UNL     1      15.094   7.479   4.492  0.00  0.00    +0.013 A 
ATOM     25  C   UNL     1      17.543   8.779   4.805  0.00  0.00    +0.124 A 
ATOM     26  C   UNL     1      15.487   7.933   5.752  0.00  0.00    +0.004 A 
ATOM     27  C   UNL     1      16.711   8.584   5.908  0.00  0.00    +0.038 A 
ENDBRANCH  19  20
ENDBRANCH  13   4
ENDBRANCH   7  13
BRANCH   9  14
ATOM     14  C   UNL     1      10.943   5.501   4.586  0.00  0.00    +0.103 C 
BRANCH  14  18
ATOM      2  O   UNL     1       8.682   5.278   5.419  0.00  0.00    -0.276 OA
ATOM      5  N   UNL     1      10.298   6.285   6.751  0.00  0.00    -0.304 N 
ATOM     18  C   UNL     1       9.835   5.658   5.604  0.00  0.00    +0.214 C 
ATOM     30  H   UNL     1      11.278   6.547   6.811  0.00  0.00    +0.150 HD
BRANCH   5  21
ATOM     21  C   UNL     1       9.457   6.568   7.890  0.00  0.00    +0.193 C 
BRANCH  21  24
ATOM     24  C   UNL     1       9.414   5.432   8.809  0.00  0.00    -0.087 C 
ATOM     28  C   UNL     1       9.380   4.497   9.561  0.00  0.00    +0.005 C 
ENDBRANCH  21  24
ENDBRANCH   5  21
ENDBRANCH  14  18
ENDBRANCH   9  14
TORSDOF 8
ENDMDL
MODEL 8
REMARK VINA RESULT:      -6.0      3.129      8.762
REMARK  Name = 38028701
REMARK  11 active torsions:
REMARK  status: ('A' for Active; 'I' for Inactive)
REMARK    1  A    between atoms: N_4  and  C_13
REMARK    2  A    between atoms: N_5  and  C_21
REMARK    3  A    between atoms: C_6  and  C_10
REMARK    4  A    between atoms: C_7  and  C_13
REMARK    5  A    between atoms: C_9  and  C_14
REMARK    6  A    between atoms: C_10  and  C_15
REMARK    7  A    between atoms: C_10  and  C_16
REMARK    8  A    between atoms: C_11  and  C_17
REMARK    9  A    between atoms: C_14  and  C_18
REMARK   10  A    between atoms: C_19  and  C_20
REMARK   11  A    between atoms: C_21  and  C_24
REMARK                            x       y       z     vdW  Elec       q    Type
REMARK                         _______ _______ _______ _____ _____    ______ ____
ROOT
ATOM      6  C   UNL     1      -5.229 -10.498  10.470  0.00  0.00    +0.000 C 
ATOM      7  C   UNL     1      -4.703  -9.456   9.452  0.00  0.00    +0.032 C 
ATOM      8  C   UNL     1      -4.698 -10.187  11.878  0.00  0.00    +0.012 C 
ATOM      9  C   UNL     1      -3.158 -10.185  11.933  0.00  0.00    +0.023 C 
ATOM     11  C   UNL     1      -2.555  -9.391  10.792  0.00  0.00    -0.073 C 
ATOM     12  C   UNL     1      -3.265  -9.062   9.697  0.00  0.00    -0.022 C 
ATOM     17  C   UNL     1      -1.131  -8.943  10.958  0.00  0.00    +0.039 C 
ENDROOT
BRANCH   6  10
ATOM     10  C   UNL     1      -6.760 -10.549  10.494  0.00  0.00    -0.013 C 
ATOM     15  C   UNL     1      -7.241 -11.723  11.340  0.00  0.00    +0.007 C 
ATOM     16  C   UNL     1      -7.328  -9.235  11.018  0.00  0.00    +0.007 C 
ENDBRANCH   6  10
BRANCH   7  13
ATOM     13  C   UNL     1      -4.856  -9.962   8.013  0.00  0.00    +0.112 C 
BRANCH  13   4
ATOM      3  O   UNL     1      -5.934 -10.569   5.422  0.00  0.00    -0.270 OA
ATOM      4  N   UNL     1      -5.891  -9.251   7.332  0.00  0.00    -0.311 N 
ATOM     19  C   UNL     1      -6.358  -9.614   6.069  0.00  0.00    +0.244 C 
ATOM     29  H   UNL     1      -6.355  -8.507   7.843  0.00  0.00    +0.149 HD
BRANCH  19  20
ATOM      1  F   UNL     1     -10.057  -6.499   6.578  0.00  0.00    -0.205 F 
ATOM     20  C   UNL     1      -7.421  -8.757   5.486  0.00  0.00    +0.039 A 
ATOM     22  C   UNL     1      -8.257  -8.016   6.322  0.00  0.00    +0.051 A 
ATOM     23  C   UNL     1      -7.584  -8.691   4.102  0.00  0.00    +0.013 A 
ATOM     25  C   UNL     1      -9.255  -7.210   5.775  0.00  0.00    +0.124 A 
ATOM     26  C   UNL     1      -8.583  -7.886   3.555  0.00  0.00    +0.004 A 
ATOM     27  C   UNL     1      -9.418  -7.145   4.391  0.00  0.00    +0.038 A 
ENDBRANCH  19  20
ENDBRANCH  13   4
ENDBRANCH   7  13
BRANCH   9  14
ATOM     14  C   UNL     1      -2.604 -11.614  11.959  0.00  0.00    +0.103 C 
BRANCH  14  18
ATOM      2  O   UNL     1      -1.524 -13.067  13.565  0.00  0.00    -0.276 OA
ATOM      5  N   UNL     1      -2.160 -10.925  14.205  0.00  0.00    -0.304 N 
ATOM     18  C   UNL     1      -2.031 -11.977  13.311  0.00  0.00    +0.214 C 
ATOM     30  H   UNL     1      -2.582 -10.056  13.890  0.00  0.00    +0.150 HD
BRANCH   5  21
ATOM     21  C   UNL     1      -1.701 -10.991  15.573  0.00  0.00    +0.193 C 
BRANCH  21  24
ATOM     24  C   UNL     1      -2.827 -11.050  16.505  0.00  0.00    -0.087 C 
ATOM     28  C   UNL     1      -3.753 -11.095  17.267  0.00  0.00    +0.005 C 
ENDBRANCH  21  24
ENDBRANCH   5  21
ENDBRANCH  14  18
ENDBRANCH   9  14
TORSDOF 8
ENDMDL
MODEL 9
REMARK VINA RESULT:      -5.9      4.014      7.069
REMARK  Name = 38028701
REMARK  11 active torsions:
REMARK  status: ('A' for Active; 'I' for Inactive)
REMARK    1  A    between atoms: N_4  and  C_13
REMARK    2  A    between atoms: N_5  and  C_21
REMARK    3  A    between atoms: C_6  and  C_10
REMARK    4  A    between atoms: C_7  and  C_13
REMARK    5  A    between atoms: C_9  and  C_14
REMARK    6  A    between atoms: C_10  and  C_15
REMARK    7  A    between atoms: C_10  and  C_16
REMARK    8  A    between atoms: C_11  and  C_17
REMARK    9  A    between atoms: C_14  and  C_18
REMARK   10  A    between atoms: C_19  and  C_20
REMARK   11  A    between atoms: C_21  and  C_24
REMARK                            x       y       z     vdW  Elec       q    Type
REMARK                         _______ _______ _______ _____ _____    ______ ____
ROOT
ATOM      6  C   UNL     1      -6.054 -10.422  15.664  0.00  0.00    +0.000 C 
ATOM      7  C   UNL     1      -6.799 -10.568  17.014  0.00  0.00    +0.032 C 
ATOM      8  C   UNL     1      -5.058 -11.576  15.474  0.00  0.00    +0.012 C 
ATOM      9  C   UNL     1      -4.013 -11.637  16.604  0.00  0.00    +0.023 C 
ATOM     11  C   UNL     1      -4.655 -11.516  17.971  0.00  0.00    -0.073 C 
ATOM     12  C   UNL     1      -5.906 -11.049  18.134  0.00  0.00    -0.022 C 
ATOM     17  C   UNL     1      -3.843 -11.988  19.144  0.00  0.00    +0.039 C 
ENDROOT
BRANCH   6  10
ATOM     10  C   UNL     1      -7.024 -10.374  14.480  0.00  0.00    -0.013 C 
ATOM     15  C   UNL     1      -6.257 -10.350  13.163  0.00  0.00    +0.007 C 
ATOM     16  C   UNL     1      -7.980 -11.561  14.527  0.00  0.00    +0.007 C 
ENDBRANCH   6  10
BRANCH   7  13
ATOM     13  C   UNL     1      -7.466  -9.250  17.423  0.00  0.00    +0.112 C 
BRANCH  13   4
ATOM      3  O   UNL     1     -10.071  -8.647  16.376  0.00  0.00    -0.270 OA
ATOM      4  N   UNL     1      -8.720  -9.493  18.064  0.00  0.00    -0.311 N 
ATOM     19  C   UNL     1      -9.945  -9.167  17.482  0.00  0.00    +0.244 C 
ATOM     29  H   UNL     1      -8.701 -10.006  18.939  0.00  0.00    +0.149 HD
BRANCH  19  20
ATOM      1  F   UNL     1     -14.779  -9.452  17.934  0.00  0.00    -0.205 F 
ATOM     20  C   UNL     1     -11.158  -9.462  18.288  0.00  0.00    +0.039 A 
ATOM     22  C   UNL     1     -12.424  -9.315  17.722  0.00  0.00    +0.051 A 
ATOM     23  C   UNL     1     -11.030  -9.886  19.610  0.00  0.00    +0.013 A 
ATOM     25  C   UNL     1     -13.563  -9.592  18.477  0.00  0.00    +0.124 A 
ATOM     26  C   UNL     1     -12.169 -10.162  20.367  0.00  0.00    +0.004 A 
ATOM     27  C   UNL     1     -13.436 -10.015  19.801  0.00  0.00    +0.038 A 
ENDBRANCH  19  20
ENDBRANCH  13   4
ENDBRANCH   7  13
BRANCH   9  14
ATOM     14  C   UNL     1      -2.928 -10.572  16.411  0.00  0.00    +0.103 C 
BRANCH  14  18
ATOM      2  O   UNL     1      -1.063 -11.599  15.260  0.00  0.00    -0.276 OA
ATOM      5  N   UNL     1      -2.502 -10.202  14.088  0.00  0.00    -0.304 N 
ATOM     18  C   UNL     1      -2.048 -10.866  15.216  0.00  0.00    +0.214 C 
ATOM     30  H   UNL     1      -3.340  -9.630  14.153  0.00  0.00    +0.150 HD
BRANCH   5  21
ATOM     21  C   UNL     1      -1.854 -10.297  12.801  0.00  0.00    +0.193 C 
BRANCH  21  24
ATOM     24  C   UNL     1      -2.653 -11.085  11.864  0.00  0.00    -0.087 C 
ATOM     28  C   UNL     1      -3.309 -11.736  11.098  0.00  0.00    +0.005 C 
ENDBRANCH  21  24
ENDBRANCH   5  21
ENDBRANCH  14  18
ENDBRANCH   9  14
TORSDOF 8
ENDMDL
MODEL 10
REMARK VINA RESULT:      -5.7     23.769     27.030
REMARK  Name = 38028701
REMARK  11 active torsions:
REMARK  status: ('A' for Active; 'I' for Inactive)
REMARK    1  A    between atoms: N_4  and  C_13
REMARK    2  A    between atoms: N_5  and  C_21
REMARK    3  A    between atoms: C_6  and  C_10
REMARK    4  A    between atoms: C_7  and  C_13
REMARK    5  A    between atoms: C_9  and  C_14
REMARK    6  A    between atoms: C_10  and  C_15
REMARK    7  A    between atoms: C_10  and  C_16
REMARK    8  A    between atoms: C_11  and  C_17
REMARK    9  A    between atoms: C_14  and  C_18
REMARK   10  A    between atoms: C_19  and  C_20
REMARK   11  A    between atoms: C_21  and  C_24
REMARK                            x       y       z     vdW  Elec       q    Type
REMARK                         _______ _______ _______ _____ _____    ______ ____
ROOT
ATOM      6  C   UNL     1     -13.099  12.977  26.182  0.00  0.00    +0.000 C 
ATOM      7  C   UNL     1     -12.414  12.212  25.023  0.00  0.00    +0.032 C 
ATOM      8  C   UNL     1     -12.130  13.142  27.363  0.00  0.00    +0.012 C 
ATOM      9  C   UNL     1     -11.632  11.787  27.900  0.00  0.00    +0.023 C 
ATOM     11  C   UNL     1     -11.185  10.868  26.783  0.00  0.00    -0.073 C 
ATOM     12  C   UNL     1     -11.533  11.081  25.500  0.00  0.00    -0.022 C 
ATOM     17  C   UNL     1     -10.291   9.722  27.165  0.00  0.00    +0.039 C 
ENDROOT
BRANCH   6  10
ATOM     10  C   UNL     1     -13.608  14.351  25.734  0.00  0.00    -0.013 C 
ATOM     15  C   UNL     1     -14.297  15.067  26.890  0.00  0.00    +0.007 C 
ATOM     16  C   UNL     1     -12.460  15.191  25.184  0.00  0.00    +0.007 C 
ENDBRANCH   6  10
BRANCH   7  13
ATOM     13  C   UNL     1     -13.448  11.669  24.030  0.00  0.00    +0.112 C 
BRANCH  13   4
ATOM      3  O   UNL     1     -13.946  11.357  21.220  0.00  0.00    -0.270 OA
ATOM      4  N   UNL     1     -12.857  10.700  23.161  0.00  0.00    -0.311 N 
ATOM     19  C   UNL     1     -13.157  10.617  21.801  0.00  0.00    +0.244 C 
ATOM     29  H   UNL     1     -12.125  10.115  23.550  0.00  0.00    +0.149 HD
BRANCH  19  20
ATOM      1  F   UNL     1      -9.878   9.150  18.523  0.00  0.00    -0.205 F 
ATOM     20  C   UNL     1     -12.477   9.538  21.040  0.00  0.00    +0.039 A 
ATOM     22  C   UNL     1     -11.477   9.857  20.120  0.00  0.00    +0.051 A 
ATOM     23  C   UNL     1     -12.837   8.207  21.245  0.00  0.00    +0.013 A 
ATOM     25  C   UNL     1     -10.838   8.844  19.405  0.00  0.00    +0.124 A 
ATOM     26  C   UNL     1     -12.198   7.193  20.529  0.00  0.00    +0.004 A 
ATOM     27  C   UNL     1     -11.199   7.512  19.610  0.00  0.00    +0.038 A 
ENDBRANCH  19  20
ENDBRANCH  13   4
ENDBRANCH   7  13
BRANCH   9  14
ATOM     14  C   UNL     1     -12.697  11.113  28.773  0.00  0.00    +0.103 C 
BRANCH  14  18
ATOM      2  O   UNL     1     -12.222  11.787  31.048  0.00  0.00    -0.276 OA
ATOM      5  N   UNL     1     -11.787   9.602  30.387  0.00  0.00    -0.304 N 
ATOM     18  C   UNL     1     -12.220  10.905  30.193  0.00  0.00    +0.214 C 
ATOM     30  H   UNL     1     -11.842   8.942  29.616  0.00  0.00    +0.150 HD
BRANCH   5  21
ATOM     21  C   UNL     1     -11.275   9.120  31.649  0.00  0.00    +0.193 C 
BRANCH  21  24
ATOM     24  C   UNL     1     -12.253   8.265  32.322  0.00  0.00    -0.087 C 
ATOM     28  C   UNL     1     -13.056   7.567  32.876  0.00  0.00    +0.005 C 
ENDBRANCH  21  24
ENDBRANCH   5  21
ENDBRANCH  14  18
ENDBRANCH   9  14
TORSDOF 8
ENDMDL
