MODEL 1
REMARK VINA RESULT:      -6.5      0.000      0.000
REMARK  Name = 7161541
REMARK  5 active torsions:
REMARK  status: ('A' for Active; 'I' for Inactive)
REMARK    1  A    between atoms: O_3  and  C_19
REMARK    2  A    between atoms: O_3  and  C_24
REMARK    3  A    between atoms: C_8  and  C_14
REMARK    4  A    between atoms: C_15  and  C_19
REMARK    5  A    between atoms: C_20  and  C_21
REMARK                            x       y       z     vdW  Elec       q    Type
REMARK                         _______ _______ _______ _____ _____    ______ ____
ROOT
ATOM      2  O   UNL     1      -9.505  -7.970  17.488  0.00  0.00    -0.275 OA
ATOM      5  O   UNL     1      -5.011 -13.471  16.513  0.00  0.00    -0.270 OA
ATOM      6  N   UNL     1      -8.405 -10.016  17.332  0.00  0.00    -0.285 N 
ATOM      7  N   UNL     1      -6.368 -11.604  16.146  0.00  0.00    -0.294 N 
ATOM     14  C   UNL     1      -9.500  -9.197  17.631  0.00  0.00    +0.219 C 
ATOM     15  C   UNL     1      -8.328 -11.453  17.652  0.00  0.00    +0.202 C 
ATOM     16  C   UNL     1      -7.178  -9.394  16.814  0.00  0.00    +0.127 C 
ATOM     17  C   UNL     1      -7.597 -12.265  16.581  0.00  0.00    +0.142 C 
ATOM     18  C   UNL     1      -6.557 -10.222  15.698  0.00  0.00    +0.127 C 
ATOM     20  C   UNL     1      -5.164 -12.311  16.135  0.00  0.00    +0.247 C 
ENDROOT
BRANCH  20  21
ATOM      1  F   UNL     1      -2.323 -10.820  12.505  0.00  0.00    -0.205 F 
ATOM     21  C   UNL     1      -3.961 -11.621  15.649  0.00  0.00    +0.040 A 
ATOM     22  C   UNL     1      -3.710 -11.548  14.281  0.00  0.00    +0.051 A 
ATOM     23  C   UNL     1      -3.079 -11.044  16.559  0.00  0.00    +0.013 A 
ATOM     25  C   UNL     1      -2.569 -10.892  13.819  0.00  0.00    +0.124 A 
ATOM     26  C   UNL     1      -1.938 -10.388  16.097  0.00  0.00    +0.004 A 
ATOM     27  C   UNL     1      -1.682 -10.313  14.727  0.00  0.00    +0.038 A 
ENDBRANCH  20  21
BRANCH  14   8
ATOM      8  C   UNL     1     -10.732  -9.878  18.146  0.00  0.00    +0.075 C 
ATOM      9  C   UNL     1     -10.735  -9.863  19.676  0.00  0.00    +0.013 C 
ATOM     10  C   UNL     1     -11.980  -9.198  17.577  0.00  0.00    +0.013 C 
ATOM     11  C   UNL     1     -12.018 -10.465  20.244  0.00  0.00    +0.001 C 
ATOM     12  C   UNL     1     -13.260  -9.801  18.149  0.00  0.00    +0.001 C 
ATOM     13  C   UNL     1     -13.259  -9.781  19.675  0.00  0.00    +0.000 C 
ENDBRANCH  14   8
BRANCH  15  19
ATOM      4  O   UNL     1      -7.216 -10.595  19.611  0.00  0.00    -0.249 OA
ATOM     19  C   UNL     1      -7.641 -11.555  18.983  0.00  0.00    +0.329 C 
BRANCH  19   3
ATOM      3  O   UNL     1      -7.576 -12.864  19.362  0.00  0.00    -0.467 OA
ATOM     24  C   UNL     1      -8.725 -13.361  20.055  0.00  0.00    +0.280 C 
ENDBRANCH  19   3
ENDBRANCH  15  19
TORSDOF 4
ENDMDL
MODEL 2
REMARK VINA RESULT:      -6.3      3.216      7.715
REMARK  Name = 7161541
REMARK  5 active torsions:
REMARK  status: ('A' for Active; 'I' for Inactive)
REMARK    1  A    between atoms: O_3  and  C_19
REMARK    2  A    between atoms: O_3  and  C_24
REMARK    3  A    between atoms: C_8  and  C_14
REMARK    4  A    between atoms: C_15  and  C_19
REMARK    5  A    between atoms: C_20  and  C_21
REMARK                            x       y       z     vdW  Elec       q    Type
REMARK                         _______ _______ _______ _____ _____    ______ ____
ROOT
ATOM      2  O   UNL     1      -6.717 -11.769  12.455  0.00  0.00    -0.275 OA
ATOM      5  O   UNL     1      -6.153 -10.121  19.410  0.00  0.00    -0.270 OA
ATOM      6  N   UNL     1      -6.182 -10.956  14.569  0.00  0.00    -0.285 N 
ATOM      7  N   UNL     1      -6.978 -10.401  17.241  0.00  0.00    -0.294 N 
ATOM     14  C   UNL     1      -6.024 -11.051  13.182  0.00  0.00    +0.219 C 
ATOM     15  C   UNL     1      -5.260 -10.234  15.465  0.00  0.00    +0.202 C 
ATOM     16  C   UNL     1      -7.235 -11.751  15.217  0.00  0.00    +0.127 C 
ATOM     17  C   UNL     1      -5.976  -9.535  16.623  0.00  0.00    +0.142 C 
ATOM     18  C   UNL     1      -7.953 -10.958  16.300  0.00  0.00    +0.127 C 
ATOM     20  C   UNL     1      -6.975 -10.590  18.625  0.00  0.00    +0.247 C 
ENDROOT
BRANCH  20  21
ATOM      1  F   UNL     1     -11.445 -11.144  20.408  0.00  0.00    -0.205 F 
ATOM     21  C   UNL     1      -8.026 -11.434  19.210  0.00  0.00    +0.040 A 
ATOM     22  C   UNL     1      -9.259 -10.876  19.536  0.00  0.00    +0.051 A 
ATOM     23  C   UNL     1      -7.783 -12.787  19.433  0.00  0.00    +0.013 A 
ATOM     25  C   UNL     1     -10.258 -11.677  20.091  0.00  0.00    +0.124 A 
ATOM     26  C   UNL     1      -8.782 -13.588  19.987  0.00  0.00    +0.004 A 
ATOM     27  C   UNL     1     -10.019 -13.033  20.317  0.00  0.00    +0.038 A 
ENDBRANCH  20  21
BRANCH  14   8
ATOM      8  C   UNL     1      -4.944 -10.213  12.566  0.00  0.00    +0.075 C 
ATOM      9  C   UNL     1      -3.726 -11.082  12.247  0.00  0.00    +0.013 C 
ATOM     10  C   UNL     1      -5.478  -9.515  11.313  0.00  0.00    +0.013 C 
ATOM     11  C   UNL     1      -2.637 -10.287  11.533  0.00  0.00    +0.001 C 
ATOM     12  C   UNL     1      -4.385  -8.723  10.600  0.00  0.00    +0.001 C 
ATOM     13  C   UNL     1      -3.174  -9.596  10.282  0.00  0.00    +0.000 C 
ENDBRANCH  14   8
BRANCH  15  19
ATOM      4  O   UNL     1      -4.377 -12.454  15.783  0.00  0.00    -0.249 OA
ATOM     19  C   UNL     1      -4.272 -11.248  15.964  0.00  0.00    +0.329 C 
BRANCH  19   3
ATOM      3  O   UNL     1      -3.266 -10.614  16.632  0.00  0.00    -0.467 OA
ATOM     24  C   UNL     1      -2.025 -10.518  15.926  0.00  0.00    +0.280 C 
ENDBRANCH  19   3
ENDBRANCH  15  19
TORSDOF 4
ENDMDL
MODEL 3
REMARK VINA RESULT:      -6.3     29.123     30.704
REMARK  Name = 7161541
REMARK  5 active torsions:
REMARK  status: ('A' for Active; 'I' for Inactive)
REMARK    1  A    between atoms: O_3  and  C_19
REMARK    2  A    between atoms: O_3  and  C_24
REMARK    3  A    between atoms: C_8  and  C_14
REMARK    4  A    between atoms: C_15  and  C_19
REMARK    5  A    between atoms: C_20  and  C_21
REMARK                            x       y       z     vdW  Elec       q    Type
REMARK                         _______ _______ _______ _____ _____    ______ ____
ROOT
ATOM      2  O   UNL     1      10.882   9.880  22.735  0.00  0.00    -0.275 OA
ATOM      5  O   UNL     1      17.817  10.100  20.926  0.00  0.00    -0.270 OA
ATOM      6  N   UNL     1      13.118  10.385  22.332  0.00  0.00    -0.285 N 
ATOM      7  N   UNL     1      15.780   9.487  21.894  0.00  0.00    -0.294 N 
ATOM     14  C   UNL     1      11.831  10.667  22.802  0.00  0.00    +0.219 C 
ATOM     15  C   UNL     1      14.212  11.370  22.256  0.00  0.00    +0.202 C 
ATOM     16  C   UNL     1      13.375   9.074  21.718  0.00  0.00    +0.127 C 
ATOM     17  C   UNL     1      15.583  10.767  22.572  0.00  0.00    +0.142 C 
ATOM     18  C   UNL     1      14.720   8.506  22.145  0.00  0.00    +0.127 C 
ATOM     20  C   UNL     1      16.931   9.272  21.134  0.00  0.00    +0.247 C 
ENDROOT
BRANCH  20  21
ATOM      1  F   UNL     1      19.525   5.241  20.432  0.00  0.00    -0.205 F 
ATOM     21  C   UNL     1      17.110   7.956  20.506  0.00  0.00    +0.040 A 
ATOM     22  C   UNL     1      18.255   7.211  20.774  0.00  0.00    +0.051 A 
ATOM     23  C   UNL     1      16.132   7.461  19.647  0.00  0.00    +0.013 A 
ATOM     25  C   UNL     1      18.424   5.960  20.178  0.00  0.00    +0.124 A 
ATOM     26  C   UNL     1      16.301   6.210  19.052  0.00  0.00    +0.004 A 
ATOM     27  C   UNL     1      17.447   5.461  19.317  0.00  0.00    +0.038 A 
ENDBRANCH  20  21
BRANCH  14   8
ATOM      8  C   UNL     1      11.622  12.012  23.431  0.00  0.00    +0.075 C 
ATOM      9  C   UNL     1      10.821  12.910  22.486  0.00  0.00    +0.013 C 
ATOM     10  C   UNL     1      10.919  11.853  24.781  0.00  0.00    +0.013 C 
ATOM     11  C   UNL     1      10.504  14.260  23.124  0.00  0.00    +0.001 C 
ATOM     12  C   UNL     1      10.602  13.205  25.415  0.00  0.00    +0.001 C 
ATOM     13  C   UNL     1       9.801  14.096  24.469  0.00  0.00    +0.000 C 
ENDBRANCH  14   8
BRANCH  15  19
ATOM      4  O   UNL     1      13.208  11.860  20.121  0.00  0.00    -0.249 OA
ATOM     19  C   UNL     1      14.172  11.944  20.870  0.00  0.00    +0.329 C 
BRANCH  19   3
ATOM      3  O   UNL     1      15.359  12.558  20.596  0.00  0.00    -0.467 OA
ATOM     24  C   UNL     1      15.807  12.453  19.241  0.00  0.00    +0.280 C 
ENDBRANCH  19   3
ENDBRANCH  15  19
TORSDOF 4
ENDMDL
MODEL 4
REMARK VINA RESULT:      -6.1     20.075     22.694
REMARK  Name = 7161541
REMARK  5 active torsions:
REMARK  status: ('A' for Active; 'I' for Inactive)
REMARK    1  A    between atoms: O_3  and  C_19
REMARK    2  A    between atoms: O_3  and  C_24
REMARK    3  A    between atoms: C_8  and  C_14
REMARK    4  A    between atoms: C_15  and  C_19
REMARK    5  A    between atoms: C_20  and  C_21
REMARK                            x       y       z     vdW  Elec       q    Type
REMARK                         _______ _______ _______ _____ _____    ______ ____
ROOT
ATOM      2  O   UNL     1     -10.517  13.952  17.751  0.00  0.00    -0.275 OA
ATOM      5  O   UNL     1     -11.244   6.851  18.417  0.00  0.00    -0.270 OA
ATOM      6  N   UNL     1     -10.364  11.631  17.702  0.00  0.00    -0.285 N 
ATOM      7  N   UNL     1     -10.968   9.122  18.894  0.00  0.00    -0.294 N 
ATOM     14  C   UNL     1      -9.940  12.925  17.383  0.00  0.00    +0.219 C 
ATOM     15  C   UNL     1      -9.783  10.400  17.135  0.00  0.00    +0.202 C 
ATOM     16  C   UNL     1     -11.569  11.465  18.528  0.00  0.00    +0.127 C 
ATOM     17  C   UNL     1      -9.721   9.249  18.142  0.00  0.00    +0.142 C 
ATOM     18  C   UNL     1     -11.398  10.357  19.556  0.00  0.00    +0.127 C 
ATOM     20  C   UNL     1     -11.609   7.884  18.975  0.00  0.00    +0.247 C 
ENDROOT
BRANCH  20  21
ATOM      1  F   UNL     1     -16.380   8.540  19.494  0.00  0.00    -0.205 F 
ATOM     21  C   UNL     1     -12.836   7.791  19.778  0.00  0.00    +0.040 A 
ATOM     22  C   UNL     1     -14.048   8.218  19.242  0.00  0.00    +0.051 A 
ATOM     23  C   UNL     1     -12.780   7.274  21.070  0.00  0.00    +0.013 A 
ATOM     25  C   UNL     1     -15.213   8.129  20.005  0.00  0.00    +0.124 A 
ATOM     26  C   UNL     1     -13.945   7.185  21.832  0.00  0.00    +0.004 A 
ATOM     27  C   UNL     1     -15.161   7.612  21.299  0.00  0.00    +0.038 A 
ENDBRANCH  20  21
BRANCH  14   8
ATOM      8  C   UNL     1      -8.700  13.043  16.548  0.00  0.00    +0.075 C 
ATOM      9  C   UNL     1      -9.041  13.660  15.190  0.00  0.00    +0.013 C 
ATOM     10  C   UNL     1      -7.648  13.871  17.291  0.00  0.00    +0.013 C 
ATOM     11  C   UNL     1      -7.792  13.885  14.342  0.00  0.00    +0.001 C 
ATOM     12  C   UNL     1      -6.402  14.094  16.439  0.00  0.00    +0.001 C 
ATOM     13  C   UNL     1      -6.748  14.713  15.087  0.00  0.00    +0.000 C 
ENDBRANCH  14   8
BRANCH  15  19
ATOM      4  O   UNL     1     -11.317  10.842  15.330  0.00  0.00    -0.249 OA
ATOM     19  C   UNL     1     -10.623  10.042  15.944  0.00  0.00    +0.329 C 
BRANCH  19   3
ATOM      3  O   UNL     1     -10.485   8.714  15.671  0.00  0.00    -0.467 OA
ATOM     24  C   UNL     1     -10.810   8.324  14.333  0.00  0.00    +0.280 C 
ENDBRANCH  19   3
ENDBRANCH  15  19
TORSDOF 4
ENDMDL
MODEL 5
REMARK VINA RESULT:      -5.9     26.487     29.323
REMARK  Name = 7161541
REMARK  5 active torsions:
REMARK  status: ('A' for Active; 'I' for Inactive)
REMARK    1  A    between atoms: O_3  and  C_19
REMARK    2  A    between atoms: O_3  and  C_24
REMARK    3  A    between atoms: C_8  and  C_14
REMARK    4  A    between atoms: C_15  and  C_19
REMARK    5  A    between atoms: C_20  and  C_21
REMARK                            x       y       z     vdW  Elec       q    Type
REMARK                         _______ _______ _______ _____ _____    ______ ____
ROOT
ATOM      2  O   UNL     1       8.796   7.313   3.422  0.00  0.00    -0.275 OA
ATOM      5  O   UNL     1      13.325   3.203  -0.320  0.00  0.00    -0.270 OA
ATOM      6  N   UNL     1      10.460   5.892   2.628  0.00  0.00    -0.285 N 
ATOM      7  N   UNL     1      11.385   4.103   0.622  0.00  0.00    -0.294 N 
ATOM     14  C   UNL     1       9.770   6.584   3.630  0.00  0.00    +0.219 C 
ATOM     15  C   UNL     1      11.717   5.153   2.841  0.00  0.00    +0.202 C 
ATOM     16  C   UNL     1      10.010   6.032   1.236  0.00  0.00    +0.127 C 
ATOM     17  C   UNL     1      11.809   3.876   2.002  0.00  0.00    +0.142 C 
ATOM     18  C   UNL     1      10.054   4.703   0.495  0.00  0.00    +0.127 C 
ATOM     20  C   UNL     1      12.208   3.706  -0.433  0.00  0.00    +0.247 C 
ENDROOT
BRANCH  20  21
ATOM      1  F   UNL     1       9.731   2.198  -4.313  0.00  0.00    -0.205 F 
ATOM     21  C   UNL     1      11.724   3.913  -1.804  0.00  0.00    +0.040 A 
ATOM     22  C   UNL     1      10.942   2.937  -2.417  0.00  0.00    +0.051 A 
ATOM     23  C   UNL     1      12.048   5.085  -2.483  0.00  0.00    +0.013 A 
ATOM     25  C   UNL     1      10.482   3.135  -3.720  0.00  0.00    +0.124 A 
ATOM     26  C   UNL     1      11.587   5.283  -3.785  0.00  0.00    +0.004 A 
ATOM     27  C   UNL     1      10.804   4.307  -4.403  0.00  0.00    +0.038 A 
ENDBRANCH  20  21
BRANCH  14   8
ATOM      8  C   UNL     1      10.259   6.401   5.036  0.00  0.00    +0.075 C 
ATOM      9  C   UNL     1      10.259   7.745   5.767  0.00  0.00    +0.013 C 
ATOM     10  C   UNL     1       9.390   5.369   5.760  0.00  0.00    +0.013 C 
ATOM     11  C   UNL     1      10.662   7.590   7.232  0.00  0.00    +0.001 C 
ATOM     12  C   UNL     1       9.795   5.220   7.224  0.00  0.00    +0.001 C 
ATOM     13  C   UNL     1       9.791   6.563   7.949  0.00  0.00    +0.000 C 
ENDBRANCH  14   8
BRANCH  15  19
ATOM      4  O   UNL     1      12.740   7.322   2.601  0.00  0.00    -0.249 OA
ATOM     19  C   UNL     1      12.830   6.105   2.512  0.00  0.00    +0.329 C 
BRANCH  19   3
ATOM      3  O   UNL     1      13.928   5.402   2.111  0.00  0.00    -0.467 OA
ATOM     24  C   UNL     1      14.798   6.086   1.205  0.00  0.00    +0.280 C 
ENDBRANCH  19   3
ENDBRANCH  15  19
TORSDOF 4
ENDMDL
MODEL 6
REMARK VINA RESULT:      -5.8      7.019      8.878
REMARK  Name = 7161541
REMARK  5 active torsions:
REMARK  status: ('A' for Active; 'I' for Inactive)
REMARK    1  A    between atoms: O_3  and  C_19
REMARK    2  A    between atoms: O_3  and  C_24
REMARK    3  A    between atoms: C_8  and  C_14
REMARK    4  A    between atoms: C_15  and  C_19
REMARK    5  A    between atoms: C_20  and  C_21
REMARK                            x       y       z     vdW  Elec       q    Type
REMARK                         _______ _______ _______ _____ _____    ______ ____
ROOT
ATOM      2  O   UNL     1      -9.100 -10.127   9.788  0.00  0.00    -0.275 OA
ATOM      5  O   UNL     1      -2.020  -9.423  10.669  0.00  0.00    -0.270 OA
ATOM      6  N   UNL     1      -6.842  -9.566   9.742  0.00  0.00    -0.285 N 
ATOM      7  N   UNL     1      -4.324  -9.484  11.058  0.00  0.00    -0.294 N 
ATOM     14  C   UNL     1      -8.175  -9.448   9.334  0.00  0.00    +0.219 C 
ATOM     15  C   UNL     1      -5.708  -8.882   9.095  0.00  0.00    +0.202 C 
ATOM     16  C   UNL     1      -6.505 -10.555  10.777  0.00  0.00    +0.127 C 
ATOM     17  C   UNL     1      -4.633  -8.434  10.089  0.00  0.00    +0.142 C 
ATOM     18  C   UNL     1      -5.493 -10.006  11.771  0.00  0.00    +0.127 C 
ATOM     20  C   UNL     1      -2.997  -9.864  11.272  0.00  0.00    +0.247 C 
ENDROOT
BRANCH  20  21
ATOM      1  F   UNL     1      -1.836 -11.125  15.802  0.00  0.00    -0.205 F 
ATOM     21  C   UNL     1      -2.727 -10.891  12.287  0.00  0.00    +0.040 A 
ATOM     22  C   UNL     1      -2.404 -10.511  13.587  0.00  0.00    +0.051 A 
ATOM     23  C   UNL     1      -2.796 -12.239  11.944  0.00  0.00    +0.013 A 
ATOM     25  C   UNL     1      -2.148 -11.487  14.552  0.00  0.00    +0.124 A 
ATOM     26  C   UNL     1      -2.541 -13.214  12.908  0.00  0.00    +0.004 A 
ATOM     27  C   UNL     1      -2.217 -12.838  14.212  0.00  0.00    +0.038 A 
ENDBRANCH  20  21
BRANCH  14   8
ATOM      8  C   UNL     1      -8.470  -8.418   8.285  0.00  0.00    +0.075 C 
ATOM      9  C   UNL     1      -9.313  -9.038   7.168  0.00  0.00    +0.013 C 
ATOM     10  C   UNL     1      -9.176  -7.217   8.918  0.00  0.00    +0.013 C 
ATOM     11  C   UNL     1      -9.716  -8.000   6.123  0.00  0.00    +0.001 C 
ATOM     12  C   UNL     1      -9.580  -6.183   7.870  0.00  0.00    +0.001 C 
ATOM     13  C   UNL     1     -10.422  -6.806   6.760  0.00  0.00    +0.000 C 
ENDBRANCH  14   8
BRANCH  15  19
ATOM      4  O   UNL     1      -4.368 -10.741   8.350  0.00  0.00    -0.249 OA
ATOM     19  C   UNL     1      -5.154  -9.842   8.083  0.00  0.00    +0.329 C 
BRANCH  19   3
ATOM      3  O   UNL     1      -5.662  -9.550   6.852  0.00  0.00    -0.467 OA
ATOM     24  C   UNL     1      -6.094 -10.676   6.082  0.00  0.00    +0.280 C 
ENDBRANCH  19   3
ENDBRANCH  15  19
TORSDOF 4
ENDMDL
MODEL 7
REMARK VINA RESULT:      -5.7     29.746     32.752
REMARK  Name = 7161541
REMARK  5 active torsions:
REMARK  status: ('A' for Active; 'I' for Inactive)
REMARK    1  A    between atoms: O_3  and  C_19
REMARK    2  A    between atoms: O_3  and  C_24
REMARK    3  A    between atoms: C_8  and  C_14
REMARK    4  A    between atoms: C_15  and  C_19
REMARK    5  A    between atoms: C_20  and  C_21
REMARK                            x       y       z     vdW  Elec       q    Type
REMARK                         _______ _______ _______ _____ _____    ______ ____
ROOT
ATOM      2  O   UNL     1      17.187   6.052  19.245  0.00  0.00    -0.275 OA
ATOM      5  O   UNL     1      23.289   5.922  23.009  0.00  0.00    -0.270 OA
ATOM      6  N   UNL     1      18.945   6.314  20.749  0.00  0.00    -0.285 N 
ATOM      7  N   UNL     1      21.315   5.284  21.932  0.00  0.00    -0.294 N 
ATOM     14  C   UNL     1      17.655   6.564  20.266  0.00  0.00    +0.219 C 
ATOM     15  C   UNL     1      19.571   7.041  21.868  0.00  0.00    +0.202 C 
ATOM     16  C   UNL     1      19.809   5.385  20.007  0.00  0.00    +0.127 C 
ATOM     17  C   UNL     1      20.457   6.148  22.740  0.00  0.00    +0.142 C 
ATOM     18  C   UNL     1      20.594   4.478  20.942  0.00  0.00    +0.127 C 
ATOM     20  C   UNL     1      22.689   5.243  22.177  0.00  0.00    +0.247 C 
ENDROOT
BRANCH  20  21
ATOM      1  F   UNL     1      24.266   0.781  21.142  0.00  0.00    -0.205 F 
ATOM     21  C   UNL     1      23.508   4.328  21.371  0.00  0.00    +0.040 A 
ATOM     22  C   UNL     1      23.496   2.963  21.646  0.00  0.00    +0.051 A 
ATOM     23  C   UNL     1      24.292   4.831  20.336  0.00  0.00    +0.013 A 
ATOM     25  C   UNL     1      24.274   2.093  20.880  0.00  0.00    +0.124 A 
ATOM     26  C   UNL     1      25.069   3.961  19.570  0.00  0.00    +0.004 A 
ATOM     27  C   UNL     1      25.060   2.593  19.842  0.00  0.00    +0.038 A 
ENDBRANCH  20  21
BRANCH  14   8
ATOM      8  C   UNL     1      16.808   7.510  21.064  0.00  0.00    +0.075 C 
ATOM      9  C   UNL     1      16.678   8.844  20.325  0.00  0.00    +0.013 C 
ATOM     10  C   UNL     1      15.437   6.883  21.331  0.00  0.00    +0.013 C 
ATOM     11  C   UNL     1      15.746   9.806  21.057  0.00  0.00    +0.001 C 
ATOM     12  C   UNL     1      14.508   7.849  22.061  0.00  0.00    +0.001 C 
ATOM     13  C   UNL     1      14.380   9.176  21.319  0.00  0.00    +0.000 C 
ENDBRANCH  14   8
BRANCH  15  19
ATOM      4  O   UNL     1      21.329   8.006  20.530  0.00  0.00    -0.249 OA
ATOM     19  C   UNL     1      20.358   8.165  21.257  0.00  0.00    +0.329 C 
BRANCH  19   3
ATOM      3  O   UNL     1      19.819   9.358  21.640  0.00  0.00    -0.467 OA
ATOM     24  C   UNL     1      20.455   9.989  22.756  0.00  0.00    +0.280 C 
ENDBRANCH  19   3
ENDBRANCH  15  19
TORSDOF 4
ENDMDL
MODEL 8
REMARK VINA RESULT:      -5.5     30.124     34.007
REMARK  Name = 7161541
REMARK  5 active torsions:
REMARK  status: ('A' for Active; 'I' for Inactive)
REMARK    1  A    between atoms: O_3  and  C_19
REMARK    2  A    between atoms: O_3  and  C_24
REMARK    3  A    between atoms: C_8  and  C_14
REMARK    4  A    between atoms: C_15  and  C_19
REMARK    5  A    between atoms: C_20  and  C_21
REMARK                            x       y       z     vdW  Elec       q    Type
REMARK                         _______ _______ _______ _____ _____    ______ ____
ROOT
ATOM      2  O   UNL     1      23.268   1.795  20.776  0.00  0.00    -0.275 OA
ATOM      5  O   UNL     1      20.004   8.065  21.973  0.00  0.00    -0.270 OA
ATOM      6  N   UNL     1      22.630   3.965  21.325  0.00  0.00    -0.285 N 
ATOM      7  N   UNL     1      20.872   6.163  20.929  0.00  0.00    -0.294 N 
ATOM     14  C   UNL     1      23.545   2.911  21.223  0.00  0.00    +0.219 C 
ATOM     15  C   UNL     1      22.904   5.243  22.006  0.00  0.00    +0.202 C 
ATOM     16  C   UNL     1      21.248   3.746  20.874  0.00  0.00    +0.127 C 
ATOM     17  C   UNL     1      22.255   6.442  21.309  0.00  0.00    +0.142 C 
ATOM     18  C   UNL     1      20.705   4.952  20.121  0.00  0.00    +0.127 C 
ATOM     20  C   UNL     1      19.857   7.050  21.294  0.00  0.00    +0.247 C 
ENDROOT
BRANCH  20  21
ATOM      1  F   UNL     1      16.742   5.539  17.906  0.00  0.00    -0.205 F 
ATOM     21  C   UNL     1      18.488   6.754  20.852  0.00  0.00    +0.040 A 
ATOM     22  C   UNL     1      18.263   6.278  19.563  0.00  0.00    +0.051 A 
ATOM     23  C   UNL     1      17.421   6.950  21.727  0.00  0.00    +0.013 A 
ATOM     25  C   UNL     1      16.962   5.996  19.145  0.00  0.00    +0.124 A 
ATOM     26  C   UNL     1      16.121   6.668  21.308  0.00  0.00    +0.004 A 
ATOM     27  C   UNL     1      15.892   6.191  20.017  0.00  0.00    +0.038 A 
ENDBRANCH  20  21
BRANCH  14   8
ATOM      8  C   UNL     1      24.945   3.186  21.685  0.00  0.00    +0.075 C 
ATOM      9  C   UNL     1      25.260   2.346  22.925  0.00  0.00    +0.013 C 
ATOM     10  C   UNL     1      25.934   2.902  20.552  0.00  0.00    +0.013 C 
ATOM     11  C   UNL     1      26.707   2.525  23.376  0.00  0.00    +0.001 C 
ATOM     12  C   UNL     1      27.379   3.080  21.007  0.00  0.00    +0.001 C 
ATOM     13  C   UNL     1      27.688   2.238  22.242  0.00  0.00    +0.000 C 
ENDBRANCH  14   8
BRANCH  15  19
ATOM      4  O   UNL     1      22.226   4.012  23.964  0.00  0.00    -0.249 OA
ATOM     19  C   UNL     1      22.404   5.090  23.413  0.00  0.00    +0.329 C 
BRANCH  19   3
ATOM      3  O   UNL     1      22.190   6.322  23.957  0.00  0.00    -0.467 OA
ATOM     24  C   UNL     1      22.245   6.381  25.386  0.00  0.00    +0.280 C 
ENDBRANCH  19   3
ENDBRANCH  15  19
TORSDOF 4
ENDMDL
MODEL 9
REMARK VINA RESULT:      -5.4      3.087      7.790
REMARK  Name = 7161541
REMARK  5 active torsions:
REMARK  status: ('A' for Active; 'I' for Inactive)
REMARK    1  A    between atoms: O_3  and  C_19
REMARK    2  A    between atoms: O_3  and  C_24
REMARK    3  A    between atoms: C_8  and  C_14
REMARK    4  A    between atoms: C_15  and  C_19
REMARK    5  A    between atoms: C_20  and  C_21
REMARK                            x       y       z     vdW  Elec       q    Type
REMARK                         _______ _______ _______ _____ _____    ______ ____
ROOT
ATOM      2  O   UNL     1      -5.876  -9.632  14.040  0.00  0.00    -0.275 OA
ATOM      5  O   UNL     1      -9.039 -12.283  19.903  0.00  0.00    -0.270 OA
ATOM      6  N   UNL     1      -6.485 -10.696  16.018  0.00  0.00    -0.285 N 
ATOM      7  N   UNL     1      -8.173 -10.817  18.302  0.00  0.00    -0.294 N 
ATOM     14  C   UNL     1      -5.592 -10.359  14.995  0.00  0.00    +0.219 C 
ATOM     15  C   UNL     1      -6.210 -11.691  17.071  0.00  0.00    +0.202 C 
ATOM     16  C   UNL     1      -7.852 -10.158  15.968  0.00  0.00    +0.127 C 
ATOM     17  C   UNL     1      -6.801 -11.303  18.429  0.00  0.00    +0.142 C 
ATOM     18  C   UNL     1      -8.335  -9.721  17.343  0.00  0.00    +0.127 C 
ATOM     20  C   UNL     1      -9.181 -11.362  19.100  0.00  0.00    +0.247 C 
ENDROOT
BRANCH  20  21
ATOM      1  F   UNL     1     -13.027  -9.111  21.000  0.00  0.00    -0.205 F 
ATOM     21  C   UNL     1     -10.538 -10.813  18.972  0.00  0.00    +0.040 A 
ATOM     22  C   UNL     1     -11.148 -10.211  20.069  0.00  0.00    +0.051 A 
ATOM     23  C   UNL     1     -11.206 -10.898  17.753  0.00  0.00    +0.013 A 
ATOM     25  C   UNL     1     -12.436  -9.689  19.947  0.00  0.00    +0.124 A 
ATOM     26  C   UNL     1     -12.494 -10.376  17.631  0.00  0.00    +0.004 A 
ATOM     27  C   UNL     1     -13.109  -9.772  18.728  0.00  0.00    +0.038 A 
ENDBRANCH  20  21
BRANCH  14   8
ATOM      8  C   UNL     1      -4.206 -10.924  15.097  0.00  0.00    +0.075 C 
ATOM      9  C   UNL     1      -3.451 -10.693  13.786  0.00  0.00    +0.013 C 
ATOM     10  C   UNL     1      -3.472 -10.294  16.283  0.00  0.00    +0.013 C 
ATOM     11  C   UNL     1      -2.004 -11.169  13.876  0.00  0.00    +0.001 C 
ATOM     12  C   UNL     1      -2.025 -10.771  16.369  0.00  0.00    +0.001 C 
ATOM     13  C   UNL     1      -1.276 -10.536  15.059  0.00  0.00    +0.000 C 
ENDBRANCH  14   8
BRANCH  15  19
ATOM      4  O   UNL     1      -6.903 -13.282  15.399  0.00  0.00    -0.249 OA
ATOM     19  C   UNL     1      -6.771 -12.994  16.581  0.00  0.00    +0.329 C 
BRANCH  19   3
ATOM      3  O   UNL     1      -7.096 -13.779  17.647  0.00  0.00    -0.467 OA
ATOM     24  C   UNL     1      -8.189 -14.679  17.437  0.00  0.00    +0.280 C 
ENDBRANCH  19   3
ENDBRANCH  15  19
TORSDOF 4
ENDMDL
MODEL 10
REMARK VINA RESULT:      -5.4     26.961     30.598
REMARK  Name = 7161541
REMARK  5 active torsions:
REMARK  status: ('A' for Active; 'I' for Inactive)
REMARK    1  A    between atoms: O_3  and  C_19
REMARK    2  A    between atoms: O_3  and  C_24
REMARK    3  A    between atoms: C_8  and  C_14
REMARK    4  A    between atoms: C_15  and  C_19
REMARK    5  A    between atoms: C_20  and  C_21
REMARK                            x       y       z     vdW  Elec       q    Type
REMARK                         _______ _______ _______ _____ _____    ______ ____
ROOT
ATOM      2  O   UNL     1      10.214   3.372  -1.941  0.00  0.00    -0.275 OA
ATOM      5  O   UNL     1      13.017   6.853   3.666  0.00  0.00    -0.270 OA
ATOM      6  N   UNL     1      11.492   4.569  -0.408  0.00  0.00    -0.285 N 
ATOM      7  N   UNL     1      11.613   6.209   1.912  0.00  0.00    -0.294 N 
ATOM     14  C   UNL     1      11.250   3.980  -1.653  0.00  0.00    +0.219 C 
ATOM     15  C   UNL     1      12.784   5.151   0.002  0.00  0.00    +0.202 C 
ATOM     16  C   UNL     1      10.459   4.471   0.634  0.00  0.00    +0.127 C 
ATOM     17  C   UNL     1      12.627   6.398   0.876  0.00  0.00    +0.142 C 
ATOM     18  C   UNL     1      10.309   5.775   1.403  0.00  0.00    +0.127 C 
ATOM     20  C   UNL     1      11.920   6.490   3.245  0.00  0.00    +0.247 C 
ENDROOT
BRANCH  20  21
ATOM      1  F   UNL     1       8.404   8.344   6.013  0.00  0.00    -0.205 F 
ATOM     21  C   UNL     1      10.858   6.328   4.247  0.00  0.00    +0.040 A 
ATOM     22  C   UNL     1      10.122   7.436   4.661  0.00  0.00    +0.051 A 
ATOM     23  C   UNL     1      10.594   5.068   4.778  0.00  0.00    +0.013 A 
ATOM     25  C   UNL     1       9.113   7.282   5.612  0.00  0.00    +0.124 A 
ATOM     26  C   UNL     1       9.585   4.915   5.729  0.00  0.00    +0.004 A 
ATOM     27  C   UNL     1       8.845   6.022   6.147  0.00  0.00    +0.038 A 
ENDBRANCH  20  21
BRANCH  14   8
ATOM      8  C   UNL     1      12.328   4.117  -2.686  0.00  0.00    +0.075 C 
ATOM      9  C   UNL     1      12.237   2.966  -3.691  0.00  0.00    +0.013 C 
ATOM     10  C   UNL     1      12.216   5.476  -3.379  0.00  0.00    +0.013 C 
ATOM     11  C   UNL     1      13.259   3.117  -4.815  0.00  0.00    +0.001 C 
ATOM     12  C   UNL     1      13.238   5.622  -4.504  0.00  0.00    +0.001 C 
ATOM     13  C   UNL     1      13.141   4.474  -5.505  0.00  0.00    +0.000 C 
ENDBRANCH  14   8
BRANCH  15  19
ATOM      4  O   UNL     1      13.057   2.967   0.984  0.00  0.00    -0.249 OA
ATOM     19  C   UNL     1      13.528   4.065   0.724  0.00  0.00    +0.329 C 
BRANCH  19   3
ATOM      3  O   UNL     1      14.784   4.501   1.030  0.00  0.00    -0.467 OA
ATOM     24  C   UNL     1      15.789   4.212   0.053  0.00  0.00    +0.280 C 
ENDBRANCH  19   3
ENDBRANCH  15  19
TORSDOF 4
ENDMDL
