MODEL 1
REMARK VINA RESULT:      -6.8      0.000      0.000
REMARK  Name = 28960552
REMARK  6 active torsions:
REMARK  status: ('A' for Active; 'I' for Inactive)
REMARK    1  A    between atoms: O_3  and  C_11
REMARK    2  A    between atoms: N_6  and  C_10
REMARK    3  A    between atoms: N_7  and  C_12
REMARK    4  A    between atoms: N_9  and  C_23
REMARK    5  A    between atoms: C_20  and  C_21
REMARK    6  A    between atoms: C_23  and  C_24
REMARK                            x       y       z     vdW  Elec       q    Type
REMARK                         _______ _______ _______ _____ _____    ______ ____
ROOT
ATOM      1  O   UNL     1      14.054   9.895  18.203  0.00  0.00    -0.342 OA
ATOM      2  O   UNL     1      12.520   9.373  16.542  0.00  0.00    -0.347 OA
ATOM     10  C   UNL     1      11.960   8.885  18.844  0.00  0.00    +0.143 C 
ATOM     11  C   UNL     1      12.580   7.475  18.718  0.00  0.00    +0.159 C 
ATOM     12  C   UNL     1      14.092   7.493  18.405  0.00  0.00    +0.136 C 
ATOM     13  C   UNL     1      12.656   9.868  17.885  0.00  0.00    +0.270 C 
ATOM     14  C   UNL     1      14.522   8.707  17.557  0.00  0.00    +0.170 C 
ATOM     15  C   UNL     1      13.806   8.818  16.224  0.00  0.00    +0.196 C 
ENDROOT
BRANCH  12   7
ATOM      5  O   UNL     1      16.580   6.106  18.868  0.00  0.00    -0.253 OA
ATOM      7  N   UNL     1      14.856   7.458  19.634  0.00  0.00    -0.291 N 
ATOM      9  N   UNL     1      16.573   6.896  21.051  0.00  0.00    -0.296 N 
ATOM     22  C   UNL     1      16.050   6.760  19.766  0.00  0.00    +0.300 C 
ATOM     26  H   UNL     1      14.462   7.902  20.459  0.00  0.00    +0.151 HD
ATOM     30  H   UNL     1      16.075   7.474  21.721  0.00  0.00    +0.151 HD
BRANCH   9  23
ATOM     23  C   UNL     1      17.809   6.272  21.462  0.00  0.00    +0.132 C 
BRANCH  23  24
ATOM     24  C   UNL     1      18.943   7.199  21.172  0.00  0.00    -0.016 C 
ATOM     25  C   UNL     1      20.135   6.798  20.719  0.00  0.00    +0.005 C 
ENDBRANCH  23  24
ENDBRANCH   9  23
ENDBRANCH  12   7
BRANCH  10   6
ATOM      6  N   UNL     1      12.080   9.367  20.222  0.00  0.00    -0.293 NA
ATOM     16  C   UNL     1      12.038  10.835  20.257  0.00  0.00    +0.085 C 
ATOM     17  C   UNL     1      11.026   8.785  21.064  0.00  0.00    +0.085 C 
ATOM     18  C   UNL     1      12.218  11.357  21.684  0.00  0.00    +0.028 C 
ATOM     19  C   UNL     1      11.170   9.236  22.518  0.00  0.00    +0.028 C 
ATOM     20  C   UNL     1      11.176  10.760  22.627  0.00  0.00    +0.077 C 
BRANCH  20  21
ATOM      4  O   UNL     1      10.582  11.533  24.808  0.00  0.00    -0.276 OA
ATOM      8  N   UNL     1      12.798  11.091  24.374  0.00  0.00    -0.329 N 
ATOM     21  C   UNL     1      11.466  11.161  24.040  0.00  0.00    +0.214 C 
ATOM     28  H   UNL     1      13.511  10.792  23.716  0.00  0.00    +0.145 HD
ATOM     29  H   UNL     1      13.116  11.344  25.304  0.00  0.00    +0.145 HD
ENDBRANCH  20  21
ENDBRANCH  10   6
BRANCH  11   3
ATOM      3  O   UNL     1      11.898   6.790  17.658  0.00  0.00    -0.388 OA
ATOM     27  H   UNL     1      12.383   6.966  16.834  0.00  0.00    +0.210 HD
ENDBRANCH  11   3
TORSDOF 6
ENDMDL
MODEL 2
REMARK VINA RESULT:      -6.8      2.497      5.125
REMARK  Name = 28960552
REMARK  6 active torsions:
REMARK  status: ('A' for Active; 'I' for Inactive)
REMARK    1  A    between atoms: O_3  and  C_11
REMARK    2  A    between atoms: N_6  and  C_10
REMARK    3  A    between atoms: N_7  and  C_12
REMARK    4  A    between atoms: N_9  and  C_23
REMARK    5  A    between atoms: C_20  and  C_21
REMARK    6  A    between atoms: C_23  and  C_24
REMARK                            x       y       z     vdW  Elec       q    Type
REMARK                         _______ _______ _______ _____ _____    ______ ____
ROOT
ATOM      1  O   UNL     1      11.698   6.975  19.863  0.00  0.00    -0.342 OA
ATOM      2  O   UNL     1      10.303   8.243  21.216  0.00  0.00    -0.347 OA
ATOM     10  C   UNL     1      12.230   9.302  20.209  0.00  0.00    +0.143 C 
ATOM     11  C   UNL     1      13.097   8.942  21.437  0.00  0.00    +0.159 C 
ATOM     12  C   UNL     1      13.235   7.421  21.667  0.00  0.00    +0.136 C 
ATOM     13  C   UNL     1      11.103   8.270  20.021  0.00  0.00    +0.270 C 
ATOM     14  C   UNL     1      11.993   6.624  21.219  0.00  0.00    +0.170 C 
ATOM     15  C   UNL     1      10.705   7.046  21.900  0.00  0.00    +0.196 C 
ENDROOT
BRANCH  12   7
ATOM      5  O   UNL     1      15.951   8.340  21.987  0.00  0.00    -0.253 OA
ATOM      7  N   UNL     1      14.411   6.919  20.990  0.00  0.00    -0.291 N 
ATOM      9  N   UNL     1      16.631   6.762  20.426  0.00  0.00    -0.296 N 
ATOM     22  C   UNL     1      15.687   7.425  21.207  0.00  0.00    +0.300 C 
ATOM     26  H   UNL     1      14.287   6.216  20.266  0.00  0.00    +0.151 HD
ATOM     30  H   UNL     1      16.322   6.004  19.827  0.00  0.00    +0.151 HD
BRANCH   9  23
ATOM     23  C   UNL     1      18.038   7.088  20.455  0.00  0.00    +0.132 C 
BRANCH  23  24
ATOM     24  C   UNL     1      18.831   5.848  20.212  0.00  0.00    -0.016 C 
ATOM     25  C   UNL     1      20.072   5.654  20.673  0.00  0.00    +0.005 C 
ENDBRANCH  23  24
ENDBRANCH   9  23
ENDBRANCH  12   7
BRANCH  10   6
ATOM      6  N   UNL     1      13.061   9.353  19.004  0.00  0.00    -0.293 NA
ATOM     16  C   UNL     1      12.220   9.316  17.800  0.00  0.00    +0.085 C 
ATOM     17  C   UNL     1      13.915  10.549  19.018  0.00  0.00    +0.085 C 
ATOM     18  C   UNL     1      13.075   9.313  16.531  0.00  0.00    +0.028 C 
ATOM     19  C   UNL     1      14.828  10.589  17.792  0.00  0.00    +0.028 C 
ATOM     20  C   UNL     1      14.021  10.512  16.497  0.00  0.00    +0.077 C 
BRANCH  20  21
ATOM      4  O   UNL     1      14.943   9.436  14.574  0.00  0.00    -0.276 OA
ATOM      8  N   UNL     1      15.813  11.469  15.208  0.00  0.00    -0.329 N 
ATOM     21  C   UNL     1      14.952  10.404  15.330  0.00  0.00    +0.214 C 
ATOM     28  H   UNL     1      15.809  12.251  15.855  0.00  0.00    +0.145 HD
ATOM     29  H   UNL     1      16.495  11.504  14.457  0.00  0.00    +0.145 HD
ENDBRANCH  20  21
ENDBRANCH  10   6
BRANCH  11   3
ATOM      3  O   UNL     1      12.483   9.529  22.593  0.00  0.00    -0.388 OA
ATOM     27  H   UNL     1      11.588   9.809  22.341  0.00  0.00    +0.210 HD
ENDBRANCH  11   3
TORSDOF 6
ENDMDL
MODEL 3
REMARK VINA RESULT:      -6.5      2.511      6.140
REMARK  Name = 28960552
REMARK  6 active torsions:
REMARK  status: ('A' for Active; 'I' for Inactive)
REMARK    1  A    between atoms: O_3  and  C_11
REMARK    2  A    between atoms: N_6  and  C_10
REMARK    3  A    between atoms: N_7  and  C_12
REMARK    4  A    between atoms: N_9  and  C_23
REMARK    5  A    between atoms: C_20  and  C_21
REMARK    6  A    between atoms: C_23  and  C_24
REMARK                            x       y       z     vdW  Elec       q    Type
REMARK                         _______ _______ _______ _____ _____    ______ ____
ROOT
ATOM      1  O   UNL     1      13.282   9.415  20.755  0.00  0.00    -0.342 OA
ATOM      2  O   UNL     1      11.732   7.859  21.505  0.00  0.00    -0.347 OA
ATOM     10  C   UNL     1      13.813   7.071  20.558  0.00  0.00    +0.143 C 
ATOM     11  C   UNL     1      13.180   7.026  19.149  0.00  0.00    +0.159 C 
ATOM     12  C   UNL     1      12.714   8.408  18.639  0.00  0.00    +0.136 C 
ATOM     13  C   UNL     1      13.137   8.153  21.420  0.00  0.00    +0.270 C 
ATOM     14  C   UNL     1      12.246   9.345  19.771  0.00  0.00    +0.170 C 
ATOM     15  C   UNL     1      11.108   8.790  20.607  0.00  0.00    +0.196 C 
ENDROOT
BRANCH  12   7
ATOM      5  O   UNL     1      12.483   9.688  16.064  0.00  0.00    -0.253 OA
ATOM      7  N   UNL     1      13.772   9.042  17.883  0.00  0.00    -0.291 N 
ATOM      9  N   UNL     1      14.752  10.170  16.139  0.00  0.00    -0.296 N 
ATOM     22  C   UNL     1      13.567   9.637  16.643  0.00  0.00    +0.300 C 
ATOM     26  H   UNL     1      14.721   8.984  18.239  0.00  0.00    +0.151 HD
ATOM     30  H   UNL     1      15.596  10.099  16.700  0.00  0.00    +0.151 HD
BRANCH   9  23
ATOM     23  C   UNL     1      14.825  10.846  14.866  0.00  0.00    +0.132 C 
BRANCH  23  24
ATOM     24  C   UNL     1      15.832  11.945  14.953  0.00  0.00    -0.016 C 
ATOM     25  C   UNL     1      16.351  12.390  16.102  0.00  0.00    +0.005 C 
ENDBRANCH  23  24
ENDBRANCH   9  23
ENDBRANCH  12   7
BRANCH  10   6
ATOM      6  N   UNL     1      15.249   7.343  20.456  0.00  0.00    -0.293 NA
ATOM     16  C   UNL     1      15.782   7.772  21.756  0.00  0.00    +0.085 C 
ATOM     17  C   UNL     1      15.962   6.161  19.954  0.00  0.00    +0.085 C 
ATOM     18  C   UNL     1      17.270   8.114  21.655  0.00  0.00    +0.028 C 
ATOM     19  C   UNL     1      17.456   6.446  19.791  0.00  0.00    +0.028 C 
ATOM     20  C   UNL     1      18.072   6.939  21.099  0.00  0.00    +0.077 C 
BRANCH  20  21
ATOM      4  O   UNL     1      19.913   8.459  21.172  0.00  0.00    -0.276 OA
ATOM      8  N   UNL     1      20.255   6.375  20.259  0.00  0.00    -0.329 N 
ATOM     21  C   UNL     1      19.493   7.346  20.863  0.00  0.00    +0.214 C 
ATOM     28  H   UNL     1      19.880   5.468  20.002  0.00  0.00    +0.145 HD
ATOM     29  H   UNL     1      21.234   6.539  20.044  0.00  0.00    +0.145 HD
ENDBRANCH  20  21
ENDBRANCH  10   6
BRANCH  11   3
ATOM      3  O   UNL     1      12.046   6.150  19.207  0.00  0.00    -0.388 OA
ATOM     27  H   UNL     1      12.349   5.259  18.966  0.00  0.00    +0.210 HD
ENDBRANCH  11   3
TORSDOF 6
ENDMDL
MODEL 4
REMARK VINA RESULT:      -6.1     27.229     29.298
REMARK  Name = 28960552
REMARK  6 active torsions:
REMARK  status: ('A' for Active; 'I' for Inactive)
REMARK    1  A    between atoms: O_3  and  C_11
REMARK    2  A    between atoms: N_6  and  C_10
REMARK    3  A    between atoms: N_7  and  C_12
REMARK    4  A    between atoms: N_9  and  C_23
REMARK    5  A    between atoms: C_20  and  C_21
REMARK    6  A    between atoms: C_23  and  C_24
REMARK                            x       y       z     vdW  Elec       q    Type
REMARK                         _______ _______ _______ _____ _____    ______ ____
ROOT
ATOM      1  O   UNL     1      -9.220  -8.257  17.433  0.00  0.00    -0.342 OA
ATOM      2  O   UNL     1     -11.265  -9.245  17.913  0.00  0.00    -0.347 OA
ATOM     10  C   UNL     1      -9.332 -10.661  17.589  0.00  0.00    +0.143 C 
ATOM     11  C   UNL     1      -9.634 -10.765  16.077  0.00  0.00    +0.159 C 
ATOM     12  C   UNL     1      -9.577  -9.408  15.343  0.00  0.00    +0.136 C 
ATOM     13  C   UNL     1      -9.849  -9.326  18.153  0.00  0.00    +0.270 C 
ATOM     14  C   UNL     1      -9.998  -8.220  16.232  0.00  0.00    +0.170 C 
ATOM     15  C   UNL     1     -11.397  -8.339  16.806  0.00  0.00    +0.196 C 
ENDROOT
BRANCH  12   7
ATOM      5  O   UNL     1      -8.444 -10.521  12.934  0.00  0.00    -0.253 OA
ATOM      7  N   UNL     1      -8.247  -9.180  14.819  0.00  0.00    -0.291 N 
ATOM      9  N   UNL     1      -6.474  -9.374  13.373  0.00  0.00    -0.296 N 
ATOM     22  C   UNL     1      -7.784  -9.762  13.644  0.00  0.00    +0.300 C 
ATOM     26  H   UNL     1      -7.597  -8.631  15.374  0.00  0.00    +0.151 HD
ATOM     30  H   UNL     1      -6.016  -8.727  14.007  0.00  0.00    +0.151 HD
BRANCH   9  23
ATOM     23  C   UNL     1      -5.747  -9.833  12.213  0.00  0.00    +0.132 C 
BRANCH  23  24
ATOM     24  C   UNL     1      -5.785  -8.772  11.163  0.00  0.00    -0.016 C 
ATOM     25  C   UNL     1      -4.749  -8.467  10.374  0.00  0.00    +0.005 C 
ENDBRANCH  23  24
ENDBRANCH   9  23
ENDBRANCH  12   7
BRANCH  10   6
ATOM      6  N   UNL     1      -7.890 -10.773  17.823  0.00  0.00    -0.293 NA
ATOM     16  C   UNL     1      -7.606 -10.806  19.265  0.00  0.00    +0.085 C 
ATOM     17  C   UNL     1      -7.350 -11.962  17.149  0.00  0.00    +0.085 C 
ATOM     18  C   UNL     1      -6.100 -10.867  19.528  0.00  0.00    +0.028 C 
ATOM     19  C   UNL     1      -5.836 -12.063  17.339  0.00  0.00    +0.028 C 
ATOM     20  C   UNL     1      -5.462 -12.061  18.820  0.00  0.00    +0.077 C 
BRANCH  20  21
ATOM      4  O   UNL     1      -3.409 -12.274  20.022  0.00  0.00    -0.276 OA
ATOM      8  N   UNL     1      -3.319 -11.631  17.815  0.00  0.00    -0.329 N 
ATOM     21  C   UNL     1      -3.973 -12.012  18.963  0.00  0.00    +0.214 C 
ATOM     28  H   UNL     1      -3.809 -11.406  16.956  0.00  0.00    +0.145 HD
ATOM     29  H   UNL     1      -2.306 -11.556  17.793  0.00  0.00    +0.145 HD
ENDBRANCH  20  21
ENDBRANCH  10   6
BRANCH  11   3
ATOM      3  O   UNL     1     -10.951 -11.313  15.931  0.00  0.00    -0.388 OA
ATOM     27  H   UNL     1     -11.214 -11.684  16.789  0.00  0.00    +0.210 HD
ENDBRANCH  11   3
TORSDOF 6
ENDMDL
MODEL 5
REMARK VINA RESULT:      -6.0     13.964     16.348
REMARK  Name = 28960552
REMARK  6 active torsions:
REMARK  status: ('A' for Active; 'I' for Inactive)
REMARK    1  A    between atoms: O_3  and  C_11
REMARK    2  A    between atoms: N_6  and  C_10
REMARK    3  A    between atoms: N_7  and  C_12
REMARK    4  A    between atoms: N_9  and  C_23
REMARK    5  A    between atoms: C_20  and  C_21
REMARK    6  A    between atoms: C_23  and  C_24
REMARK                            x       y       z     vdW  Elec       q    Type
REMARK                         _______ _______ _______ _____ _____    ______ ____
ROOT
ATOM      1  O   UNL     1      15.817   7.917   6.030  0.00  0.00    -0.342 OA
ATOM      2  O   UNL     1      15.677  10.211   5.716  0.00  0.00    -0.347 OA
ATOM     10  C   UNL     1      13.746   8.844   5.214  0.00  0.00    +0.143 C 
ATOM     11  C   UNL     1      14.221   8.671   3.754  0.00  0.00    +0.159 C 
ATOM     12  C   UNL     1      15.580   7.949   3.630  0.00  0.00    +0.136 C 
ATOM     13  C   UNL     1      14.948   9.051   6.153  0.00  0.00    +0.270 C 
ATOM     14  C   UNL     1      16.521   8.219   4.822  0.00  0.00    +0.170 C 
ATOM     15  C   UNL     1      16.834   9.687   5.045  0.00  0.00    +0.196 C 
ENDROOT
BRANCH  12   7
ATOM      5  O   UNL     1      14.827   6.542   1.226  0.00  0.00    -0.253 OA
ATOM      7  N   UNL     1      15.375   6.524   3.482  0.00  0.00    -0.291 N 
ATOM      9  N   UNL     1      14.882   4.550   2.417  0.00  0.00    -0.296 N 
ATOM     22  C   UNL     1      15.011   5.931   2.278  0.00  0.00    +0.300 C 
ATOM     26  H   UNL     1      15.426   5.940   4.311  0.00  0.00    +0.151 HD
ATOM     30  H   UNL     1      15.075   4.131   3.321  0.00  0.00    +0.151 HD
BRANCH   9  23
ATOM     23  C   UNL     1      14.512   3.686   1.321  0.00  0.00    +0.132 C 
BRANCH  23  24
ATOM     24  C   UNL     1      13.160   3.112   1.586  0.00  0.00    -0.016 C 
ATOM     25  C   UNL     1      12.120   3.828   2.027  0.00  0.00    +0.005 C 
ENDBRANCH  23  24
ENDBRANCH   9  23
ENDBRANCH  12   7
BRANCH  10   6
ATOM      6  N   UNL     1      12.982   7.669   5.639  0.00  0.00    -0.293 NA
ATOM     16  C   UNL     1      12.360   7.907   6.948  0.00  0.00    +0.085 C 
ATOM     17  C   UNL     1      11.974   7.318   4.629  0.00  0.00    +0.085 C 
ATOM     18  C   UNL     1      11.604   6.668   7.432  0.00  0.00    +0.028 C 
ATOM     19  C   UNL     1      11.204   6.060   5.032  0.00  0.00    +0.028 C 
ATOM     20  C   UNL     1      10.562   6.220   6.408  0.00  0.00    +0.077 C 
BRANCH  20  21
ATOM      4  O   UNL     1       9.483   4.755   7.956  0.00  0.00    -0.276 OA
ATOM      8  N   UNL     1       9.972   3.954   5.855  0.00  0.00    -0.329 N 
ATOM     21  C   UNL     1       9.946   4.923   6.830  0.00  0.00    +0.214 C 
ATOM     28  H   UNL     1      10.373   4.114   4.937  0.00  0.00    +0.145 HD
ATOM     29  H   UNL     1       9.587   3.031   6.028  0.00  0.00    +0.145 HD
ENDBRANCH  20  21
ENDBRANCH  10   6
BRANCH  11   3
ATOM      3  O   UNL     1      14.339   9.977   3.174  0.00  0.00    -0.388 OA
ATOM     27  H   UNL     1      13.666  10.545   3.585  0.00  0.00    +0.210 HD
ENDBRANCH  11   3
TORSDOF 6
ENDMDL
MODEL 6
REMARK VINA RESULT:      -6.0     28.075     30.244
REMARK  Name = 28960552
REMARK  6 active torsions:
REMARK  status: ('A' for Active; 'I' for Inactive)
REMARK    1  A    between atoms: O_3  and  C_11
REMARK    2  A    between atoms: N_6  and  C_10
REMARK    3  A    between atoms: N_7  and  C_12
REMARK    4  A    between atoms: N_9  and  C_23
REMARK    5  A    between atoms: C_20  and  C_21
REMARK    6  A    between atoms: C_23  and  C_24
REMARK                            x       y       z     vdW  Elec       q    Type
REMARK                         _______ _______ _______ _____ _____    ______ ____
ROOT
ATOM      1  O   UNL     1      -9.431 -10.751  15.522  0.00  0.00    -0.342 OA
ATOM      2  O   UNL     1      -9.571  -8.510  14.936  0.00  0.00    -0.347 OA
ATOM     10  C   UNL     1      -8.152  -9.146  16.789  0.00  0.00    +0.143 C 
ATOM     11  C   UNL     1      -9.325  -8.962  17.778  0.00  0.00    +0.159 C 
ATOM     12  C   UNL     1     -10.511  -9.914  17.509  0.00  0.00    +0.136 C 
ATOM     13  C   UNL     1      -8.676  -9.538  15.395  0.00  0.00    +0.270 C 
ATOM     14  C   UNL     1     -10.683 -10.264  16.017  0.00  0.00    +0.170 C 
ATOM     15  C   UNL     1     -10.886  -9.060  15.117  0.00  0.00    +0.196 C 
ENDROOT
BRANCH  12   7
ATOM      5  O   UNL     1     -11.968 -10.650  19.888  0.00  0.00    -0.253 OA
ATOM      7  N   UNL     1     -10.361 -11.128  18.283  0.00  0.00    -0.291 N 
ATOM      9  N   UNL     1     -10.764 -12.634  19.969  0.00  0.00    -0.296 N 
ATOM     22  C   UNL     1     -11.110 -11.400  19.422  0.00  0.00    +0.300 C 
ATOM     26  H   UNL     1      -9.623 -11.776  18.025  0.00  0.00    +0.151 HD
ATOM     30  H   UNL     1     -10.058 -13.193  19.502  0.00  0.00    +0.151 HD
BRANCH   9  23
ATOM     23  C   UNL     1     -11.388 -13.164  21.158  0.00  0.00    +0.132 C 
BRANCH  23  24
ATOM     24  C   UNL     1     -10.527 -14.245  21.721  0.00  0.00    -0.016 C 
ATOM     25  C   UNL     1      -9.438 -14.724  21.110  0.00  0.00    +0.005 C 
ENDBRANCH  23  24
ENDBRANCH   9  23
ENDBRANCH  12   7
BRANCH  10   6
ATOM      6  N   UNL     1      -7.234 -10.175  17.281  0.00  0.00    -0.293 NA
ATOM     16  C   UNL     1      -5.912 -10.022  16.659  0.00  0.00    +0.085 C 
ATOM     17  C   UNL     1      -7.141 -10.123  18.746  0.00  0.00    +0.085 C 
ATOM     18  C   UNL     1      -4.956 -11.124  17.120  0.00  0.00    +0.028 C 
ATOM     19  C   UNL     1      -6.227 -11.227  19.281  0.00  0.00    +0.028 C 
ATOM     20  C   UNL     1      -4.841 -11.155  18.644  0.00  0.00    +0.077 C 
BRANCH  20  21
ATOM      4  O   UNL     1      -3.174 -12.251  19.958  0.00  0.00    -0.276 OA
ATOM      8  N   UNL     1      -4.312 -13.489  18.388  0.00  0.00    -0.329 N 
ATOM     21  C   UNL     1      -4.027 -12.335  19.077  0.00  0.00    +0.214 C 
ATOM     28  H   UNL     1      -5.013 -13.528  17.654  0.00  0.00    +0.145 HD
ATOM     29  H   UNL     1      -3.820 -14.353  18.591  0.00  0.00    +0.145 HD
ENDBRANCH  20  21
ENDBRANCH  10   6
BRANCH  11   3
ATOM      3  O   UNL     1      -9.786  -7.609  17.665  0.00  0.00    -0.388 OA
ATOM     27  H   UNL     1      -9.255  -7.173  16.978  0.00  0.00    +0.210 HD
ENDBRANCH  11   3
TORSDOF 6
ENDMDL
MODEL 7
REMARK VINA RESULT:      -5.9     13.674     16.647
REMARK  Name = 28960552
REMARK  6 active torsions:
REMARK  status: ('A' for Active; 'I' for Inactive)
REMARK    1  A    between atoms: O_3  and  C_11
REMARK    2  A    between atoms: N_6  and  C_10
REMARK    3  A    between atoms: N_7  and  C_12
REMARK    4  A    between atoms: N_9  and  C_23
REMARK    5  A    between atoms: C_20  and  C_21
REMARK    6  A    between atoms: C_23  and  C_24
REMARK                            x       y       z     vdW  Elec       q    Type
REMARK                         _______ _______ _______ _____ _____    ______ ____
ROOT
ATOM      1  O   UNL     1      10.376   5.494   6.989  0.00  0.00    -0.342 OA
ATOM      2  O   UNL     1       8.386   6.661   6.744  0.00  0.00    -0.347 OA
ATOM     10  C   UNL     1       9.968   6.655   4.915  0.00  0.00    +0.143 C 
ATOM     11  C   UNL     1      10.648   7.927   5.471  0.00  0.00    +0.159 C 
ATOM     12  C   UNL     1      11.270   7.731   6.871  0.00  0.00    +0.136 C 
ATOM     13  C   UNL     1       9.341   5.835   6.057  0.00  0.00    +0.270 C 
ATOM     14  C   UNL     1      10.506   6.708   7.736  0.00  0.00    +0.170 C 
ATOM     15  C   UNL     1       9.046   7.052   7.960  0.00  0.00    +0.196 C 
ENDROOT
BRANCH  12   7
ATOM      5  O   UNL     1      13.539   9.449   6.396  0.00  0.00    -0.253 OA
ATOM      7  N   UNL     1      12.656   7.331   6.749  0.00  0.00    -0.291 N 
ATOM      9  N   UNL     1      14.918   7.582   6.445  0.00  0.00    -0.296 N 
ATOM     22  C   UNL     1      13.688   8.233   6.519  0.00  0.00    +0.300 C 
ATOM     26  H   UNL     1      12.874   6.339   6.757  0.00  0.00    +0.151 HD
ATOM     30  H   UNL     1      14.946   6.576   6.581  0.00  0.00    +0.151 HD
BRANCH   9  23
ATOM     23  C   UNL     1      16.160   8.281   6.213  0.00  0.00    +0.132 C 
BRANCH  23  24
ATOM     24  C   UNL     1      16.563   8.100   4.788  0.00  0.00    -0.016 C 
ATOM     25  C   UNL     1      15.900   7.331   3.918  0.00  0.00    +0.005 C 
ENDBRANCH  23  24
ENDBRANCH   9  23
ENDBRANCH  12   7
BRANCH  10   6
ATOM      6  N   UNL     1      10.945   5.836   4.194  0.00  0.00    -0.293 NA
ATOM     16  C   UNL     1      10.279   4.700   3.543  0.00  0.00    +0.085 C 
ATOM     17  C   UNL     1      11.679   6.651   3.218  0.00  0.00    +0.085 C 
ATOM     18  C   UNL     1      11.293   3.802   2.831  0.00  0.00    +0.028 C 
ATOM     19  C   UNL     1      12.741   5.822   2.494  0.00  0.00    +0.028 C 
ATOM     20  C   UNL     1      12.124   4.595   1.825  0.00  0.00    +0.077 C 
BRANCH  20  21
ATOM      4  O   UNL     1      13.111   3.203   0.153  0.00  0.00    -0.276 OA
ATOM      8  N   UNL     1      14.293   3.587   2.089  0.00  0.00    -0.329 N 
ATOM     21  C   UNL     1      13.209   3.734   1.256  0.00  0.00    +0.214 C 
ATOM     28  H   UNL     1      14.344   4.025   3.002  0.00  0.00    +0.145 HD
ATOM     29  H   UNL     1      15.089   3.020   1.812  0.00  0.00    +0.145 HD
ENDBRANCH  20  21
ENDBRANCH  10   6
BRANCH  11   3
ATOM      3  O   UNL     1       9.653   8.957   5.550  0.00  0.00    -0.388 OA
ATOM     27  H   UNL     1      10.108   9.812   5.475  0.00  0.00    +0.210 HD
ENDBRANCH  11   3
TORSDOF 6
ENDMDL
MODEL 8
REMARK VINA RESULT:      -5.9     24.674     27.319
REMARK  Name = 28960552
REMARK  6 active torsions:
REMARK  status: ('A' for Active; 'I' for Inactive)
REMARK    1  A    between atoms: O_3  and  C_11
REMARK    2  A    between atoms: N_6  and  C_10
REMARK    3  A    between atoms: N_7  and  C_12
REMARK    4  A    between atoms: N_9  and  C_23
REMARK    5  A    between atoms: C_20  and  C_21
REMARK    6  A    between atoms: C_23  and  C_24
REMARK                            x       y       z     vdW  Elec       q    Type
REMARK                         _______ _______ _______ _____ _____    ______ ____
ROOT
ATOM      1  O   UNL     1     -10.310   8.779  17.427  0.00  0.00    -0.342 OA
ATOM      2  O   UNL     1      -9.858  10.950  18.112  0.00  0.00    -0.347 OA
ATOM     10  C   UNL     1     -11.799   9.822  19.013  0.00  0.00    +0.143 C 
ATOM     11  C   UNL     1     -12.675  10.365  17.862  0.00  0.00    +0.159 C 
ATOM     12  C   UNL     1     -12.229   9.879  16.466  0.00  0.00    +0.136 C 
ATOM     13  C   UNL     1     -10.338   9.668  18.553  0.00  0.00    +0.270 C 
ATOM     14  C   UNL     1     -10.708   9.648  16.362  0.00  0.00    +0.170 C 
ATOM     15  C   UNL     1      -9.870  10.873  16.678  0.00  0.00    +0.196 C 
ENDROOT
BRANCH  12   7
ATOM      5  O   UNL     1     -14.013   9.495  14.231  0.00  0.00    -0.253 OA
ATOM      7  N   UNL     1     -12.934   8.666  16.112  0.00  0.00    -0.291 N 
ATOM      9  N   UNL     1     -14.325   7.296  14.903  0.00  0.00    -0.296 N 
ATOM     22  C   UNL     1     -13.778   8.573  15.011  0.00  0.00    +0.300 C 
ATOM     26  H   UNL     1     -12.870   7.870  16.739  0.00  0.00    +0.151 HD
ATOM     30  H   UNL     1     -14.056   6.591  15.583  0.00  0.00    +0.151 HD
BRANCH   9  23
ATOM     23  C   UNL     1     -15.238   6.923  13.848  0.00  0.00    +0.132 C 
BRANCH  23  24
ATOM     24  C   UNL     1     -16.547   6.534  14.450  0.00  0.00    -0.016 C 
ATOM     25  C   UNL     1     -16.819   5.311  14.918  0.00  0.00    +0.005 C 
ENDBRANCH  23  24
ENDBRANCH   9  23
ENDBRANCH  12   7
BRANCH  10   6
ATOM      6  N   UNL     1     -12.313   8.530  19.471  0.00  0.00    -0.293 NA
ATOM     16  C   UNL     1     -11.456   7.984  20.532  0.00  0.00    +0.085 C 
ATOM     17  C   UNL     1     -13.703   8.662  19.927  0.00  0.00    +0.085 C 
ATOM     18  C   UNL     1     -11.948   6.607  20.984  0.00  0.00    +0.028 C 
ATOM     19  C   UNL     1     -14.274   7.310  20.359  0.00  0.00    +0.028 C 
ATOM     20  C   UNL     1     -13.407   6.662  21.436  0.00  0.00    +0.077 C 
BRANCH  20  21
ATOM      4  O   UNL     1     -15.045   4.923  21.416  0.00  0.00    -0.276 OA
ATOM      8  N   UNL     1     -13.000   4.483  22.373  0.00  0.00    -0.329 N 
ATOM     21  C   UNL     1     -13.911   5.281  21.724  0.00  0.00    +0.214 C 
ATOM     28  H   UNL     1     -12.073   4.808  22.629  0.00  0.00    +0.145 HD
ATOM     29  H   UNL     1     -13.232   3.527  22.626  0.00  0.00    +0.145 HD
ENDBRANCH  20  21
ENDBRANCH  10   6
BRANCH  11   3
ATOM      3  O   UNL     1     -12.603  11.797  17.896  0.00  0.00    -0.388 OA
ATOM     27  H   UNL     1     -13.361  12.142  17.395  0.00  0.00    +0.210 HD
ENDBRANCH  11   3
TORSDOF 6
ENDMDL
MODEL 9
REMARK VINA RESULT:      -5.8     13.651     15.927
REMARK  Name = 28960552
REMARK  6 active torsions:
REMARK  status: ('A' for Active; 'I' for Inactive)
REMARK    1  A    between atoms: O_3  and  C_11
REMARK    2  A    between atoms: N_6  and  C_10
REMARK    3  A    between atoms: N_7  and  C_12
REMARK    4  A    between atoms: N_9  and  C_23
REMARK    5  A    between atoms: C_20  and  C_21
REMARK    6  A    between atoms: C_23  and  C_24
REMARK                            x       y       z     vdW  Elec       q    Type
REMARK                         _______ _______ _______ _____ _____    ______ ____
ROOT
ATOM      1  O   UNL     1      10.257   8.267   5.476  0.00  0.00    -0.342 OA
ATOM      2  O   UNL     1       9.419   7.891   7.607  0.00  0.00    -0.347 OA
ATOM     10  C   UNL     1      11.802   7.702   7.240  0.00  0.00    +0.143 C 
ATOM     11  C   UNL     1      11.654   6.199   6.914  0.00  0.00    +0.159 C 
ATOM     12  C   UNL     1      10.780   5.921   5.672  0.00  0.00    +0.136 C 
ATOM     13  C   UNL     1      10.515   8.463   6.873  0.00  0.00    +0.270 C 
ATOM     14  C   UNL     1       9.663   6.965   5.471  0.00  0.00    +0.170 C 
ATOM     15  C   UNL     1       8.711   7.091   6.646  0.00  0.00    +0.196 C 
ENDROOT
BRANCH  12   7
ATOM      5  O   UNL     1      10.456   4.137   3.428  0.00  0.00    -0.253 OA
ATOM      7  N   UNL     1      11.606   5.853   4.486  0.00  0.00    -0.291 N 
ATOM      9  N   UNL     1      12.317   5.105   2.435  0.00  0.00    -0.296 N 
ATOM     22  C   UNL     1      11.374   4.956   3.449  0.00  0.00    +0.300 C 
ATOM     26  H   UNL     1      12.438   6.434   4.443  0.00  0.00    +0.151 HD
ATOM     30  H   UNL     1      13.027   5.824   2.531  0.00  0.00    +0.151 HD
BRANCH   9  23
ATOM     23  C   UNL     1      12.311   4.298   1.237  0.00  0.00    +0.132 C 
BRANCH  23  24
ATOM     24  C   UNL     1      13.411   3.293   1.319  0.00  0.00    -0.016 C 
ATOM     25  C   UNL     1      14.670   3.593   1.656  0.00  0.00    +0.005 C 
ENDBRANCH  23  24
ENDBRANCH   9  23
ENDBRANCH  12   7
BRANCH  10   6
ATOM      6  N   UNL     1      12.938   8.267   6.508  0.00  0.00    -0.293 NA
ATOM     16  C   UNL     1      13.210   9.637   6.964  0.00  0.00    +0.085 C 
ATOM     17  C   UNL     1      14.123   7.412   6.659  0.00  0.00    +0.085 C 
ATOM     18  C   UNL     1      14.360  10.262   6.170  0.00  0.00    +0.028 C 
ATOM     19  C   UNL     1      15.304   7.960   5.856  0.00  0.00    +0.028 C 
ATOM     20  C   UNL     1      15.619   9.401   6.249  0.00  0.00    +0.077 C 
BRANCH  20  21
ATOM      4  O   UNL     1      16.578  11.054   4.814  0.00  0.00    -0.276 OA
ATOM      8  N   UNL     1      17.739   9.097   5.152  0.00  0.00    -0.329 N 
ATOM     21  C   UNL     1      16.678   9.949   5.343  0.00  0.00    +0.214 C 
ATOM     28  H   UNL     1      17.792   8.183   5.590  0.00  0.00    +0.145 HD
ATOM     29  H   UNL     1      18.516   9.358   4.553  0.00  0.00    +0.145 HD
ENDBRANCH  20  21
ENDBRANCH  10   6
BRANCH  11   3
ATOM      3  O   UNL     1      11.055   5.561   8.050  0.00  0.00    -0.388 OA
ATOM     27  H   UNL     1      11.473   5.926   8.848  0.00  0.00    +0.210 HD
ENDBRANCH  11   3
TORSDOF 6
ENDMDL
MODEL 10
REMARK VINA RESULT:      -5.8     26.407     28.845
REMARK  Name = 28960552
REMARK  6 active torsions:
REMARK  status: ('A' for Active; 'I' for Inactive)
REMARK    1  A    between atoms: O_3  and  C_11
REMARK    2  A    between atoms: N_6  and  C_10
REMARK    3  A    between atoms: N_7  and  C_12
REMARK    4  A    between atoms: N_9  and  C_23
REMARK    5  A    between atoms: C_20  and  C_21
REMARK    6  A    between atoms: C_23  and  C_24
REMARK                            x       y       z     vdW  Elec       q    Type
REMARK                         _______ _______ _______ _____ _____    ______ ____
ROOT
ATOM      1  O   UNL     1      -4.899 -10.228  18.140  0.00  0.00    -0.342 OA
ATOM      2  O   UNL     1      -4.578 -12.246  19.239  0.00  0.00    -0.347 OA
ATOM     10  C   UNL     1      -4.720 -12.241  16.825  0.00  0.00    +0.143 C 
ATOM     11  C   UNL     1      -6.250 -12.445  16.893  0.00  0.00    +0.159 C 
ATOM     12  C   UNL     1      -6.995 -11.287  17.592  0.00  0.00    +0.136 C 
ATOM     13  C   UNL     1      -4.219 -11.488  18.071  0.00  0.00    +0.270 C 
ATOM     14  C   UNL     1      -6.161 -10.609  18.697  0.00  0.00    +0.170 C 
ATOM     15  C   UNL     1      -5.704 -11.550  19.796  0.00  0.00    +0.196 C 
ENDROOT
BRANCH  12   7
ATOM      5  O   UNL     1      -9.640 -10.184  17.251  0.00  0.00    -0.253 OA
ATOM      7  N   UNL     1      -7.410 -10.302  16.617  0.00  0.00    -0.291 N 
ATOM      9  N   UNL     1      -8.835  -8.887  15.503  0.00  0.00    -0.296 N 
ATOM     22  C   UNL     1      -8.713  -9.825  16.525  0.00  0.00    +0.300 C 
ATOM     26  H   UNL     1      -6.736 -10.000  15.918  0.00  0.00    +0.151 HD
ATOM     30  H   UNL     1      -8.008  -8.638  14.969  0.00  0.00    +0.151 HD
BRANCH   9  23
ATOM     23  C   UNL     1     -10.082  -8.231  15.188  0.00  0.00    +0.132 C 
BRANCH  23  24
ATOM     24  C   UNL     1     -10.140  -6.923  15.905  0.00  0.00    -0.016 C 
ATOM     25  C   UNL     1     -11.271  -6.244  16.126  0.00  0.00    +0.005 C 
ENDBRANCH  23  24
ENDBRANCH   9  23
ENDBRANCH  12   7
BRANCH  10   6
ATOM      6  N   UNL     1      -4.365 -11.493  15.617  0.00  0.00    -0.293 NA
ATOM     16  C   UNL     1      -2.906 -11.450  15.452  0.00  0.00    +0.085 C 
ATOM     17  C   UNL     1      -5.015 -12.081  14.438  0.00  0.00    +0.085 C 
ATOM     18  C   UNL     1      -2.515 -10.624  14.224  0.00  0.00    +0.028 C 
ATOM     19  C   UNL     1      -4.698 -11.278  13.176  0.00  0.00    +0.028 C 
ATOM     20  C   UNL     1      -3.191 -11.155  12.961  0.00  0.00    +0.077 C 
BRANCH  20  21
ATOM      4  O   UNL     1      -1.779  -9.920  11.482  0.00  0.00    -0.276 OA
ATOM      8  N   UNL     1      -4.055  -9.798  11.173  0.00  0.00    -0.329 N 
ATOM     21  C   UNL     1      -2.919 -10.243  11.806  0.00  0.00    +0.214 C 
ATOM     28  H   UNL     1      -4.988 -10.069  11.469  0.00  0.00    +0.145 HD
ATOM     29  H   UNL     1      -3.997  -9.169  10.378  0.00  0.00    +0.145 HD
ENDBRANCH  20  21
ENDBRANCH  10   6
BRANCH  11   3
ATOM      3  O   UNL     1      -6.498 -13.657  17.620  0.00  0.00    -0.388 OA
ATOM     27  H   UNL     1      -7.175 -14.158  17.135  0.00  0.00    +0.210 HD
ENDBRANCH  11   3
TORSDOF 6
ENDMDL
