MODEL 1
REMARK VINA RESULT:      -6.9      0.000      0.000
REMARK  Name = 7142707
REMARK  7 active torsions:
REMARK  status: ('A' for Active; 'I' for Inactive)
REMARK    1  A    between atoms: N_7  and  C_20
REMARK    2  A    between atoms: C_15  and  C_18
REMARK    3  A    between atoms: C_18  and  C_19
REMARK    4  A    between atoms: C_19  and  C_22
REMARK    5  A    between atoms: C_19  and  C_23
REMARK    6  A    between atoms: C_19  and  C_24
REMARK    7  A    between atoms: C_25  and  C_26
REMARK                            x       y       z     vdW  Elec       q    Type
REMARK                         _______ _______ _______ _____ _____    ______ ____
ROOT
ATOM      2  O   UNL     1      -4.387 -14.580  12.476  0.00  0.00    -0.276 OA
ATOM      3  O   UNL     1      -6.603 -10.030  14.227  0.00  0.00    -0.266 OA
ATOM      5  N   UNL     1      -2.753 -13.008  12.983  0.00  0.00    -0.301 N 
ATOM      6  N   UNL     1      -4.309 -10.468  14.144  0.00  0.00    -0.310 N 
ATOM      8  C   UNL     1      -3.033 -10.753  11.944  0.00  0.00    +0.027 C 
ATOM      9  C   UNL     1      -1.841 -10.971  14.084  0.00  0.00    +0.054 C 
ATOM     10  C   UNL     1      -1.833 -10.252  12.737  0.00  0.00    +0.018 C 
ATOM     11  C   UNL     1      -2.939 -12.275  11.730  0.00  0.00    +0.113 C 
ATOM     12  C   UNL     1      -1.693 -12.489  13.861  0.00  0.00    +0.117 C 
ATOM     13  C   UNL     1      -4.316 -10.353  12.680  0.00  0.00    +0.130 C 
ATOM     14  C   UNL     1      -3.120 -10.686  14.848  0.00  0.00    +0.027 A 
ATOM     15  C   UNL     1      -3.501 -14.161  13.225  0.00  0.00    +0.216 C 
ATOM     16  C   UNL     1      -3.118 -10.672  16.191  0.00  0.00    +0.024 A 
ATOM     17  C   UNL     1      -5.535 -10.244  14.803  0.00  0.00    +0.273 A 
ATOM     20  C   UNL     1      -5.494 -10.260  16.300  0.00  0.00    +0.099 A 
ATOM     21  C   UNL     1      -4.330 -10.455  16.929  0.00  0.00    +0.030 A 
ENDROOT
BRANCH  20   7
ATOM      4  O   UNL     1      -7.268 -12.292  17.231  0.00  0.00    -0.270 OA
ATOM      7  N   UNL     1      -6.662 -10.061  16.974  0.00  0.00    -0.277 N 
ATOM     25  C   UNL     1      -7.484 -11.095  17.402  0.00  0.00    +0.248 C 
ATOM     32  H   UNL     1      -6.976  -9.098  17.019  0.00  0.00    +0.155 HD
BRANCH  25  26
ATOM      1  F   UNL     1     -12.074  -9.552  20.181  0.00  0.00    -0.205 F 
ATOM     26  C   UNL     1      -8.705 -10.684  18.142  0.00  0.00    +0.037 A 
ATOM     27  C   UNL     1      -9.570  -9.786  17.552  0.00  0.00    +0.016 A 
ATOM     28  C   UNL     1      -8.935 -11.214  19.394  0.00  0.00    +0.016 A 
ATOM     29  C   UNL     1     -10.716  -9.400  18.247  0.00  0.00    +0.039 A 
ATOM     30  C   UNL     1     -10.082 -10.828  20.088  0.00  0.00    +0.039 A 
ATOM     31  C   UNL     1     -10.973  -9.922  19.514  0.00  0.00    +0.123 A 
ENDBRANCH  25  26
ENDBRANCH  20   7
BRANCH  15  18
ATOM     18  C   UNL     1      -3.189 -14.915  14.492  0.00  0.00    +0.102 C 
BRANCH  18  19
ATOM     19  C   UNL     1      -2.486 -16.260  14.230  0.00  0.00    -0.029 C 
ATOM     22  C   UNL     1      -1.332 -16.097  13.226  0.00  0.00    +0.011 C 
ATOM     23  C   UNL     1      -3.477 -17.312  13.702  0.00  0.00    +0.011 C 
ATOM     24  C   UNL     1      -1.907 -16.758  15.568  0.00  0.00    +0.011 C 
ENDBRANCH  18  19
ENDBRANCH  15  18
TORSDOF 4
ENDMDL
MODEL 2
REMARK VINA RESULT:      -6.8      4.271      8.799
REMARK  Name = 7142707
REMARK  7 active torsions:
REMARK  status: ('A' for Active; 'I' for Inactive)
REMARK    1  A    between atoms: N_7  and  C_20
REMARK    2  A    between atoms: C_15  and  C_18
REMARK    3  A    between atoms: C_18  and  C_19
REMARK    4  A    between atoms: C_19  and  C_22
REMARK    5  A    between atoms: C_19  and  C_23
REMARK    6  A    between atoms: C_19  and  C_24
REMARK    7  A    between atoms: C_25  and  C_26
REMARK                            x       y       z     vdW  Elec       q    Type
REMARK                         _______ _______ _______ _____ _____    ______ ____
ROOT
ATOM      2  O   UNL     1     -12.320 -11.548  17.222  0.00  0.00    -0.276 OA
ATOM      3  O   UNL     1      -7.615 -12.398  14.809  0.00  0.00    -0.266 OA
ATOM      5  N   UNL     1     -10.593 -11.598  18.776  0.00  0.00    -0.301 N 
ATOM      6  N   UNL     1      -7.903 -11.956  17.086  0.00  0.00    -0.310 N 
ATOM      8  C   UNL     1      -9.079 -13.583  18.675  0.00  0.00    +0.027 C 
ATOM      9  C   UNL     1      -8.228 -11.440  19.531  0.00  0.00    +0.054 C 
ATOM     10  C   UNL     1      -8.200 -12.951  19.747  0.00  0.00    +0.018 C 
ATOM     11  C   UNL     1     -10.522 -13.060  18.786  0.00  0.00    +0.113 C 
ATOM     12  C   UNL     1      -9.669 -10.920  19.697  0.00  0.00    +0.117 C 
ATOM     13  C   UNL     1      -8.466 -13.295  17.299  0.00  0.00    +0.130 C 
ATOM     14  C   UNL     1      -7.704 -11.075  18.154  0.00  0.00    +0.027 A 
ATOM     15  C   UNL     1     -11.554 -10.961  17.990  0.00  0.00    +0.216 C 
ATOM     16  C   UNL     1      -7.082  -9.901  17.955  0.00  0.00    +0.024 A 
ATOM     17  C   UNL     1      -7.479 -11.648  15.777  0.00  0.00    +0.273 A 
ATOM     20  C   UNL     1      -6.811 -10.320  15.593  0.00  0.00    +0.099 A 
ATOM     21  C   UNL     1      -6.628  -9.519  16.648  0.00  0.00    +0.030 A 
ENDROOT
BRANCH  20   7
ATOM      4  O   UNL     1      -4.242 -10.840  14.465  0.00  0.00    -0.270 OA
ATOM      7  N   UNL     1      -6.399  -9.980  14.339  0.00  0.00    -0.277 N 
ATOM     25  C   UNL     1      -5.132 -10.262  13.847  0.00  0.00    +0.248 C 
ATOM     32  H   UNL     1      -7.030  -9.371  13.828  0.00  0.00    +0.155 HD
BRANCH  25  26
ATOM      1  F   UNL     1      -4.164  -8.650   8.590  0.00  0.00    -0.205 F 
ATOM     26  C   UNL     1      -4.875  -9.834  12.448  0.00  0.00    +0.037 A 
ATOM     27  C   UNL     1      -5.822  -9.066  11.801  0.00  0.00    +0.016 A 
ATOM     28  C   UNL     1      -3.697 -10.217  11.840  0.00  0.00    +0.016 A 
ATOM     29  C   UNL     1      -5.579  -8.664  10.488  0.00  0.00    +0.039 A 
ATOM     30  C   UNL     1      -3.455  -9.813  10.526  0.00  0.00    +0.039 A 
ATOM     31  C   UNL     1      -4.396  -9.037   9.851  0.00  0.00    +0.123 A 
ENDBRANCH  25  26
ENDBRANCH  20   7
BRANCH  15  18
ATOM     18  C   UNL     1     -11.630  -9.460  18.102  0.00  0.00    +0.102 C 
BRANCH  18  19
ATOM     19  C   UNL     1     -11.107  -8.738  16.846  0.00  0.00    -0.029 C 
ATOM     22  C   UNL     1     -10.494  -9.735  15.848  0.00  0.00    +0.011 C 
ATOM     23  C   UNL     1     -10.059  -7.673  17.212  0.00  0.00    +0.011 C 
ATOM     24  C   UNL     1     -12.303  -8.040  16.171  0.00  0.00    +0.011 C 
ENDBRANCH  18  19
ENDBRANCH  15  18
TORSDOF 4
ENDMDL
MODEL 3
REMARK VINA RESULT:      -6.7     10.495     14.196
REMARK  Name = 7142707
REMARK  7 active torsions:
REMARK  status: ('A' for Active; 'I' for Inactive)
REMARK    1  A    between atoms: N_7  and  C_20
REMARK    2  A    between atoms: C_15  and  C_18
REMARK    3  A    between atoms: C_18  and  C_19
REMARK    4  A    between atoms: C_19  and  C_22
REMARK    5  A    between atoms: C_19  and  C_23
REMARK    6  A    between atoms: C_19  and  C_24
REMARK    7  A    between atoms: C_25  and  C_26
REMARK                            x       y       z     vdW  Elec       q    Type
REMARK                         _______ _______ _______ _____ _____    ______ ____
ROOT
ATOM      2  O   UNL     1     -16.621  -5.380  10.526  0.00  0.00    -0.276 OA
ATOM      3  O   UNL     1     -11.825  -7.522   9.482  0.00  0.00    -0.266 OA
ATOM      5  N   UNL     1     -14.955  -4.302  11.734  0.00  0.00    -0.301 N 
ATOM      6  N   UNL     1     -12.201  -5.646  10.824  0.00  0.00    -0.310 N 
ATOM      8  C   UNL     1     -13.433  -5.770  13.064  0.00  0.00    +0.027 C 
ATOM      9  C   UNL     1     -12.621  -3.602  12.236  0.00  0.00    +0.054 C 
ATOM     10  C   UNL     1     -12.597  -4.550  13.432  0.00  0.00    +0.018 C 
ATOM     11  C   UNL     1     -14.881  -5.354  12.748  0.00  0.00    +0.113 C 
ATOM     12  C   UNL     1     -14.069  -3.150  11.962  0.00  0.00    +0.117 C 
ATOM     13  C   UNL     1     -12.769  -6.488  11.884  0.00  0.00    +0.130 C 
ATOM     14  C   UNL     1     -12.046  -4.267  10.999  0.00  0.00    +0.027 A 
ATOM     15  C   UNL     1     -15.886  -4.405  10.700  0.00  0.00    +0.216 C 
ATOM     16  C   UNL     1     -11.419  -3.534  10.065  0.00  0.00    +0.024 A 
ATOM     17  C   UNL     1     -11.728  -6.309   9.673  0.00  0.00    +0.273 A 
ATOM     20  C   UNL     1     -11.057  -5.452   8.645  0.00  0.00    +0.099 A 
ATOM     21  C   UNL     1     -10.916  -4.140   8.865  0.00  0.00    +0.030 A 
ENDROOT
BRANCH  20   7
ATOM      4  O   UNL     1      -8.403  -6.400   8.197  0.00  0.00    -0.270 OA
ATOM      7  N   UNL     1     -10.598  -6.054   7.511  0.00  0.00    -0.277 N 
ATOM     25  C   UNL     1      -9.291  -6.495   7.355  0.00  0.00    +0.248 C 
ATOM     32  H   UNL     1     -11.235  -6.031   6.722  0.00  0.00    +0.155 HD
BRANCH  25  26
ATOM      1  F   UNL     1      -8.133  -8.950   2.475  0.00  0.00    -0.205 F 
ATOM     26  C   UNL     1      -8.983  -7.149   6.057  0.00  0.00    +0.037 A 
ATOM     27  C   UNL     1      -9.911  -7.078   5.039  0.00  0.00    +0.016 A 
ATOM     28  C   UNL     1      -7.779  -7.806   5.911  0.00  0.00    +0.016 A 
ATOM     29  C   UNL     1      -9.622  -7.691   3.820  0.00  0.00    +0.039 A 
ATOM     30  C   UNL     1      -7.490  -8.419   4.691  0.00  0.00    +0.039 A 
ATOM     31  C   UNL     1      -8.411  -8.362   3.646  0.00  0.00    +0.123 A 
ENDBRANCH  25  26
ENDBRANCH  20   7
BRANCH  15  18
ATOM     18  C   UNL     1     -15.970  -3.240   9.748  0.00  0.00    +0.102 C 
BRANCH  18  19
ATOM     19  C   UNL     1     -15.372  -3.553   8.364  0.00  0.00    -0.029 C 
ATOM     22  C   UNL     1     -16.447  -3.487   7.266  0.00  0.00    +0.011 C 
ATOM     23  C   UNL     1     -14.708  -4.940   8.347  0.00  0.00    +0.011 C 
ATOM     24  C   UNL     1     -14.298  -2.490   8.063  0.00  0.00    +0.011 C 
ENDBRANCH  18  19
ENDBRANCH  15  18
TORSDOF 4
ENDMDL
MODEL 4
REMARK VINA RESULT:      -6.7     25.963     29.812
REMARK  Name = 7142707
REMARK  7 active torsions:
REMARK  status: ('A' for Active; 'I' for Inactive)
REMARK    1  A    between atoms: N_7  and  C_20
REMARK    2  A    between atoms: C_15  and  C_18
REMARK    3  A    between atoms: C_18  and  C_19
REMARK    4  A    between atoms: C_19  and  C_22
REMARK    5  A    between atoms: C_19  and  C_23
REMARK    6  A    between atoms: C_19  and  C_24
REMARK    7  A    between atoms: C_25  and  C_26
REMARK                            x       y       z     vdW  Elec       q    Type
REMARK                         _______ _______ _______ _____ _____    ______ ____
ROOT
ATOM      2  O   UNL     1      10.167   4.768   3.813  0.00  0.00    -0.276 OA
ATOM      3  O   UNL     1      13.871   6.348   7.343  0.00  0.00    -0.266 OA
ATOM      5  N   UNL     1       9.364   6.506   5.129  0.00  0.00    -0.301 N 
ATOM      6  N   UNL     1      11.791   7.365   7.024  0.00  0.00    -0.310 N 
ATOM      8  C   UNL     1       9.581   6.209   7.600  0.00  0.00    +0.027 C 
ATOM      9  C   UNL     1       9.561   8.473   6.640  0.00  0.00    +0.054 C 
ATOM     10  C   UNL     1       9.056   7.624   7.804  0.00  0.00    +0.018 C 
ATOM     11  C   UNL     1       9.072   5.633   6.267  0.00  0.00    +0.113 C 
ATOM     12  C   UNL     1       9.001   7.920   5.315  0.00  0.00    +0.117 C 
ATOM     13  C   UNL     1      11.113   6.234   7.669  0.00  0.00    +0.130 C 
ATOM     14  C   UNL     1      11.077   8.488   6.592  0.00  0.00    +0.027 A 
ATOM     15  C   UNL     1       9.868   5.957   3.950  0.00  0.00    +0.216 C 
ATOM     16  C   UNL     1      11.729   9.560   6.111  0.00  0.00    +0.024 A 
ATOM     17  C   UNL     1      13.198   7.307   6.959  0.00  0.00    +0.273 A 
ATOM     20  C   UNL     1      13.885   8.512   6.395  0.00  0.00    +0.099 A 
ATOM     21  C   UNL     1      13.161   9.568   6.011  0.00  0.00    +0.030 A 
ENDROOT
BRANCH  20   7
ATOM      4  O   UNL     1      15.406   8.327   3.987  0.00  0.00    -0.270 OA
ATOM      7  N   UNL     1      15.245   8.488   6.302  0.00  0.00    -0.277 N 
ATOM     25  C   UNL     1      15.928   8.397   5.097  0.00  0.00    +0.248 C 
ATOM     32  H   UNL     1      15.736   8.392   7.184  0.00  0.00    +0.155 HD
BRANCH  25  26
ATOM      1  F   UNL     1      21.500   8.437   5.466  0.00  0.00    -0.205 F 
ATOM     26  C   UNL     1      17.411   8.408   5.194  0.00  0.00    +0.037 A 
ATOM     27  C   UNL     1      17.997   8.781   6.387  0.00  0.00    +0.016 A 
ATOM     28  C   UNL     1      18.154   8.046   4.091  0.00  0.00    +0.016 A 
ATOM     29  C   UNL     1      19.388   8.790   6.479  0.00  0.00    +0.039 A 
ATOM     30  C   UNL     1      19.547   8.056   4.184  0.00  0.00    +0.039 A 
ATOM     31  C   UNL     1      20.163   8.428   5.377  0.00  0.00    +0.123 A 
ENDBRANCH  25  26
ENDBRANCH  20   7
BRANCH  15  18
ATOM     18  C   UNL     1      10.055   6.901   2.790  0.00  0.00    +0.102 C 
BRANCH  18  19
ATOM     19  C   UNL     1      11.537   7.200   2.495  0.00  0.00    -0.029 C 
ATOM     22  C   UNL     1      11.943   6.675   1.106  0.00  0.00    +0.011 C 
ATOM     23  C   UNL     1      12.453   6.579   3.563  0.00  0.00    +0.011 C 
ATOM     24  C   UNL     1      11.723   8.729   2.515  0.00  0.00    +0.011 C 
ENDBRANCH  18  19
ENDBRANCH  15  18
TORSDOF 4
ENDMDL
MODEL 5
REMARK VINA RESULT:      -6.6     25.294     28.372
REMARK  Name = 7142707
REMARK  7 active torsions:
REMARK  status: ('A' for Active; 'I' for Inactive)
REMARK    1  A    between atoms: N_7  and  C_20
REMARK    2  A    between atoms: C_15  and  C_18
REMARK    3  A    between atoms: C_18  and  C_19
REMARK    4  A    between atoms: C_19  and  C_22
REMARK    5  A    between atoms: C_19  and  C_23
REMARK    6  A    between atoms: C_19  and  C_24
REMARK    7  A    between atoms: C_25  and  C_26
REMARK                            x       y       z     vdW  Elec       q    Type
REMARK                         _______ _______ _______ _____ _____    ______ ____
ROOT
ATOM      2  O   UNL     1      10.896   6.745  -2.966  0.00  0.00    -0.276 OA
ATOM      3  O   UNL     1      12.901   7.160   1.983  0.00  0.00    -0.266 OA
ATOM      5  N   UNL     1      12.565   5.167  -2.617  0.00  0.00    -0.301 N 
ATOM      6  N   UNL     1      13.478   5.514   0.428  0.00  0.00    -0.310 N 
ATOM      8  C   UNL     1      14.737   6.036  -1.739  0.00  0.00    +0.027 C 
ATOM      9  C   UNL     1      14.060   3.723  -1.247  0.00  0.00    +0.054 C 
ATOM     10  C   UNL     1      15.248   4.606  -1.622  0.00  0.00    +0.018 C 
ATOM     11  C   UNL     1      13.647   6.131  -2.822  0.00  0.00    +0.113 C 
ATOM     12  C   UNL     1      12.998   3.784  -2.363  0.00  0.00    +0.117 C 
ATOM     13  C   UNL     1      14.228   6.494  -0.367  0.00  0.00    +0.130 C 
ATOM     14  C   UNL     1      13.447   4.162   0.070  0.00  0.00    +0.027 A 
ATOM     15  C   UNL     1      11.240   5.580  -2.753  0.00  0.00    +0.216 C 
ATOM     16  C   UNL     1      12.853   3.263   0.873  0.00  0.00    +0.024 A 
ATOM     17  C   UNL     1      12.884   5.983   1.617  0.00  0.00    +0.273 A 
ATOM     20  C   UNL     1      12.212   4.954   2.472  0.00  0.00    +0.099 A 
ATOM     21  C   UNL     1      12.223   3.670   2.097  0.00  0.00    +0.030 A 
ENDROOT
BRANCH  20   7
ATOM      4  O   UNL     1       9.581   6.032   2.708  0.00  0.00    -0.270 OA
ATOM      7  N   UNL     1      11.614   5.371   3.624  0.00  0.00    -0.277 N 
ATOM     25  C   UNL     1      10.326   5.888   3.673  0.00  0.00    +0.248 C 
ATOM     32  H   UNL     1      12.222   5.419   4.433  0.00  0.00    +0.155 HD
BRANCH  25  26
ATOM      1  F   UNL     1       8.487   7.314   8.748  0.00  0.00    -0.205 F 
ATOM     26  C   UNL     1       9.835   6.267   5.023  0.00  0.00    +0.037 A 
ATOM     27  C   UNL     1      10.089   5.423   6.085  0.00  0.00    +0.016 A 
ATOM     28  C   UNL     1       9.143   7.451   5.172  0.00  0.00    +0.016 A 
ATOM     29  C   UNL     1       9.630   5.780   7.353  0.00  0.00    +0.039 A 
ATOM     30  C   UNL     1       8.684   7.807   6.441  0.00  0.00    +0.039 A 
ATOM     31  C   UNL     1       8.928   6.972   7.531  0.00  0.00    +0.123 A 
ENDBRANCH  25  26
ENDBRANCH  20   7
BRANCH  15  18
ATOM     18  C   UNL     1      10.183   4.513  -2.621  0.00  0.00    +0.102 C 
BRANCH  18  19
ATOM     19  C   UNL     1       9.682   3.994  -3.982  0.00  0.00    -0.029 C 
ATOM     22  C   UNL     1       9.473   2.471  -3.953  0.00  0.00    +0.011 C 
ATOM     23  C   UNL     1      10.665   4.353  -5.110  0.00  0.00    +0.011 C 
ATOM     24  C   UNL     1       8.329   4.670  -4.275  0.00  0.00    +0.011 C 
ENDBRANCH  18  19
ENDBRANCH  15  18
TORSDOF 4
ENDMDL
MODEL 6
REMARK VINA RESULT:      -6.6     25.686     28.855
REMARK  Name = 7142707
REMARK  7 active torsions:
REMARK  status: ('A' for Active; 'I' for Inactive)
REMARK    1  A    between atoms: N_7  and  C_20
REMARK    2  A    between atoms: C_15  and  C_18
REMARK    3  A    between atoms: C_18  and  C_19
REMARK    4  A    between atoms: C_19  and  C_22
REMARK    5  A    between atoms: C_19  and  C_23
REMARK    6  A    between atoms: C_19  and  C_24
REMARK    7  A    between atoms: C_25  and  C_26
REMARK                            x       y       z     vdW  Elec       q    Type
REMARK                         _______ _______ _______ _____ _____    ______ ____
ROOT
ATOM      2  O   UNL     1       7.525   8.533   4.680  0.00  0.00    -0.276 OA
ATOM      3  O   UNL     1      10.268   4.355   2.756  0.00  0.00    -0.266 OA
ATOM      5  N   UNL     1       9.412   8.120   5.971  0.00  0.00    -0.301 N 
ATOM      6  N   UNL     1      10.945   5.708   4.537  0.00  0.00    -0.310 N 
ATOM      8  C   UNL     1       9.705   5.773   6.775  0.00  0.00    +0.027 C 
ATOM      9  C   UNL     1      11.678   7.200   6.431  0.00  0.00    +0.054 C 
ATOM     10  C   UNL     1      11.061   6.154   7.356  0.00  0.00    +0.018 C 
ATOM     11  C   UNL     1       8.790   7.008   6.690  0.00  0.00    +0.113 C 
ATOM     12  C   UNL     1      10.781   8.453   6.395  0.00  0.00    +0.117 C 
ATOM     13  C   UNL     1       9.919   5.118   5.406  0.00  0.00    +0.130 C 
ATOM     14  C   UNL     1      11.854   6.652   5.027  0.00  0.00    +0.027 A 
ATOM     15  C   UNL     1       8.672   8.828   5.023  0.00  0.00    +0.216 C 
ATOM     16  C   UNL     1      12.856   7.092   4.249  0.00  0.00    +0.024 A 
ATOM     17  C   UNL     1      11.033   5.200   3.225  0.00  0.00    +0.273 A 
ATOM     20  C   UNL     1      12.150   5.734   2.382  0.00  0.00    +0.099 A 
ATOM     21  C   UNL     1      13.005   6.622   2.900  0.00  0.00    +0.030 A 
ENDROOT
BRANCH  20   7
ATOM      4  O   UNL     1      13.536   3.383   1.547  0.00  0.00    -0.270 OA
ATOM      7  N   UNL     1      12.260   5.277   1.103  0.00  0.00    -0.277 N 
ATOM     25  C   UNL     1      12.950   4.122   0.760  0.00  0.00    +0.248 C 
ATOM     32  H   UNL     1      11.929   5.914   0.387  0.00  0.00    +0.155 HD
BRANCH  25  26
ATOM      1  F   UNL     1      12.917   2.799  -4.665  0.00  0.00    -0.205 F 
ATOM     26  C   UNL     1      12.940   3.770  -0.684  0.00  0.00    +0.037 A 
ATOM     27  C   UNL     1      13.678   4.538  -1.561  0.00  0.00    +0.016 A 
ATOM     28  C   UNL     1      12.195   2.687  -1.101  0.00  0.00    +0.016 A 
ATOM     29  C   UNL     1      13.669   4.207  -2.916  0.00  0.00    +0.039 A 
ATOM     30  C   UNL     1      12.187   2.356  -2.457  0.00  0.00    +0.039 A 
ATOM     31  C   UNL     1      12.924   3.117  -3.364  0.00  0.00    +0.123 A 
ENDBRANCH  25  26
ENDBRANCH  20   7
BRANCH  15  18
ATOM     18  C   UNL     1       9.347  10.018   4.391  0.00  0.00    +0.102 C 
BRANCH  18  19
ATOM     19  C   UNL     1       9.765   9.764   2.931  0.00  0.00    -0.029 C 
ATOM     22  C   UNL     1       9.456   8.318   2.509  0.00  0.00    +0.011 C 
ATOM     23  C   UNL     1      11.262  10.047   2.724  0.00  0.00    +0.011 C 
ATOM     24  C   UNL     1       8.955  10.721   2.035  0.00  0.00    +0.011 C 
ENDBRANCH  18  19
ENDBRANCH  15  18
TORSDOF 4
ENDMDL
MODEL 7
REMARK VINA RESULT:      -6.4     24.435     26.311
REMARK  Name = 7142707
REMARK  7 active torsions:
REMARK  status: ('A' for Active; 'I' for Inactive)
REMARK    1  A    between atoms: N_7  and  C_20
REMARK    2  A    between atoms: C_15  and  C_18
REMARK    3  A    between atoms: C_18  and  C_19
REMARK    4  A    between atoms: C_19  and  C_22
REMARK    5  A    between atoms: C_19  and  C_23
REMARK    6  A    between atoms: C_19  and  C_24
REMARK    7  A    between atoms: C_25  and  C_26
REMARK                            x       y       z     vdW  Elec       q    Type
REMARK                         _______ _______ _______ _____ _____    ______ ____
ROOT
ATOM      2  O   UNL     1      19.972  -2.311  24.609  0.00  0.00    -0.276 OA
ATOM      3  O   UNL     1      18.224  -5.384  28.631  0.00  0.00    -0.266 OA
ATOM      5  N   UNL     1      20.076  -4.560  24.034  0.00  0.00    -0.301 N 
ATOM      6  N   UNL     1      18.842  -6.156  26.514  0.00  0.00    -0.310 N 
ATOM      8  C   UNL     1      21.250  -6.057  25.652  0.00  0.00    +0.027 C 
ATOM      9  C   UNL     1      19.476  -6.968  24.214  0.00  0.00    +0.054 C 
ATOM     10  C   UNL     1      20.851  -7.262  24.810  0.00  0.00    +0.018 C 
ATOM     11  C   UNL     1      21.312  -4.789  24.783  0.00  0.00    +0.113 C 
ATOM     12  C   UNL     1      19.561  -5.727  23.303  0.00  0.00    +0.117 C 
ATOM     13  C   UNL     1      20.259  -5.913  26.813  0.00  0.00    +0.130 C 
ATOM     14  C   UNL     1      18.446  -6.736  25.304  0.00  0.00    +0.027 A 
ATOM     15  C   UNL     1      19.526  -3.278  23.987  0.00  0.00    +0.216 C 
ATOM     16  C   UNL     1      17.158  -7.057  25.099  0.00  0.00    +0.024 A 
ATOM     17  C   UNL     1      17.920  -5.876  27.543  0.00  0.00    +0.273 A 
ATOM     20  C   UNL     1      16.491  -6.227  27.265  0.00  0.00    +0.099 A 
ATOM     21  C   UNL     1      16.163  -6.795  26.100  0.00  0.00    +0.030 A 
ENDROOT
BRANCH  20   7
ATOM      4  O   UNL     1      15.632  -8.013  29.317  0.00  0.00    -0.270 OA
ATOM      7  N   UNL     1      15.567  -5.958  28.231  0.00  0.00    -0.277 N 
ATOM     25  C   UNL     1      15.191  -6.873  29.205  0.00  0.00    +0.248 C 
ATOM     32  H   UNL     1      15.056  -5.091  28.109  0.00  0.00    +0.155 HD
BRANCH  25  26
ATOM      1  F   UNL     1      11.417  -5.063  32.901  0.00  0.00    -0.205 F 
ATOM     26  C   UNL     1      14.187  -6.390  30.188  0.00  0.00    +0.037 A 
ATOM     27  C   UNL     1      12.965  -7.027  30.258  0.00  0.00    +0.016 A 
ATOM     28  C   UNL     1      14.508  -5.322  30.999  0.00  0.00    +0.016 A 
ATOM     29  C   UNL     1      12.022  -6.575  31.182  0.00  0.00    +0.039 A 
ATOM     30  C   UNL     1      13.565  -4.870  31.923  0.00  0.00    +0.039 A 
ATOM     31  C   UNL     1      12.322  -5.497  32.014  0.00  0.00    +0.123 A 
ENDBRANCH  25  26
ENDBRANCH  20   7
BRANCH  15  18
ATOM     18  C   UNL     1      18.306  -3.098  23.121  0.00  0.00    +0.102 C 
BRANCH  18  19
ATOM     19  C   UNL     1      17.102  -2.526  23.893  0.00  0.00    -0.029 C 
ATOM     22  C   UNL     1      17.189  -0.994  24.001  0.00  0.00    +0.011 C 
ATOM     23  C   UNL     1      17.007  -3.133  25.303  0.00  0.00    +0.011 C 
ATOM     24  C   UNL     1      15.825  -2.891  23.113  0.00  0.00    +0.011 C 
ENDBRANCH  18  19
ENDBRANCH  15  18
TORSDOF 4
ENDMDL
MODEL 8
REMARK VINA RESULT:      -6.4      4.056      7.958
REMARK  Name = 7142707
REMARK  7 active torsions:
REMARK  status: ('A' for Active; 'I' for Inactive)
REMARK    1  A    between atoms: N_7  and  C_20
REMARK    2  A    between atoms: C_15  and  C_18
REMARK    3  A    between atoms: C_18  and  C_19
REMARK    4  A    between atoms: C_19  and  C_22
REMARK    5  A    between atoms: C_19  and  C_23
REMARK    6  A    between atoms: C_19  and  C_24
REMARK    7  A    between atoms: C_25  and  C_26
REMARK                            x       y       z     vdW  Elec       q    Type
REMARK                         _______ _______ _______ _____ _____    ______ ____
ROOT
ATOM      2  O   UNL     1      -6.852 -10.115  20.084  0.00  0.00    -0.276 OA
ATOM      3  O   UNL     1      -8.520  -9.278  15.064  0.00  0.00    -0.266 OA
ATOM      5  N   UNL     1      -8.432 -11.701  19.464  0.00  0.00    -0.301 N 
ATOM      6  N   UNL     1      -9.142 -11.085  16.408  0.00  0.00    -0.310 N 
ATOM      8  C   UNL     1     -10.568 -10.817  18.517  0.00  0.00    +0.027 C 
ATOM      9  C   UNL     1      -9.772 -13.048  17.857  0.00  0.00    +0.054 C 
ATOM     10  C   UNL     1     -11.016 -12.243  18.226  0.00  0.00    +0.018 C 
ATOM     11  C   UNL     1      -9.561 -10.796  19.681  0.00  0.00    +0.113 C 
ATOM     12  C   UNL     1      -8.795 -13.065  19.049  0.00  0.00    +0.117 C 
ATOM     13  C   UNL     1      -9.982 -10.211  17.237  0.00  0.00    +0.130 C 
ATOM     14  C   UNL     1      -9.086 -12.464  16.636  0.00  0.00    +0.027 A 
ATOM     15  C   UNL     1      -7.135 -11.264  19.736  0.00  0.00    +0.216 C 
ATOM     16  C   UNL     1      -8.404 -13.261  15.797  0.00  0.00    +0.024 A 
ATOM     17  C   UNL     1      -8.485 -10.483  15.316  0.00  0.00    +0.273 A 
ATOM     20  C   UNL     1      -7.716 -11.403  14.418  0.00  0.00    +0.099 A 
ATOM     21  C   UNL     1      -7.706 -12.717  14.666  0.00  0.00    +0.030 A 
ENDROOT
BRANCH  20   7
ATOM      4  O   UNL     1      -4.982 -10.589  14.378  0.00  0.00    -0.270 OA
ATOM      7  N   UNL     1      -7.055 -10.856  13.358  0.00  0.00    -0.277 N 
ATOM     25  C   UNL     1      -5.719 -10.480  13.402  0.00  0.00    +0.248 C 
ATOM     32  H   UNL     1      -7.639 -10.602  12.570  0.00  0.00    +0.155 HD
BRANCH  25  26
ATOM      1  F   UNL     1      -3.638  -8.397   8.658  0.00  0.00    -0.205 F 
ATOM     26  C   UNL     1      -5.165  -9.925  12.140  0.00  0.00    +0.037 A 
ATOM     27  C   UNL     1      -3.925 -10.352  11.713  0.00  0.00    +0.016 A 
ATOM     28  C   UNL     1      -5.909  -9.002  11.435  0.00  0.00    +0.016 A 
ATOM     29  C   UNL     1      -3.405  -9.831  10.528  0.00  0.00    +0.039 A 
ATOM     30  C   UNL     1      -5.389  -8.482  10.249  0.00  0.00    +0.039 A 
ATOM     31  C   UNL     1      -4.137  -8.896   9.796  0.00  0.00    +0.123 A 
ENDBRANCH  25  26
ENDBRANCH  20   7
BRANCH  15  18
ATOM     18  C   UNL     1      -6.033 -12.280  19.580  0.00  0.00    +0.102 C 
BRANCH  18  19
ATOM     19  C   UNL     1      -5.136 -12.007  18.359  0.00  0.00    -0.029 C 
ATOM     22  C   UNL     1      -5.603 -10.756  17.595  0.00  0.00    +0.011 C 
ATOM     23  C   UNL     1      -5.116 -13.212  17.403  0.00  0.00    +0.011 C 
ATOM     24  C   UNL     1      -3.704 -11.762  18.872  0.00  0.00    +0.011 C 
ENDBRANCH  18  19
ENDBRANCH  15  18
TORSDOF 4
ENDMDL
MODEL 9
REMARK VINA RESULT:      -6.4     20.918     23.094
REMARK  Name = 7142707
REMARK  7 active torsions:
REMARK  status: ('A' for Active; 'I' for Inactive)
REMARK    1  A    between atoms: N_7  and  C_20
REMARK    2  A    between atoms: C_15  and  C_18
REMARK    3  A    between atoms: C_18  and  C_19
REMARK    4  A    between atoms: C_19  and  C_22
REMARK    5  A    between atoms: C_19  and  C_23
REMARK    6  A    between atoms: C_19  and  C_24
REMARK    7  A    between atoms: C_25  and  C_26
REMARK                            x       y       z     vdW  Elec       q    Type
REMARK                         _______ _______ _______ _____ _____    ______ ____
ROOT
ATOM      2  O   UNL     1       8.996  -8.850  37.347  0.00  0.00    -0.276 OA
ATOM      3  O   UNL     1       9.750  -9.182  32.055  0.00  0.00    -0.266 OA
ATOM      5  N   UNL     1       8.428  -6.853  36.305  0.00  0.00    -0.301 N 
ATOM      6  N   UNL     1       8.811  -7.357  33.172  0.00  0.00    -0.310 N 
ATOM      8  C   UNL     1      10.147  -5.878  34.777  0.00  0.00    +0.027 C 
ATOM      9  C   UNL     1       7.764  -5.413  34.387  0.00  0.00    +0.054 C 
ATOM     10  C   UNL     1       9.158  -4.791  34.377  0.00  0.00    +0.018 C 
ATOM     11  C   UNL     1       9.818  -6.414  36.182  0.00  0.00    +0.113 C 
ATOM     12  C   UNL     1       7.424  -5.898  35.810  0.00  0.00    +0.117 C 
ATOM     13  C   UNL     1      10.122  -6.986  33.718  0.00  0.00    +0.130 C 
ATOM     14  C   UNL     1       7.677  -6.574  33.413  0.00  0.00    +0.027 A 
ATOM     15  C   UNL     1       8.140  -8.062  36.938  0.00  0.00    +0.216 C 
ATOM     16  C   UNL     1       6.513  -6.866  32.810  0.00  0.00    +0.024 A 
ATOM     17  C   UNL     1       8.775  -8.474  32.312  0.00  0.00    +0.273 A 
ATOM     20  C   UNL     1       7.453  -8.780  31.679  0.00  0.00    +0.099 A 
ATOM     21  C   UNL     1       6.402  -7.992  31.927  0.00  0.00    +0.030 A 
ENDROOT
BRANCH  20   7
ATOM      4  O   UNL     1       6.387 -11.340  32.352  0.00  0.00    -0.270 OA
ATOM      7  N   UNL     1       7.375  -9.862  30.852  0.00  0.00    -0.277 N 
ATOM     25  C   UNL     1       6.843 -11.084  31.241  0.00  0.00    +0.248 C 
ATOM     32  H   UNL     1       7.867  -9.767  29.971  0.00  0.00    +0.155 HD
BRANCH  25  26
ATOM      1  F   UNL     1       6.756 -15.043  27.305  0.00  0.00    -0.205 F 
ATOM     26  C   UNL     1       6.821 -12.138  30.194  0.00  0.00    +0.037 A 
ATOM     27  C   UNL     1       5.813 -13.080  30.219  0.00  0.00    +0.016 A 
ATOM     28  C   UNL     1       7.808 -12.141  29.230  0.00  0.00    +0.016 A 
ATOM     29  C   UNL     1       5.791 -14.068  29.235  0.00  0.00    +0.039 A 
ATOM     30  C   UNL     1       7.785 -13.130  28.246  0.00  0.00    +0.039 A 
ATOM     31  C   UNL     1       6.777 -14.094  28.249  0.00  0.00    +0.123 A 
ENDBRANCH  25  26
ENDBRANCH  20   7
BRANCH  15  18
ATOM     18  C   UNL     1       6.682  -8.404  37.112  0.00  0.00    +0.102 C 
BRANCH  18  19
ATOM     19  C   UNL     1       6.228  -9.567  36.211  0.00  0.00    -0.029 C 
ATOM     22  C   UNL     1       5.798 -10.783  37.050  0.00  0.00    +0.011 C 
ATOM     23  C   UNL     1       7.345  -9.987  35.240  0.00  0.00    +0.011 C 
ATOM     24  C   UNL     1       5.017  -9.084  35.390  0.00  0.00    +0.011 C 
ENDBRANCH  18  19
ENDBRANCH  15  18
TORSDOF 4
ENDMDL
MODEL 10
REMARK VINA RESULT:      -6.4     30.851     33.204
REMARK  Name = 7142707
REMARK  7 active torsions:
REMARK  status: ('A' for Active; 'I' for Inactive)
REMARK    1  A    between atoms: N_7  and  C_20
REMARK    2  A    between atoms: C_15  and  C_18
REMARK    3  A    between atoms: C_18  and  C_19
REMARK    4  A    between atoms: C_19  and  C_22
REMARK    5  A    between atoms: C_19  and  C_23
REMARK    6  A    between atoms: C_19  and  C_24
REMARK    7  A    between atoms: C_25  and  C_26
REMARK                            x       y       z     vdW  Elec       q    Type
REMARK                         _______ _______ _______ _____ _____    ______ ____
ROOT
ATOM      2  O   UNL     1      23.914   2.798  25.383  0.00  0.00    -0.276 OA
ATOM      3  O   UNL     1      21.166   3.251  20.808  0.00  0.00    -0.266 OA
ATOM      5  N   UNL     1      25.347   3.178  23.594  0.00  0.00    -0.301 N 
ATOM      6  N   UNL     1      23.471   3.566  21.034  0.00  0.00    -0.310 N 
ATOM      8  C   UNL     1      25.077   1.663  21.626  0.00  0.00    +0.027 C 
ATOM      9  C   UNL     1      25.948   3.940  21.303  0.00  0.00    +0.054 C 
ATOM     10  C   UNL     1      26.110   2.486  20.866  0.00  0.00    +0.018 C 
ATOM     11  C   UNL     1      25.302   1.786  23.143  0.00  0.00    +0.113 C 
ATOM     12  C   UNL     1      26.228   4.060  22.813  0.00  0.00    +0.117 C 
ATOM     13  C   UNL     1      23.675   2.123  21.211  0.00  0.00    +0.130 C 
ATOM     14  C   UNL     1      24.553   4.451  20.995  0.00  0.00    +0.027 A 
ATOM     15  C   UNL     1      24.649   3.554  24.742  0.00  0.00    +0.216 C 
ATOM     16  C   UNL     1      24.354   5.750  20.716  0.00  0.00    +0.024 A 
ATOM     17  C   UNL     1      22.148   3.995  20.802  0.00  0.00    +0.273 A 
ATOM     20  C   UNL     1      21.967   5.455  20.518  0.00  0.00    +0.099 A 
ATOM     21  C   UNL     1      23.034   6.259  20.474  0.00  0.00    +0.030 A 
ENDROOT
BRANCH  20   7
ATOM      4  O   UNL     1      20.172   6.444  22.504  0.00  0.00    -0.270 OA
ATOM      7  N   UNL     1      20.700   5.911  20.302  0.00  0.00    -0.277 N 
ATOM     25  C   UNL     1      19.874   6.382  21.314  0.00  0.00    +0.248 C 
ATOM     32  H   UNL     1      20.337   5.751  19.370  0.00  0.00    +0.155 HD
BRANCH  25  26
ATOM      1  F   UNL     1      14.846   8.184  19.689  0.00  0.00    -0.205 F 
ATOM     26  C   UNL     1      18.535   6.861  20.882  0.00  0.00    +0.037 A 
ATOM     27  C   UNL     1      18.015   7.998  21.465  0.00  0.00    +0.016 A 
ATOM     28  C   UNL     1      17.857   6.154  19.912  0.00  0.00    +0.016 A 
ATOM     29  C   UNL     1      16.759   8.448  21.058  0.00  0.00    +0.039 A 
ATOM     30  C   UNL     1      16.600   6.605  19.505  0.00  0.00    +0.039 A 
ATOM     31  C   UNL     1      16.052   7.752  20.079  0.00  0.00    +0.123 A 
ENDBRANCH  25  26
ENDBRANCH  20   7
BRANCH  15  18
ATOM     18  C   UNL     1      24.817   4.980  25.198  0.00  0.00    +0.102 C 
BRANCH  18  19
ATOM     19  C   UNL     1      23.562   5.839  24.955  0.00  0.00    -0.029 C 
ATOM     22  C   UNL     1      23.900   7.094  24.132  0.00  0.00    +0.011 C 
ATOM     23  C   UNL     1      22.910   6.259  26.283  0.00  0.00    +0.011 C 
ATOM     24  C   UNL     1      22.555   4.987  24.160  0.00  0.00    +0.011 C 
ENDBRANCH  18  19
ENDBRANCH  15  18
TORSDOF 4
ENDMDL
