MODEL 1
REMARK VINA RESULT:      -7.7      0.000      0.000
REMARK  Name = 11886639
REMARK  12 active torsions:
REMARK  status: ('A' for Active; 'I' for Inactive)
REMARK    1  A    between atoms: O_3  and  C_13
REMARK    2  A    between atoms: O_3  and  C_18
REMARK    3  A    between atoms: N_5  and  C_12
REMARK    4  A    between atoms: N_8  and  C_21
REMARK    5  A    between atoms: N_9  and  C_19
REMARK    6  A    between atoms: N_9  and  C_30
REMARK    7  A    between atoms: N_9  and  C_31
REMARK    8  A    between atoms: C_17  and  C_19
REMARK    9  A    between atoms: C_20  and  C_22
REMARK   10  A    between atoms: C_20  and  C_23
REMARK   11  A    between atoms: C_20  and  C_24
REMARK   12  A    between atoms: C_20  and  C_25
REMARK                            x       y       z     vdW  Elec       q    Type
REMARK                         _______ _______ _______ _____ _____    ______ ____
ROOT
ATOM      1  O   UNL     1      16.179   8.721  20.292  0.00  0.00    -0.368 OA
ATOM      2  O   UNL     1      15.736   5.974  18.946  0.00  0.00    -0.368 OA
ATOM     10  C   UNL     1      15.007   6.678  19.975  0.00  0.00    +0.177 C 
ATOM     11  C   UNL     1      16.035   7.396  20.827  0.00  0.00    +0.192 C 
ATOM     12  C   UNL     1      14.190   7.791  19.347  0.00  0.00    +0.166 C 
ATOM     13  C   UNL     1      17.281   6.569  20.611  0.00  0.00    +0.235 C 
ATOM     14  C   UNL     1      15.189   8.943  19.278  0.00  0.00    +0.190 C 
ATOM     15  C   UNL     1      17.141   6.157  19.164  0.00  0.00    +0.207 C 
ENDROOT
BRANCH  12   5
ATOM      5  N   UNL     1      12.960   8.071  20.090  0.00  0.00    -0.244 N 
ATOM      6  N   UNL     1      11.842   7.377  19.838  0.00  0.00    -0.065 NA
ATOM      7  N   UNL     1      10.900   7.846  20.650  0.00  0.00    -0.133 NA
ATOM     16  C   UNL     1      12.775   8.999  21.063  0.00  0.00    +0.135 A 
ATOM     17  C   UNL     1      11.456   8.840  21.407  0.00  0.00    +0.097 A 
BRANCH  17  19
ATOM     19  C   UNL     1      10.667   9.565  22.411  0.00  0.00    +0.142 C 
BRANCH  19   9
ATOM      9  N   UNL     1      11.414  10.732  22.898  0.00  0.00    -0.303 NA
ATOM     30  C   UNL     1      11.133  11.897  22.064  0.00  0.00    +0.105 C 
ATOM     31  C   UNL     1      11.075  11.003  24.293  0.00  0.00    +0.105 C 
ENDBRANCH  19   9
ENDBRANCH  17  19
ENDBRANCH  12   5
BRANCH  13   3
ATOM      3  O   UNL     1      18.476   7.278  20.849  0.00  0.00    -0.442 OA
BRANCH   3  18
ATOM      4  O   UNL     1      19.635   6.543  22.679  0.00  0.00    -0.226 OA
ATOM      8  N   UNL     1      20.293   5.988  20.502  0.00  0.00    -0.251 N 
ATOM     18  C   UNL     1      19.500   6.586  21.462  0.00  0.00    +0.405 C 
ATOM     32  H   UNL     1      20.018   6.139  19.534  0.00  0.00    +0.158 HD
BRANCH   8  21
ATOM     21  C   UNL     1      21.444   5.189  20.696  0.00  0.00    +0.036 A 
ATOM     22  C   UNL     1      23.698   3.623  21.075  0.00  0.00    -0.042 A 
ATOM     26  C   UNL     1      22.699   5.765  20.574  0.00  0.00    +0.024 A 
ATOM     27  C   UNL     1      21.294   3.846  21.003  0.00  0.00    +0.024 A 
ATOM     28  C   UNL     1      23.833   4.976  20.765  0.00  0.00    +0.006 A 
ATOM     29  C   UNL     1      22.428   3.057  21.194  0.00  0.00    +0.006 A 
BRANCH  22  20
ATOM     20  C   UNL     1      24.911   2.780  21.280  0.00  0.00    -0.013 C 
ATOM     23  C   UNL     1      25.623   3.130  22.623  0.00  0.00    +0.015 C 
ATOM     24  C   UNL     1      24.656   1.237  21.333  0.00  0.00    +0.015 C 
ATOM     25  C   UNL     1      25.946   2.989  20.130  0.00  0.00    +0.015 C 
ENDBRANCH  22  20
ENDBRANCH   8  21
ENDBRANCH   3  18
ENDBRANCH  13   3
TORSDOF 7
ENDMDL
MODEL 2
REMARK VINA RESULT:      -7.6     29.857     33.443
REMARK  Name = 11886639
REMARK  12 active torsions:
REMARK  status: ('A' for Active; 'I' for Inactive)
REMARK    1  A    between atoms: O_3  and  C_13
REMARK    2  A    between atoms: O_3  and  C_18
REMARK    3  A    between atoms: N_5  and  C_12
REMARK    4  A    between atoms: N_8  and  C_21
REMARK    5  A    between atoms: N_9  and  C_19
REMARK    6  A    between atoms: N_9  and  C_30
REMARK    7  A    between atoms: N_9  and  C_31
REMARK    8  A    between atoms: C_17  and  C_19
REMARK    9  A    between atoms: C_20  and  C_22
REMARK   10  A    between atoms: C_20  and  C_23
REMARK   11  A    between atoms: C_20  and  C_24
REMARK   12  A    between atoms: C_20  and  C_25
REMARK                            x       y       z     vdW  Elec       q    Type
REMARK                         _______ _______ _______ _____ _____    ______ ____
ROOT
ATOM      1  O   UNL     1     -16.855   4.370  25.685  0.00  0.00    -0.368 OA
ATOM      2  O   UNL     1     -17.071   1.717  24.115  0.00  0.00    -0.368 OA
ATOM     10  C   UNL     1     -16.267   2.109  25.249  0.00  0.00    +0.177 C 
ATOM     11  C   UNL     1     -15.872   3.556  25.026  0.00  0.00    +0.192 C 
ATOM     12  C   UNL     1     -17.130   2.139  26.497  0.00  0.00    +0.166 C 
ATOM     13  C   UNL     1     -15.950   3.694  23.524  0.00  0.00    +0.235 C 
ATOM     14  C   UNL     1     -17.737   3.539  26.452  0.00  0.00    +0.190 C 
ATOM     15  C   UNL     1     -17.125   2.806  23.185  0.00  0.00    +0.207 C 
ENDROOT
BRANCH  12   5
ATOM      5  N   UNL     1     -16.373   1.822  27.709  0.00  0.00    -0.244 N 
ATOM      6  N   UNL     1     -16.257   0.553  28.124  0.00  0.00    -0.065 NA
ATOM      7  N   UNL     1     -15.530   0.572  29.236  0.00  0.00    -0.133 NA
ATOM     16  C   UNL     1     -15.732   2.688  28.534  0.00  0.00    +0.135 A 
ATOM     17  C   UNL     1     -15.201   1.872  29.500  0.00  0.00    +0.097 A 
BRANCH  17  19
ATOM     19  C   UNL     1     -14.393   2.230  30.673  0.00  0.00    +0.142 C 
BRANCH  19   9
ATOM      9  N   UNL     1     -15.235   2.273  31.876  0.00  0.00    -0.303 NA
ATOM     30  C   UNL     1     -14.554   1.625  32.993  0.00  0.00    +0.105 C 
ATOM     31  C   UNL     1     -15.572   3.655  32.208  0.00  0.00    +0.105 C 
ENDBRANCH  19   9
ENDBRANCH  17  19
ENDBRANCH  12   5
BRANCH  13   3
ATOM      3  O   UNL     1     -16.142   5.020  23.089  0.00  0.00    -0.442 OA
BRANCH   3  18
ATOM      4  O   UNL     1     -15.891   4.891  20.819  0.00  0.00    -0.226 OA
ATOM      8  N   UNL     1     -14.575   6.323  22.123  0.00  0.00    -0.251 N 
ATOM     18  C   UNL     1     -15.554   5.376  21.893  0.00  0.00    +0.405 C 
ATOM     32  H   UNL     1     -14.441   6.604  23.091  0.00  0.00    +0.158 HD
BRANCH   8  21
ATOM     21  C   UNL     1     -13.734   6.954  21.178  0.00  0.00    +0.036 A 
ATOM     22  C   UNL     1     -12.086   8.192  19.326  0.00  0.00    -0.042 A 
ATOM     26  C   UNL     1     -12.393   6.609  21.125  0.00  0.00    +0.024 A 
ATOM     27  C   UNL     1     -14.267   7.905  20.322  0.00  0.00    +0.024 A 
ATOM     28  C   UNL     1     -11.563   7.232  20.193  0.00  0.00    +0.006 A 
ATOM     29  C   UNL     1     -13.438   8.528  19.390  0.00  0.00    +0.006 A 
BRANCH  22  20
ATOM     20  C   UNL     1     -11.199   8.857  18.328  0.00  0.00    -0.013 C 
ATOM     23  C   UNL     1     -10.574   7.820  17.345  0.00  0.00    +0.015 C 
ATOM     24  C   UNL     1     -11.893   9.925  17.420  0.00  0.00    +0.015 C 
ATOM     25  C   UNL     1     -10.024   9.609  19.028  0.00  0.00    +0.015 C 
ENDBRANCH  22  20
ENDBRANCH   8  21
ENDBRANCH   3  18
ENDBRANCH  13   3
TORSDOF 7
ENDMDL
MODEL 3
REMARK VINA RESULT:      -6.8      1.300      2.064
REMARK  Name = 11886639
REMARK  12 active torsions:
REMARK  status: ('A' for Active; 'I' for Inactive)
REMARK    1  A    between atoms: O_3  and  C_13
REMARK    2  A    between atoms: O_3  and  C_18
REMARK    3  A    between atoms: N_5  and  C_12
REMARK    4  A    between atoms: N_8  and  C_21
REMARK    5  A    between atoms: N_9  and  C_19
REMARK    6  A    between atoms: N_9  and  C_30
REMARK    7  A    between atoms: N_9  and  C_31
REMARK    8  A    between atoms: C_17  and  C_19
REMARK    9  A    between atoms: C_20  and  C_22
REMARK   10  A    between atoms: C_20  and  C_23
REMARK   11  A    between atoms: C_20  and  C_24
REMARK   12  A    between atoms: C_20  and  C_25
REMARK                            x       y       z     vdW  Elec       q    Type
REMARK                         _______ _______ _______ _____ _____    ______ ____
ROOT
ATOM      1  O   UNL     1      16.092   9.192  20.237  0.00  0.00    -0.368 OA
ATOM      2  O   UNL     1      14.641   6.469  20.400  0.00  0.00    -0.368 OA
ATOM     10  C   UNL     1      14.575   7.653  21.223  0.00  0.00    +0.177 C 
ATOM     11  C   UNL     1      15.979   8.220  21.288  0.00  0.00    +0.192 C 
ATOM     12  C   UNL     1      13.765   8.721  20.513  0.00  0.00    +0.166 C 
ATOM     13  C   UNL     1      16.840   7.008  21.022  0.00  0.00    +0.235 C 
ATOM     14  C   UNL     1      14.809   9.402  19.632  0.00  0.00    +0.190 C 
ATOM     15  C   UNL     1      16.005   6.240  20.024  0.00  0.00    +0.207 C 
ENDROOT
BRANCH  12   5
ATOM      5  N   UNL     1      13.059   9.602  21.445  0.00  0.00    -0.244 N 
ATOM      6  N   UNL     1      12.030   9.141  22.167  0.00  0.00    -0.065 NA
ATOM      7  N   UNL     1      11.591  10.151  22.910  0.00  0.00    -0.133 NA
ATOM     16  C   UNL     1      13.313  10.911  21.698  0.00  0.00    +0.135 A 
ATOM     17  C   UNL     1      12.367  11.243  22.634  0.00  0.00    +0.097 A 
BRANCH  17  19
ATOM     19  C   UNL     1      12.133  12.531  23.299  0.00  0.00    +0.142 C 
BRANCH  19   9
ATOM      9  N   UNL     1      10.699  12.848  23.305  0.00  0.00    -0.303 NA
ATOM     30  C   UNL     1      10.295  13.337  24.620  0.00  0.00    +0.105 C 
ATOM     31  C   UNL     1      10.395  13.834  22.271  0.00  0.00    +0.105 C 
ENDBRANCH  19   9
ENDBRANCH  17  19
ENDBRANCH  12   5
BRANCH  13   3
ATOM      3  O   UNL     1      18.117   7.324  20.516  0.00  0.00    -0.442 OA
BRANCH   3  18
ATOM      4  O   UNL     1      19.468   6.972  22.328  0.00  0.00    -0.226 OA
ATOM      8  N   UNL     1      19.876   5.934  20.270  0.00  0.00    -0.251 N 
ATOM     18  C   UNL     1      19.199   6.752  21.153  0.00  0.00    +0.405 C 
ATOM     32  H   UNL     1      19.496   5.878  19.328  0.00  0.00    +0.158 HD
BRANCH   8  21
ATOM     21  C   UNL     1      21.036   5.162  20.511  0.00  0.00    +0.036 A 
ATOM     22  C   UNL     1      23.310   3.652  20.985  0.00  0.00    -0.042 A 
ATOM     26  C   UNL     1      20.903   3.843  20.912  0.00  0.00    +0.024 A 
ATOM     27  C   UNL     1      22.284   5.741  20.342  0.00  0.00    +0.024 A 
ATOM     28  C   UNL     1      22.048   3.082  21.150  0.00  0.00    +0.006 A 
ATOM     29  C   UNL     1      23.429   4.981  20.579  0.00  0.00    +0.006 A 
BRANCH  22  20
ATOM     20  C   UNL     1      24.535   2.838  21.238  0.00  0.00    -0.013 C 
ATOM     23  C   UNL     1      25.616   3.085  20.142  0.00  0.00    +0.015 C 
ATOM     24  C   UNL     1      25.253   3.111  22.600  0.00  0.00    +0.015 C 
ATOM     25  C   UNL     1      24.208   1.311  21.241  0.00  0.00    +0.015 C 
ENDBRANCH  22  20
ENDBRANCH   8  21
ENDBRANCH   3  18
ENDBRANCH  13   3
TORSDOF 7
ENDMDL
MODEL 4
REMARK VINA RESULT:      -6.7     28.267     31.297
REMARK  Name = 11886639
REMARK  12 active torsions:
REMARK  status: ('A' for Active; 'I' for Inactive)
REMARK    1  A    between atoms: O_3  and  C_13
REMARK    2  A    between atoms: O_3  and  C_18
REMARK    3  A    between atoms: N_5  and  C_12
REMARK    4  A    between atoms: N_8  and  C_21
REMARK    5  A    between atoms: N_9  and  C_19
REMARK    6  A    between atoms: N_9  and  C_30
REMARK    7  A    between atoms: N_9  and  C_31
REMARK    8  A    between atoms: C_17  and  C_19
REMARK    9  A    between atoms: C_20  and  C_22
REMARK   10  A    between atoms: C_20  and  C_23
REMARK   11  A    between atoms: C_20  and  C_24
REMARK   12  A    between atoms: C_20  and  C_25
REMARK                            x       y       z     vdW  Elec       q    Type
REMARK                         _______ _______ _______ _____ _____    ______ ____
ROOT
ATOM      1  O   UNL     1     -12.165  -8.066  14.495  0.00  0.00    -0.368 OA
ATOM      2  O   UNL     1     -11.150  -6.061  16.617  0.00  0.00    -0.368 OA
ATOM     10  C   UNL     1     -11.147  -6.029  15.173  0.00  0.00    +0.177 C 
ATOM     11  C   UNL     1     -10.886  -7.447  14.704  0.00  0.00    +0.192 C 
ATOM     12  C   UNL     1     -12.542  -5.712  14.670  0.00  0.00    +0.166 C 
ATOM     13  C   UNL     1     -10.156  -8.057  15.877  0.00  0.00    +0.235 C 
ATOM     14  C   UNL     1     -13.204  -7.086  14.629  0.00  0.00    +0.190 C 
ATOM     15  C   UNL     1     -10.833  -7.390  17.052  0.00  0.00    +0.207 C 
ENDROOT
BRANCH  12   5
ATOM      5  N   UNL     1     -12.528  -4.985  13.399  0.00  0.00    -0.244 N 
ATOM      6  N   UNL     1     -12.739  -3.662  13.372  0.00  0.00    -0.065 NA
ATOM      7  N   UNL     1     -12.672  -3.283  12.100  0.00  0.00    -0.133 NA
ATOM     16  C   UNL     1     -12.321  -5.493  12.158  0.00  0.00    +0.135 A 
ATOM     17  C   UNL     1     -12.417  -4.394  11.344  0.00  0.00    +0.097 A 
BRANCH  17  19
ATOM     19  C   UNL     1     -12.285  -4.307   9.884  0.00  0.00    +0.142 C 
BRANCH  19   9
ATOM      9  N   UNL     1     -11.219  -5.203   9.417  0.00  0.00    -0.303 NA
ATOM     30  C   UNL     1     -11.743  -6.139   8.426  0.00  0.00    +0.105 C 
ATOM     31  C   UNL     1     -10.114  -4.427   8.860  0.00  0.00    +0.105 C 
ENDBRANCH  19   9
ENDBRANCH  17  19
ENDBRANCH  12   5
BRANCH  13   3
ATOM      3  O   UNL     1     -10.254  -9.461  15.934  0.00  0.00    -0.442 OA
BRANCH   3  18
ATOM      4  O   UNL     1      -8.991 -11.221  16.666  0.00  0.00    -0.226 OA
ATOM      8  N   UNL     1      -8.065  -9.490  15.391  0.00  0.00    -0.251 N 
ATOM     18  C   UNL     1      -9.073 -10.164  16.053  0.00  0.00    +0.405 C 
ATOM     32  H   UNL     1      -8.330  -8.619  14.936  0.00  0.00    +0.158 HD
BRANCH   8  21
ATOM     21  C   UNL     1      -6.706  -9.860  15.265  0.00  0.00    +0.036 A 
ATOM     22  C   UNL     1      -4.043 -10.583  15.018  0.00  0.00    -0.042 A 
ATOM     26  C   UNL     1      -5.890  -9.840  16.386  0.00  0.00    +0.024 A 
ATOM     27  C   UNL     1      -6.216 -10.234  14.024  0.00  0.00    +0.024 A 
ATOM     28  C   UNL     1      -4.550 -10.205  16.261  0.00  0.00    +0.006 A 
ATOM     29  C   UNL     1      -4.875 -10.598  13.899  0.00  0.00    +0.006 A 
BRANCH  22  20
ATOM     20  C   UNL     1      -2.609 -10.974  14.885  0.00  0.00    -0.013 C 
ATOM     23  C   UNL     1      -1.933 -10.246  13.683  0.00  0.00    +0.015 C 
ATOM     24  C   UNL     1      -1.709 -10.659  16.124  0.00  0.00    +0.015 C 
ATOM     25  C   UNL     1      -2.462 -12.510  14.647  0.00  0.00    +0.015 C 
ENDBRANCH  22  20
ENDBRANCH   8  21
ENDBRANCH   3  18
ENDBRANCH  13   3
TORSDOF 7
ENDMDL
MODEL 5
REMARK VINA RESULT:      -6.7      1.754      2.673
REMARK  Name = 11886639
REMARK  12 active torsions:
REMARK  status: ('A' for Active; 'I' for Inactive)
REMARK    1  A    between atoms: O_3  and  C_13
REMARK    2  A    between atoms: O_3  and  C_18
REMARK    3  A    between atoms: N_5  and  C_12
REMARK    4  A    between atoms: N_8  and  C_21
REMARK    5  A    between atoms: N_9  and  C_19
REMARK    6  A    between atoms: N_9  and  C_30
REMARK    7  A    between atoms: N_9  and  C_31
REMARK    8  A    between atoms: C_17  and  C_19
REMARK    9  A    between atoms: C_20  and  C_22
REMARK   10  A    between atoms: C_20  and  C_23
REMARK   11  A    between atoms: C_20  and  C_24
REMARK   12  A    between atoms: C_20  and  C_25
REMARK                            x       y       z     vdW  Elec       q    Type
REMARK                         _______ _______ _______ _____ _____    ______ ____
ROOT
ATOM      1  O   UNL     1      15.044   9.314  20.177  0.00  0.00    -0.368 OA
ATOM      2  O   UNL     1      13.160   7.642  18.386  0.00  0.00    -0.368 OA
ATOM     10  C   UNL     1      13.075   8.048  19.769  0.00  0.00    +0.177 C 
ATOM     11  C   UNL     1      14.483   8.000  20.328  0.00  0.00    +0.192 C 
ATOM     12  C   UNL     1      12.686   9.513  19.845  0.00  0.00    +0.166 C 
ATOM     13  C   UNL     1      15.164   6.996  19.427  0.00  0.00    +0.235 C 
ATOM     14  C   UNL     1      14.031  10.223  19.727  0.00  0.00    +0.190 C 
ATOM     15  C   UNL     1      14.516   7.278  18.092  0.00  0.00    +0.207 C 
ENDROOT
BRANCH  12   5
ATOM      5  N   UNL     1      11.913   9.826  21.049  0.00  0.00    -0.244 N 
ATOM      6  N   UNL     1      10.989   8.970  21.504  0.00  0.00    -0.065 NA
ATOM      7  N   UNL     1      10.455   9.515  22.592  0.00  0.00    -0.133 NA
ATOM     16  C   UNL     1      12.002  10.938  21.821  0.00  0.00    +0.135 A 
ATOM     17  C   UNL     1      11.065  10.721  22.799  0.00  0.00    +0.097 A 
BRANCH  17  19
ATOM     19  C   UNL     1      10.694  11.577  23.933  0.00  0.00    +0.142 C 
BRANCH  19   9
ATOM      9  N   UNL     1      11.704  12.625  24.130  0.00  0.00    -0.303 NA
ATOM     30  C   UNL     1      11.057  13.917  24.343  0.00  0.00    +0.105 C 
ATOM     31  C   UNL     1      12.569  12.288  25.259  0.00  0.00    +0.105 C 
ENDBRANCH  19   9
ENDBRANCH  17  19
ENDBRANCH  12   5
BRANCH  13   3
ATOM      3  O   UNL     1      16.565   7.140  19.379  0.00  0.00    -0.442 OA
BRANCH   3  18
ATOM      4  O   UNL     1      16.782   6.153  21.430  0.00  0.00    -0.226 OA
ATOM      8  N   UNL     1      18.613   6.425  19.997  0.00  0.00    -0.251 N 
ATOM     18  C   UNL     1      17.290   6.528  20.380  0.00  0.00    +0.405 C 
ATOM     32  H   UNL     1      18.844   6.798  19.079  0.00  0.00    +0.158 HD
BRANCH   8  21
ATOM     21  C   UNL     1      19.689   5.865  20.722  0.00  0.00    +0.036 A 
ATOM     22  C   UNL     1      21.798   4.768  22.146  0.00  0.00    -0.042 A 
ATOM     26  C   UNL     1      20.297   4.711  20.254  0.00  0.00    +0.024 A 
ATOM     27  C   UNL     1      20.115   6.481  21.888  0.00  0.00    +0.024 A 
ATOM     28  C   UNL     1      21.359   4.159  20.970  0.00  0.00    +0.006 A 
ATOM     29  C   UNL     1      21.177   5.930  22.605  0.00  0.00    +0.006 A 
BRANCH  22  20
ATOM     20  C   UNL     1      22.935   4.179  22.911  0.00  0.00    -0.013 C 
ATOM     23  C   UNL     1      22.565   2.777  23.485  0.00  0.00    +0.015 C 
ATOM     24  C   UNL     1      24.253   3.962  22.097  0.00  0.00    +0.015 C 
ATOM     25  C   UNL     1      23.337   5.088  24.115  0.00  0.00    +0.015 C 
ENDBRANCH  22  20
ENDBRANCH   8  21
ENDBRANCH   3  18
ENDBRANCH  13   3
TORSDOF 7
ENDMDL
MODEL 6
REMARK VINA RESULT:      -6.5     28.677     30.613
REMARK  Name = 11886639
REMARK  12 active torsions:
REMARK  status: ('A' for Active; 'I' for Inactive)
REMARK    1  A    between atoms: O_3  and  C_13
REMARK    2  A    between atoms: O_3  and  C_18
REMARK    3  A    between atoms: N_5  and  C_12
REMARK    4  A    between atoms: N_8  and  C_21
REMARK    5  A    between atoms: N_9  and  C_19
REMARK    6  A    between atoms: N_9  and  C_30
REMARK    7  A    between atoms: N_9  and  C_31
REMARK    8  A    between atoms: C_17  and  C_19
REMARK    9  A    between atoms: C_20  and  C_22
REMARK   10  A    between atoms: C_20  and  C_23
REMARK   11  A    between atoms: C_20  and  C_24
REMARK   12  A    between atoms: C_20  and  C_25
REMARK                            x       y       z     vdW  Elec       q    Type
REMARK                         _______ _______ _______ _____ _____    ______ ____
ROOT
ATOM      1  O   UNL     1      -6.837 -12.060  17.511  0.00  0.00    -0.368 OA
ATOM      2  O   UNL     1      -6.136 -11.234  20.405  0.00  0.00    -0.368 OA
ATOM     10  C   UNL     1      -6.978 -10.627  19.401  0.00  0.00    +0.177 C 
ATOM     11  C   UNL     1      -6.296 -10.851  18.065  0.00  0.00    +0.192 C 
ATOM     12  C   UNL     1      -8.280 -11.397  19.297  0.00  0.00    +0.166 C 
ATOM     13  C   UNL     1      -4.846 -11.016  18.455  0.00  0.00    +0.235 C 
ATOM     14  C   UNL     1      -7.932 -12.515  18.318  0.00  0.00    +0.190 C 
ATOM     15  C   UNL     1      -4.954 -11.744  19.774  0.00  0.00    +0.207 C 
ENDROOT
BRANCH  12   5
ATOM      5  N   UNL     1      -9.405 -10.546  18.903  0.00  0.00    -0.244 N 
ATOM      6  N   UNL     1     -10.445 -10.371  19.729  0.00  0.00    -0.065 NA
ATOM      7  N   UNL     1     -11.302  -9.564  19.111  0.00  0.00    -0.133 NA
ATOM     16  C   UNL     1      -9.558  -9.865  17.739  0.00  0.00    +0.135 A 
ATOM     17  C   UNL     1     -10.773  -9.246  17.891  0.00  0.00    +0.097 A 
BRANCH  17  19
ATOM     19  C   UNL     1     -11.485  -8.362  16.959  0.00  0.00    +0.142 C 
BRANCH  19   9
ATOM      9  N   UNL     1     -10.616  -8.010  15.829  0.00  0.00    -0.303 NA
ATOM     30  C   UNL     1     -11.138  -8.584  14.592  0.00  0.00    +0.105 C 
ATOM     31  C   UNL     1     -10.498  -6.558  15.715  0.00  0.00    +0.105 C 
ENDBRANCH  19   9
ENDBRANCH  17  19
ENDBRANCH  12   5
BRANCH  13   3
ATOM      3  O   UNL     1      -4.087 -11.735  17.511  0.00  0.00    -0.442 OA
BRANCH   3  18
ATOM      4  O   UNL     1      -2.748 -10.365  16.261  0.00  0.00    -0.226 OA
ATOM      8  N   UNL     1      -4.680 -11.342  15.370  0.00  0.00    -0.251 N 
ATOM     18  C   UNL     1      -3.744 -11.072  16.350  0.00  0.00    +0.405 C 
ATOM     32  H   UNL     1      -5.444 -11.959  15.637  0.00  0.00    +0.158 HD
BRANCH   8  21
ATOM     21  C   UNL     1      -4.709 -10.868  14.039  0.00  0.00    +0.036 A 
ATOM     22  C   UNL     1      -4.767  -9.936  11.430  0.00  0.00    -0.042 A 
ATOM     26  C   UNL     1      -3.662 -11.175  13.185  0.00  0.00    +0.024 A 
ATOM     27  C   UNL     1      -5.785 -10.104  13.614  0.00  0.00    +0.024 A 
ATOM     28  C   UNL     1      -3.691 -10.706  11.872  0.00  0.00    +0.006 A 
ATOM     29  C   UNL     1      -5.815  -9.635  12.301  0.00  0.00    +0.006 A 
BRANCH  22  20
ATOM     20  C   UNL     1      -4.799  -9.435  10.025  0.00  0.00    -0.013 C 
ATOM     23  C   UNL     1      -5.237 -10.557   9.034  0.00  0.00    +0.015 C 
ATOM     24  C   UNL     1      -5.774  -8.241   9.760  0.00  0.00    +0.015 C 
ATOM     25  C   UNL     1      -3.393  -8.930   9.573  0.00  0.00    +0.015 C 
ENDBRANCH  22  20
ENDBRANCH   8  21
ENDBRANCH   3  18
ENDBRANCH  13   3
TORSDOF 7
ENDMDL
MODEL 7
REMARK VINA RESULT:      -6.5     27.765     31.776
REMARK  Name = 11886639
REMARK  12 active torsions:
REMARK  status: ('A' for Active; 'I' for Inactive)
REMARK    1  A    between atoms: O_3  and  C_13
REMARK    2  A    between atoms: O_3  and  C_18
REMARK    3  A    between atoms: N_5  and  C_12
REMARK    4  A    between atoms: N_8  and  C_21
REMARK    5  A    between atoms: N_9  and  C_19
REMARK    6  A    between atoms: N_9  and  C_30
REMARK    7  A    between atoms: N_9  and  C_31
REMARK    8  A    between atoms: C_17  and  C_19
REMARK    9  A    between atoms: C_20  and  C_22
REMARK   10  A    between atoms: C_20  and  C_23
REMARK   11  A    between atoms: C_20  and  C_24
REMARK   12  A    between atoms: C_20  and  C_25
REMARK                            x       y       z     vdW  Elec       q    Type
REMARK                         _______ _______ _______ _____ _____    ______ ____
ROOT
ATOM      1  O   UNL     1      -3.297 -10.340  16.373  0.00  0.00    -0.368 OA
ATOM      2  O   UNL     1      -4.516 -13.142  15.912  0.00  0.00    -0.368 OA
ATOM     10  C   UNL     1      -4.404 -11.982  15.060  0.00  0.00    +0.177 C 
ATOM     11  C   UNL     1      -4.600 -10.767  15.946  0.00  0.00    +0.192 C 
ATOM     12  C   UNL     1      -2.979 -11.858  14.555  0.00  0.00    +0.166 C 
ATOM     13  C   UNL     1      -5.409 -11.320  17.095  0.00  0.00    +0.235 C 
ATOM     14  C   UNL     1      -2.290 -11.089  15.678  0.00  0.00    +0.190 C 
ATOM     15  C   UNL     1      -4.841 -12.713  17.241  0.00  0.00    +0.207 C 
ENDROOT
BRANCH  12   5
ATOM      5  N   UNL     1      -2.906 -11.236  13.231  0.00  0.00    -0.244 N 
ATOM      6  N   UNL     1      -1.852 -10.479  12.895  0.00  0.00    -0.065 NA
ATOM      7  N   UNL     1      -2.061 -10.051  11.654  0.00  0.00    -0.133 NA
ATOM     16  C   UNL     1      -3.815 -11.318  12.228  0.00  0.00    +0.135 A 
ATOM     17  C   UNL     1      -3.259 -10.556  11.232  0.00  0.00    +0.097 A 
BRANCH  17  19
ATOM     19  C   UNL     1      -3.779 -10.263   9.890  0.00  0.00    +0.142 C 
BRANCH  19   9
ATOM      9  N   UNL     1      -5.116  -9.664   9.983  0.00  0.00    -0.303 NA
ATOM     30  C   UNL     1      -5.015  -8.261  10.374  0.00  0.00    +0.105 C 
ATOM     31  C   UNL     1      -5.819  -9.796   8.709  0.00  0.00    +0.105 C 
ENDBRANCH  19   9
ENDBRANCH  17  19
ENDBRANCH  12   5
BRANCH  13   3
ATOM      3  O   UNL     1      -5.290 -10.570  18.281  0.00  0.00    -0.442 OA
BRANCH   3  18
ATOM      4  O   UNL     1      -6.311 -10.325  20.313  0.00  0.00    -0.226 OA
ATOM      8  N   UNL     1      -7.537 -10.756  18.365  0.00  0.00    -0.251 N 
ATOM     18  C   UNL     1      -6.394 -10.532  19.108  0.00  0.00    +0.405 C 
ATOM     32  H   UNL     1      -7.401 -10.909  17.369  0.00  0.00    +0.158 HD
BRANCH   8  21
ATOM     21  C   UNL     1      -8.875 -10.802  18.818  0.00  0.00    +0.036 A 
ATOM     22  C   UNL     1     -11.499 -10.890  19.704  0.00  0.00    -0.042 A 
ATOM     26  C   UNL     1      -9.263 -11.805  19.692  0.00  0.00    +0.024 A 
ATOM     27  C   UNL     1      -9.773  -9.842  18.379  0.00  0.00    +0.024 A 
ATOM     28  C   UNL     1     -10.584 -11.849  20.138  0.00  0.00    +0.006 A 
ATOM     29  C   UNL     1     -11.094  -9.886  18.825  0.00  0.00    +0.006 A 
BRANCH  22  20
ATOM     20  C   UNL     1     -12.911 -10.936  20.181  0.00  0.00    -0.013 C 
ATOM     23  C   UNL     1     -13.882 -11.366  19.039  0.00  0.00    +0.015 C 
ATOM     24  C   UNL     1     -13.190 -11.926  21.360  0.00  0.00    +0.015 C 
ATOM     25  C   UNL     1     -13.380  -9.538  20.695  0.00  0.00    +0.015 C 
ENDBRANCH  22  20
ENDBRANCH   8  21
ENDBRANCH   3  18
ENDBRANCH  13   3
TORSDOF 7
ENDMDL
MODEL 8
REMARK VINA RESULT:      -6.3     27.586     30.500
REMARK  Name = 11886639
REMARK  12 active torsions:
REMARK  status: ('A' for Active; 'I' for Inactive)
REMARK    1  A    between atoms: O_3  and  C_13
REMARK    2  A    between atoms: O_3  and  C_18
REMARK    3  A    between atoms: N_5  and  C_12
REMARK    4  A    between atoms: N_8  and  C_21
REMARK    5  A    between atoms: N_9  and  C_19
REMARK    6  A    between atoms: N_9  and  C_30
REMARK    7  A    between atoms: N_9  and  C_31
REMARK    8  A    between atoms: C_17  and  C_19
REMARK    9  A    between atoms: C_20  and  C_22
REMARK   10  A    between atoms: C_20  and  C_23
REMARK   11  A    between atoms: C_20  and  C_24
REMARK   12  A    between atoms: C_20  and  C_25
REMARK                            x       y       z     vdW  Elec       q    Type
REMARK                         _______ _______ _______ _____ _____    ______ ____
ROOT
ATOM      1  O   UNL     1      -4.020 -12.246  14.621  0.00  0.00    -0.368 OA
ATOM      2  O   UNL     1      -2.360 -10.691  16.714  0.00  0.00    -0.368 OA
ATOM     10  C   UNL     1      -3.688 -10.488  16.185  0.00  0.00    +0.177 C 
ATOM     11  C   UNL     1      -3.638 -10.865  14.717  0.00  0.00    +0.192 C 
ATOM     12  C   UNL     1      -4.640 -11.493  16.803  0.00  0.00    +0.166 C 
ATOM     13  C   UNL     1      -2.181 -10.664  14.372  0.00  0.00    +0.235 C 
ATOM     14  C   UNL     1      -4.475 -12.711  15.899  0.00  0.00    +0.190 C 
ATOM     15  C   UNL     1      -1.491 -11.094  15.646  0.00  0.00    +0.207 C 
ENDROOT
BRANCH  12   5
ATOM      5  N   UNL     1      -6.006 -10.976  16.917  0.00  0.00    -0.244 N 
ATOM      6  N   UNL     1      -7.030 -11.810  17.140  0.00  0.00    -0.065 NA
ATOM      7  N   UNL     1      -8.132 -11.068  17.191  0.00  0.00    -0.133 NA
ATOM     16  C   UNL     1      -6.411  -9.685  16.818  0.00  0.00    +0.135 A 
ATOM     17  C   UNL     1      -7.769  -9.764  16.995  0.00  0.00    +0.097 A 
BRANCH  17  19
ATOM     19  C   UNL     1      -8.768  -8.688  16.995  0.00  0.00    +0.142 C 
BRANCH  19   9
ATOM      9  N   UNL     1     -10.052  -9.187  16.487  0.00  0.00    -0.303 NA
ATOM     30  C   UNL     1     -11.151  -8.676  17.302  0.00  0.00    +0.105 C 
ATOM     31  C   UNL     1     -10.226  -8.805  15.088  0.00  0.00    +0.105 C 
ENDBRANCH  19   9
ENDBRANCH  17  19
ENDBRANCH  12   5
BRANCH  13   3
ATOM      3  O   UNL     1      -1.756 -11.415  13.258  0.00  0.00    -0.442 OA
BRANCH   3  18
ATOM      4  O   UNL     1      -1.584  -9.949  11.511  0.00  0.00    -0.226 OA
ATOM      8  N   UNL     1      -3.098 -11.735  11.474  0.00  0.00    -0.251 N 
ATOM     18  C   UNL     1      -2.107 -10.937  12.013  0.00  0.00    +0.405 C 
ATOM     32  H   UNL     1      -3.406 -12.517  12.047  0.00  0.00    +0.158 HD
BRANCH   8  21
ATOM     21  C   UNL     1      -3.740 -11.600  10.222  0.00  0.00    +0.036 A 
ATOM     22  C   UNL     1      -4.999 -11.337   7.768  0.00  0.00    -0.042 A 
ATOM     26  C   UNL     1      -4.145 -10.344   9.798  0.00  0.00    +0.024 A 
ATOM     27  C   UNL     1      -3.952 -12.727   9.443  0.00  0.00    +0.024 A 
ATOM     28  C   UNL     1      -4.778 -10.212   8.562  0.00  0.00    +0.006 A 
ATOM     29  C   UNL     1      -4.586 -12.594   8.207  0.00  0.00    +0.006 A 
BRANCH  22  20
ATOM     20  C   UNL     1      -5.676 -11.195   6.446  0.00  0.00    -0.013 C 
ATOM     23  C   UNL     1      -4.713 -11.559   5.274  0.00  0.00    +0.015 C 
ATOM     24  C   UNL     1      -6.941 -12.092   6.239  0.00  0.00    +0.015 C 
ATOM     25  C   UNL     1      -6.165  -9.731   6.215  0.00  0.00    +0.015 C 
ENDBRANCH  22  20
ENDBRANCH   8  21
ENDBRANCH   3  18
ENDBRANCH  13   3
TORSDOF 7
ENDMDL
MODEL 9
REMARK VINA RESULT:      -6.3     29.780     33.746
REMARK  Name = 11886639
REMARK  12 active torsions:
REMARK  status: ('A' for Active; 'I' for Inactive)
REMARK    1  A    between atoms: O_3  and  C_13
REMARK    2  A    between atoms: O_3  and  C_18
REMARK    3  A    between atoms: N_5  and  C_12
REMARK    4  A    between atoms: N_8  and  C_21
REMARK    5  A    between atoms: N_9  and  C_19
REMARK    6  A    between atoms: N_9  and  C_30
REMARK    7  A    between atoms: N_9  and  C_31
REMARK    8  A    between atoms: C_17  and  C_19
REMARK    9  A    between atoms: C_20  and  C_22
REMARK   10  A    between atoms: C_20  and  C_23
REMARK   11  A    between atoms: C_20  and  C_24
REMARK   12  A    between atoms: C_20  and  C_25
REMARK                            x       y       z     vdW  Elec       q    Type
REMARK                         _______ _______ _______ _____ _____    ______ ____
ROOT
ATOM      1  O   UNL     1     -15.916   4.289  22.255  0.00  0.00    -0.368 OA
ATOM      2  O   UNL     1     -16.631   6.964  23.627  0.00  0.00    -0.368 OA
ATOM     10  C   UNL     1     -15.395   6.454  23.084  0.00  0.00    +0.177 C 
ATOM     11  C   UNL     1     -15.361   4.970  23.391  0.00  0.00    +0.192 C 
ATOM     12  C   UNL     1     -15.436   6.527  21.569  0.00  0.00    +0.166 C 
ATOM     13  C   UNL     1     -16.259   4.860  24.601  0.00  0.00    +0.235 C 
ATOM     14  C   UNL     1     -16.132   5.224  21.189  0.00  0.00    +0.190 C 
ATOM     15  C   UNL     1     -17.313   5.902  24.308  0.00  0.00    +0.207 C 
ENDROOT
BRANCH  12   5
ATOM      5  N   UNL     1     -14.110   6.726  20.981  0.00  0.00    -0.244 N 
ATOM      6  N   UNL     1     -13.018   6.247  21.591  0.00  0.00    -0.065 NA
ATOM      7  N   UNL     1     -11.974   6.578  20.839  0.00  0.00    -0.133 NA
ATOM     16  C   UNL     1     -13.806   7.375  19.828  0.00  0.00    +0.135 A 
ATOM     17  C   UNL     1     -12.441   7.270  19.755  0.00  0.00    +0.097 A 
BRANCH  17  19
ATOM     19  C   UNL     1     -11.526   7.779  18.725  0.00  0.00    +0.142 C 
BRANCH  19   9
ATOM      9  N   UNL     1     -11.582   9.245  18.677  0.00  0.00    -0.303 NA
ATOM     30  C   UNL     1     -10.515   9.819  19.492  0.00  0.00    +0.105 C 
ATOM     31  C   UNL     1     -11.482   9.710  17.295  0.00  0.00    +0.105 C 
ENDBRANCH  19   9
ENDBRANCH  17  19
ENDBRANCH  12   5
BRANCH  13   3
ATOM      3  O   UNL     1     -16.814   3.577  24.776  0.00  0.00    -0.442 OA
BRANCH   3  18
ATOM      4  O   UNL     1     -17.794   2.304  26.404  0.00  0.00    -0.226 OA
ATOM      8  N   UNL     1     -16.012   3.747  26.878  0.00  0.00    -0.251 N 
ATOM     18  C   UNL     1     -16.950   3.128  26.074  0.00  0.00    +0.405 C 
ATOM     32  H   UNL     1     -15.391   4.408  26.416  0.00  0.00    +0.158 HD
BRANCH   8  21
ATOM     21  C   UNL     1     -15.806   3.576  28.266  0.00  0.00    +0.036 A 
ATOM     22  C   UNL     1     -15.400   3.241  30.986  0.00  0.00    -0.042 A 
ATOM     26  C   UNL     1     -16.084   4.625  29.128  0.00  0.00    +0.024 A 
ATOM     27  C   UNL     1     -15.329   2.364  28.737  0.00  0.00    +0.024 A 
ATOM     28  C   UNL     1     -15.881   4.456  30.497  0.00  0.00    +0.006 A 
ATOM     29  C   UNL     1     -15.125   2.194  30.107  0.00  0.00    +0.006 A 
BRANCH  22  20
ATOM     20  C   UNL     1     -15.183   3.060  32.451  0.00  0.00    -0.013 C 
ATOM     23  C   UNL     1     -14.958   1.559  32.809  0.00  0.00    +0.015 C 
ATOM     24  C   UNL     1     -13.953   3.820  33.047  0.00  0.00    +0.015 C 
ATOM     25  C   UNL     1     -16.415   3.559  33.271  0.00  0.00    +0.015 C 
ENDBRANCH  22  20
ENDBRANCH   8  21
ENDBRANCH   3  18
ENDBRANCH  13   3
TORSDOF 7
ENDMDL
MODEL 10
REMARK VINA RESULT:      -6.2     28.594     31.405
REMARK  Name = 11886639
REMARK  12 active torsions:
REMARK  status: ('A' for Active; 'I' for Inactive)
REMARK    1  A    between atoms: O_3  and  C_13
REMARK    2  A    between atoms: O_3  and  C_18
REMARK    3  A    between atoms: N_5  and  C_12
REMARK    4  A    between atoms: N_8  and  C_21
REMARK    5  A    between atoms: N_9  and  C_19
REMARK    6  A    between atoms: N_9  and  C_30
REMARK    7  A    between atoms: N_9  and  C_31
REMARK    8  A    between atoms: C_17  and  C_19
REMARK    9  A    between atoms: C_20  and  C_22
REMARK   10  A    between atoms: C_20  and  C_23
REMARK   11  A    between atoms: C_20  and  C_24
REMARK   12  A    between atoms: C_20  and  C_25
REMARK                            x       y       z     vdW  Elec       q    Type
REMARK                         _______ _______ _______ _____ _____    ______ ____
ROOT
ATOM      1  O   UNL     1      -4.517  -9.809   8.281  0.00  0.00    -0.368 OA
ATOM      2  O   UNL     1      -7.031  -9.184   9.965  0.00  0.00    -0.368 OA
ATOM     10  C   UNL     1      -5.886 -10.028  10.210  0.00  0.00    +0.177 C 
ATOM     11  C   UNL     1      -5.510 -10.654   8.881  0.00  0.00    +0.192 C 
ATOM     12  C   UNL     1      -4.691  -9.169  10.577  0.00  0.00    +0.166 C 
ATOM     13  C   UNL     1      -6.812 -10.615   8.116  0.00  0.00    +0.235 C 
ATOM     14  C   UNL     1      -4.115  -8.797   9.214  0.00  0.00    +0.190 C 
ATOM     15  C   UNL     1      -7.420  -9.316   8.591  0.00  0.00    +0.207 C 
ENDROOT
BRANCH  12   5
ATOM      5  N   UNL     1      -3.766  -9.852  11.484  0.00  0.00    -0.244 N 
ATOM      6  N   UNL     1      -2.489 -10.047  11.130  0.00  0.00    -0.065 NA
ATOM      7  N   UNL     1      -1.900 -10.686  12.135  0.00  0.00    -0.133 NA
ATOM     16  C   UNL     1      -4.036 -10.354  12.715  0.00  0.00    +0.135 A 
ATOM     17  C   UNL     1      -2.835 -10.881  13.114  0.00  0.00    +0.097 A 
BRANCH  17  19
ATOM     19  C   UNL     1      -2.494 -11.566  14.367  0.00  0.00    +0.142 C 
BRANCH  19   9
ATOM      9  N   UNL     1      -2.453 -10.605  15.476  0.00  0.00    -0.303 NA
ATOM     30  C   UNL     1      -3.326 -11.046  16.561  0.00  0.00    +0.105 C 
ATOM     31  C   UNL     1      -1.081 -10.441  15.953  0.00  0.00    +0.105 C 
ENDBRANCH  19   9
ENDBRANCH  17  19
ENDBRANCH  12   5
BRANCH  13   3
ATOM      3  O   UNL     1      -6.645 -10.644   6.717  0.00  0.00    -0.442 OA
BRANCH   3  18
ATOM      4  O   UNL     1      -6.514 -12.873   6.225  0.00  0.00    -0.226 OA
ATOM      8  N   UNL     1      -4.807 -11.382   5.637  0.00  0.00    -0.251 N 
ATOM     18  C   UNL     1      -6.020 -11.753   6.186  0.00  0.00    +0.405 C 
ATOM     32  H   UNL     1      -4.568 -10.395   5.703  0.00  0.00    +0.158 HD
BRANCH   8  21
ATOM     21  C   UNL     1      -3.854 -12.204   4.993  0.00  0.00    +0.036 A 
ATOM     22  C   UNL     1      -1.987 -13.817   3.733  0.00  0.00    -0.042 A 
ATOM     26  C   UNL     1      -3.843 -12.276   3.609  0.00  0.00    +0.024 A 
ATOM     27  C   UNL     1      -2.951 -12.924   5.759  0.00  0.00    +0.024 A 
ATOM     28  C   UNL     1      -2.902 -13.088   2.975  0.00  0.00    +0.006 A 
ATOM     29  C   UNL     1      -2.010 -13.735   5.125  0.00  0.00    +0.006 A 
BRANCH  22  20
ATOM     20  C   UNL     1      -0.980 -14.685   3.055  0.00  0.00    -0.013 C 
ATOM     23  C   UNL     1      -0.497 -14.050   1.715  0.00  0.00    +0.015 C 
ATOM     24  C   UNL     1       0.321 -14.971   3.874  0.00  0.00    +0.015 C 
ATOM     25  C   UNL     1      -1.577 -16.089   2.722  0.00  0.00    +0.015 C 
ENDBRANCH  22  20
ENDBRANCH   8  21
ENDBRANCH   3  18
ENDBRANCH  13   3
TORSDOF 7
ENDMDL
