MODEL 1
REMARK VINA RESULT:      -7.3      0.000      0.000
REMARK  Name = 11911963
REMARK  2 active torsions:
REMARK  status: ('A' for Active; 'I' for Inactive)
REMARK    1  A    between atoms: C_16  and  C_19
REMARK    2  A    between atoms: C_17  and  C_20
REMARK                            x       y       z     vdW  Elec       q    Type
REMARK                         _______ _______ _______ _____ _____    ______ ____
ROOT
ATOM      3  O   UNL     1      -6.681 -12.727  14.833  0.00  0.00    -0.267 OA
ATOM      4  O   UNL     1     -11.413 -12.054  16.372  0.00  0.00    -0.270 OA
ATOM      5  N   UNL     1     -10.107 -11.691  18.252  0.00  0.00    -0.297 N 
ATOM      6  N   UNL     1      -7.237 -12.019  16.986  0.00  0.00    -0.311 N 
ATOM      7  C   UNL     1      -8.473 -13.523  18.652  0.00  0.00    +0.027 C 
ATOM      8  C   UNL     1      -7.898 -11.212  19.278  0.00  0.00    +0.054 C 
ATOM      9  C   UNL     1      -7.785 -12.671  19.714  0.00  0.00    +0.018 C 
ATOM     10  C   UNL     1      -9.954 -13.122  18.522  0.00  0.00    +0.113 C 
ATOM     11  C   UNL     1      -7.714 -13.367  17.328  0.00  0.00    +0.130 C 
ATOM     12  C   UNL     1      -9.386 -10.813  19.188  0.00  0.00    +0.117 C 
ATOM     13  C   UNL     1      -7.233 -10.990  17.932  0.00  0.00    +0.027 A 
ATOM     14  C   UNL     1      -6.689  -9.799  17.635  0.00  0.00    +0.022 A 
ATOM     15  C   UNL     1      -6.703 -11.844  15.693  0.00  0.00    +0.260 A 
ATOM     16  C   UNL     1     -10.828 -11.268  17.120  0.00  0.00    +0.247 C 
ATOM     17  C   UNL     1      -6.132 -10.489  15.383  0.00  0.00    +0.053 A 
ATOM     18  C   UNL     1      -6.130  -9.547  16.338  0.00  0.00    +0.016 A 
ENDROOT
BRANCH  17  20
ATOM      1  S   UNL     1      -3.990 -10.684  13.725  0.00  0.00    -0.088 S 
ATOM     20  C   UNL     1      -5.588 -10.205  14.094  0.00  0.00    +0.026 A 
ATOM     23  C   UNL     1      -6.185  -9.566  13.027  0.00  0.00    +0.024 A 
ATOM     24  C   UNL     1      -5.327  -9.460  11.881  0.00  0.00    -0.010 A 
ATOM     25  C   UNL     1      -4.078 -10.039  12.128  0.00  0.00    +0.020 A 
ATOM     29  C   UNL     1      -5.557  -8.883  10.609  0.00  0.00    +0.009 A 
ATOM     30  C   UNL     1      -3.067 -10.055  11.147  0.00  0.00    +0.015 A 
ATOM     31  C   UNL     1      -4.556  -8.898   9.634  0.00  0.00    +0.001 A 
ATOM     32  C   UNL     1      -3.325  -9.478   9.903  0.00  0.00    +0.001 A 
ENDBRANCH  17  20
BRANCH  16  19
ATOM      2  F   UNL     1     -10.868  -5.797  16.019  0.00  0.00    -0.205 F 
ATOM     19  C   UNL     1     -10.839  -9.840  16.834  0.00  0.00    +0.037 A 
ATOM     21  C   UNL     1      -9.845  -9.289  16.028  0.00  0.00    +0.016 A 
ATOM     22  C   UNL     1     -11.842  -9.033  17.365  0.00  0.00    +0.016 A 
ATOM     26  C   UNL     1      -9.855  -7.921  15.753  0.00  0.00    +0.039 A 
ATOM     27  C   UNL     1     -11.852  -7.666  17.089  0.00  0.00    +0.039 A 
ATOM     28  C   UNL     1     -10.859  -7.110  16.283  0.00  0.00    +0.123 A 
ENDBRANCH  16  19
TORSDOF 2
ENDMDL
MODEL 2
REMARK VINA RESULT:      -7.2     24.652     29.125
REMARK  Name = 11911963
REMARK  2 active torsions:
REMARK  status: ('A' for Active; 'I' for Inactive)
REMARK    1  A    between atoms: C_16  and  C_19
REMARK    2  A    between atoms: C_17  and  C_20
REMARK                            x       y       z     vdW  Elec       q    Type
REMARK                         _______ _______ _______ _____ _____    ______ ____
ROOT
ATOM      3  O   UNL     1       8.262   7.351   3.474  0.00  0.00    -0.267 OA
ATOM      4  O   UNL     1       9.514   5.013  -0.790  0.00  0.00    -0.270 OA
ATOM      5  N   UNL     1      10.690   7.010  -0.826  0.00  0.00    -0.297 N 
ATOM      6  N   UNL     1       9.854   8.178   1.982  0.00  0.00    -0.311 N 
ATOM      7  C   UNL     1       9.245   8.983  -0.373  0.00  0.00    +0.027 C 
ATOM      8  C   UNL     1      11.597   8.995   0.358  0.00  0.00    +0.054 C 
ATOM      9  C   UNL     1      10.488   9.857  -0.241  0.00  0.00    +0.018 C 
ATOM     10  C   UNL     1       9.533   7.779  -1.288  0.00  0.00    +0.113 C 
ATOM     11  C   UNL     1       8.798   8.549   1.029  0.00  0.00    +0.130 C 
ATOM     12  C   UNL     1      11.901   7.814  -0.587  0.00  0.00    +0.117 C 
ATOM     13  C   UNL     1      11.198   8.462   1.721  0.00  0.00    +0.027 A 
ATOM     14  C   UNL     1      12.134   8.219   2.652  0.00  0.00    +0.022 A 
ATOM     15  C   UNL     1       9.436   7.610   3.203  0.00  0.00    +0.260 A 
ATOM     16  C   UNL     1      10.556   5.633  -0.569  0.00  0.00    +0.247 C 
ATOM     17  C   UNL     1      10.514   7.321   4.209  0.00  0.00    +0.053 A 
ATOM     18  C   UNL     1      11.784   7.638   3.917  0.00  0.00    +0.016 A 
ENDROOT
BRANCH  17  20
ATOM      1  S   UNL     1       9.608   7.698   6.741  0.00  0.00    -0.088 S 
ATOM     20  C   UNL     1      10.195   6.724   5.467  0.00  0.00    +0.026 A 
ATOM     23  C   UNL     1      10.289   5.400   5.842  0.00  0.00    +0.024 A 
ATOM     24  C   UNL     1       9.876   5.167   7.198  0.00  0.00    -0.010 A 
ATOM     25  C   UNL     1       9.473   6.355   7.815  0.00  0.00    +0.020 A 
ATOM     29  C   UNL     1       9.823   3.970   7.951  0.00  0.00    +0.009 A 
ATOM     30  C   UNL     1       9.025   6.376   9.151  0.00  0.00    +0.015 A 
ATOM     31  C   UNL     1       9.380   3.987   9.276  0.00  0.00    +0.001 A 
ATOM     32  C   UNL     1       8.985   5.179   9.867  0.00  0.00    +0.001 A 
ENDBRANCH  17  20
BRANCH  16  19
ATOM      2  F   UNL     1      14.955   3.010   1.649  0.00  0.00    -0.205 F 
ATOM     19  C   UNL     1      11.705   4.949   0.010  0.00  0.00    +0.037 A 
ATOM     21  C   UNL     1      11.776   4.761   1.388  0.00  0.00    +0.016 A 
ATOM     22  C   UNL     1      12.724   4.485  -0.818  0.00  0.00    +0.016 A 
ATOM     26  C   UNL     1      12.876   4.106   1.942  0.00  0.00    +0.039 A 
ATOM     27  C   UNL     1      13.823   3.829  -0.263  0.00  0.00    +0.039 A 
ATOM     28  C   UNL     1      13.899   3.639   1.116  0.00  0.00    +0.123 A 
ENDBRANCH  16  19
TORSDOF 2
ENDMDL
MODEL 3
REMARK VINA RESULT:      -7.1     18.783     21.363
REMARK  Name = 11911963
REMARK  2 active torsions:
REMARK  status: ('A' for Active; 'I' for Inactive)
REMARK    1  A    between atoms: C_16  and  C_19
REMARK    2  A    between atoms: C_17  and  C_20
REMARK                            x       y       z     vdW  Elec       q    Type
REMARK                         _______ _______ _______ _____ _____    ______ ____
ROOT
ATOM      3  O   UNL     1     -12.787  10.227  20.354  0.00  0.00    -0.267 OA
ATOM      4  O   UNL     1     -14.246  12.155  15.953  0.00  0.00    -0.270 OA
ATOM      5  N   UNL     1     -11.974  11.760  15.718  0.00  0.00    -0.297 N 
ATOM      6  N   UNL     1     -11.366  10.434  18.515  0.00  0.00    -0.311 N 
ATOM      7  C   UNL     1     -10.637  12.709  17.588  0.00  0.00    +0.027 C 
ATOM      8  C   UNL     1      -9.895  10.638  16.481  0.00  0.00    +0.054 C 
ATOM      9  C   UNL     1      -9.410  11.953  17.089  0.00  0.00    +0.018 C 
ATOM     10  C   UNL     1     -11.604  12.989  16.423  0.00  0.00    +0.113 C 
ATOM     11  C   UNL     1     -11.298  11.890  18.704  0.00  0.00    +0.130 C 
ATOM     12  C   UNL     1     -10.832  10.933  15.291  0.00  0.00    +0.117 C 
ATOM     13  C   UNL     1     -10.631   9.800  17.509  0.00  0.00    +0.027 A 
ATOM     14  C   UNL     1     -10.616   8.460  17.424  0.00  0.00    +0.022 A 
ATOM     15  C   UNL     1     -12.131   9.707  19.450  0.00  0.00    +0.260 A 
ATOM     16  C   UNL     1     -13.332  11.420  15.575  0.00  0.00    +0.247 C 
ATOM     17  C   UNL     1     -12.118   8.211  19.305  0.00  0.00    +0.053 A 
ATOM     18  C   UNL     1     -11.374   7.654  18.339  0.00  0.00    +0.016 A 
ENDROOT
BRANCH  17  20
ATOM      1  S   UNL     1     -14.579   7.328  20.038  0.00  0.00    -0.088 S 
ATOM     20  C   UNL     1     -12.879   7.388  20.190  0.00  0.00    +0.026 A 
ATOM     23  C   UNL     1     -12.433   6.578  21.214  0.00  0.00    +0.024 A 
ATOM     24  C   UNL     1     -13.495   5.892  21.894  0.00  0.00    -0.010 A 
ATOM     25  C   UNL     1     -14.739   6.216  21.345  0.00  0.00    +0.020 A 
ATOM     29  C   UNL     1     -13.457   4.986  22.981  0.00  0.00    +0.009 A 
ATOM     30  C   UNL     1     -15.933   5.662  21.850  0.00  0.00    +0.015 A 
ATOM     31  C   UNL     1     -14.639   4.435  23.484  0.00  0.00    +0.001 A 
ATOM     32  C   UNL     1     -15.862   4.772  22.922  0.00  0.00    +0.001 A 
ENDBRANCH  17  20
BRANCH  16  19
ATOM      2  F   UNL     1     -14.494   6.460  13.292  0.00  0.00    -0.205 F 
ATOM     19  C   UNL     1     -13.634  10.125  14.979  0.00  0.00    +0.037 A 
ATOM     21  C   UNL     1     -13.911   9.034  15.799  0.00  0.00    +0.016 A 
ATOM     22  C   UNL     1     -13.647   9.986  13.593  0.00  0.00    +0.016 A 
ATOM     26  C   UNL     1     -14.202   7.794  15.228  0.00  0.00    +0.039 A 
ATOM     27  C   UNL     1     -13.938   8.746  13.023  0.00  0.00    +0.039 A 
ATOM     28  C   UNL     1     -14.215   7.651  13.840  0.00  0.00    +0.123 A 
ENDBRANCH  16  19
TORSDOF 2
ENDMDL
MODEL 4
REMARK VINA RESULT:      -7.1     26.357     28.694
REMARK  Name = 11911963
REMARK  2 active torsions:
REMARK  status: ('A' for Active; 'I' for Inactive)
REMARK    1  A    between atoms: C_16  and  C_19
REMARK    2  A    between atoms: C_17  and  C_20
REMARK                            x       y       z     vdW  Elec       q    Type
REMARK                         _______ _______ _______ _____ _____    ______ ____
ROOT
ATOM      3  O   UNL     1      19.006  -7.024  28.107  0.00  0.00    -0.267 OA
ATOM      4  O   UNL     1      20.404  -2.953  25.520  0.00  0.00    -0.270 OA
ATOM      5  N   UNL     1      20.616  -4.718  24.033  0.00  0.00    -0.297 N 
ATOM      6  N   UNL     1      19.547  -7.074  25.838  0.00  0.00    -0.311 N 
ATOM      7  C   UNL     1      21.917  -6.616  24.978  0.00  0.00    +0.027 C 
ATOM      8  C   UNL     1      20.095  -7.056  23.380  0.00  0.00    +0.054 C 
ATOM      9  C   UNL     1      21.502  -7.484  23.794  0.00  0.00    +0.018 C 
ATOM     10  C   UNL     1      21.911  -5.129  24.579  0.00  0.00    +0.113 C 
ATOM     11  C   UNL     1      20.973  -6.903  26.152  0.00  0.00    +0.130 C 
ATOM     12  C   UNL     1      20.112  -5.575  22.947  0.00  0.00    +0.117 C 
ATOM     13  C   UNL     1      19.111  -7.239  24.520  0.00  0.00    +0.027 A 
ATOM     14  C   UNL     1      17.821  -7.507  24.263  0.00  0.00    +0.022 A 
ATOM     15  C   UNL     1      18.661  -7.156  26.932  0.00  0.00    +0.260 A 
ATOM     16  C   UNL     1      19.928  -3.635  24.611  0.00  0.00    +0.247 C 
ATOM     17  C   UNL     1      17.219  -7.426  26.605  0.00  0.00    +0.053 A 
ATOM     18  C   UNL     1      16.860  -7.602  25.325  0.00  0.00    +0.016 A 
ENDROOT
BRANCH  17  20
ATOM      1  S   UNL     1      15.815  -9.025  28.291  0.00  0.00    -0.088 S 
ATOM     20  C   UNL     1      16.240  -7.504  27.642  0.00  0.00    +0.026 A 
ATOM     23  C   UNL     1      15.537  -6.480  28.243  0.00  0.00    +0.024 A 
ATOM     24  C   UNL     1      14.629  -6.940  29.257  0.00  0.00    -0.010 A 
ATOM     25  C   UNL     1      14.681  -8.331  29.389  0.00  0.00    +0.020 A 
ATOM     29  C   UNL     1      13.742  -6.220  30.092  0.00  0.00    +0.009 A 
ATOM     30  C   UNL     1      13.876  -9.012  30.324  0.00  0.00    +0.015 A 
ATOM     31  C   UNL     1      12.942  -6.892  31.020  0.00  0.00    +0.001 A 
ATOM     32  C   UNL     1      13.010  -8.273  31.133  0.00  0.00    +0.001 A 
ENDBRANCH  17  20
BRANCH  16  19
ATOM      2  F   UNL     1      14.801  -2.562  22.683  0.00  0.00    -0.205 F 
ATOM     19  C   UNL     1      18.589  -3.354  24.109  0.00  0.00    +0.037 A 
ATOM     21  C   UNL     1      18.427  -2.544  22.988  0.00  0.00    +0.016 A 
ATOM     22  C   UNL     1      17.479  -3.898  24.751  0.00  0.00    +0.016 A 
ATOM     26  C   UNL     1      17.146  -2.277  22.506  0.00  0.00    +0.039 A 
ATOM     27  C   UNL     1      16.198  -3.630  24.268  0.00  0.00    +0.039 A 
ATOM     28  C   UNL     1      16.032  -2.820  23.145  0.00  0.00    +0.123 A 
ENDBRANCH  16  19
TORSDOF 2
ENDMDL
MODEL 5
REMARK VINA RESULT:      -6.8     26.880     29.279
REMARK  Name = 11911963
REMARK  2 active torsions:
REMARK  status: ('A' for Active; 'I' for Inactive)
REMARK    1  A    between atoms: C_16  and  C_19
REMARK    2  A    between atoms: C_17  and  C_20
REMARK                            x       y       z     vdW  Elec       q    Type
REMARK                         _______ _______ _______ _____ _____    ______ ____
ROOT
ATOM      3  O   UNL     1      18.765  -4.514  29.372  0.00  0.00    -0.267 OA
ATOM      4  O   UNL     1      19.723  -1.089  25.827  0.00  0.00    -0.270 OA
ATOM      5  N   UNL     1      20.506  -3.091  24.962  0.00  0.00    -0.297 N 
ATOM      6  N   UNL     1      19.652  -5.051  27.281  0.00  0.00    -0.311 N 
ATOM      7  C   UNL     1      21.991  -4.305  26.546  0.00  0.00    +0.027 C 
ATOM      8  C   UNL     1      20.562  -5.573  24.992  0.00  0.00    +0.054 C 
ATOM      9  C   UNL     1      21.943  -5.533  25.643  0.00  0.00    +0.018 C 
ATOM     10  C   UNL     1      21.756  -3.025  25.723  0.00  0.00    +0.113 C 
ATOM     11  C   UNL     1      20.950  -4.473  27.660  0.00  0.00    +0.130 C 
ATOM     12  C   UNL     1      20.355  -4.304  24.139  0.00  0.00    +0.117 C 
ATOM     13  C   UNL     1      19.468  -5.664  26.039  0.00  0.00    +0.027 A 
ATOM     14  C   UNL     1      18.312  -6.284  25.755  0.00  0.00    +0.022 A 
ATOM     15  C   UNL     1      18.640  -5.037  28.263  0.00  0.00    +0.260 A 
ATOM     16  C   UNL     1      19.537  -2.083  25.123  0.00  0.00    +0.247 C 
ATOM     17  C   UNL     1      17.348  -5.713  27.900  0.00  0.00    +0.053 A 
ATOM     18  C   UNL     1      17.235  -6.308  26.704  0.00  0.00    +0.016 A 
ENDROOT
BRANCH  17  20
ATOM      1  S   UNL     1      15.038  -6.922  28.661  0.00  0.00    -0.088 S 
ATOM     20  C   UNL     1      16.254  -5.732  28.818  0.00  0.00    +0.026 A 
ATOM     23  C   UNL     1      16.005  -4.890  29.882  0.00  0.00    +0.024 A 
ATOM     24  C   UNL     1      14.798  -5.216  30.588  0.00  0.00    -0.010 A 
ATOM     25  C   UNL     1      14.161  -6.322  30.019  0.00  0.00    +0.020 A 
ATOM     29  C   UNL     1      14.200  -4.606  31.717  0.00  0.00    +0.009 A 
ATOM     30  C   UNL     1      12.955  -6.828  30.543  0.00  0.00    +0.015 A 
ATOM     31  C   UNL     1      13.004  -5.106  32.239  0.00  0.00    +0.001 A 
ATOM     32  C   UNL     1      12.390  -6.205  31.657  0.00  0.00    +0.001 A 
ENDBRANCH  17  20
BRANCH  16  19
ATOM      2  F   UNL     1      14.664  -2.797  22.497  0.00  0.00    -0.205 F 
ATOM     19  C   UNL     1      18.265  -2.269  24.439  0.00  0.00    +0.037 A 
ATOM     21  C   UNL     1      18.091  -1.764  23.153  0.00  0.00    +0.016 A 
ATOM     22  C   UNL     1      17.230  -2.951  25.072  0.00  0.00    +0.016 A 
ATOM     26  C   UNL     1      16.874  -1.943  22.496  0.00  0.00    +0.039 A 
ATOM     27  C   UNL     1      16.012  -3.130  24.415  0.00  0.00    +0.039 A 
ATOM     28  C   UNL     1      15.834  -2.626  23.128  0.00  0.00    +0.123 A 
ENDBRANCH  16  19
TORSDOF 2
ENDMDL
MODEL 6
REMARK VINA RESULT:      -6.7     21.606     24.292
REMARK  Name = 11911963
REMARK  2 active torsions:
REMARK  status: ('A' for Active; 'I' for Inactive)
REMARK    1  A    between atoms: C_16  and  C_19
REMARK    2  A    between atoms: C_17  and  C_20
REMARK                            x       y       z     vdW  Elec       q    Type
REMARK                         _______ _______ _______ _____ _____    ______ ____
ROOT
ATOM      3  O   UNL     1      -6.139  -7.391  39.636  0.00  0.00    -0.267 OA
ATOM      4  O   UNL     1      -6.707 -10.969  36.159  0.00  0.00    -0.270 OA
ATOM      5  N   UNL     1      -6.912 -12.062  38.192  0.00  0.00    -0.297 N 
ATOM      6  N   UNL     1      -6.675  -9.602  40.153  0.00  0.00    -0.311 N 
ATOM      7  C   UNL     1      -5.047 -11.542  39.754  0.00  0.00    +0.027 C 
ATOM      8  C   UNL     1      -7.299 -11.993  40.644  0.00  0.00    +0.054 C 
ATOM      9  C   UNL     1      -5.809 -12.226  40.884  0.00  0.00    +0.018 C 
ATOM     10  C   UNL     1      -5.463 -12.132  38.394  0.00  0.00    +0.113 C 
ATOM     11  C   UNL     1      -5.306 -10.031  39.831  0.00  0.00    +0.130 C 
ATOM     12  C   UNL     1      -7.710 -12.622  39.296  0.00  0.00    +0.117 C 
ATOM     13  C   UNL     1      -7.624 -10.511  40.630  0.00  0.00    +0.027 A 
ATOM     14  C   UNL     1      -8.833 -10.080  41.025  0.00  0.00    +0.022 A 
ATOM     15  C   UNL     1      -6.950  -8.224  40.045  0.00  0.00    +0.260 A 
ATOM     16  C   UNL     1      -7.427 -11.418  37.052  0.00  0.00    +0.247 C 
ATOM     17  C   UNL     1      -8.323  -7.782  40.466  0.00  0.00    +0.053 A 
ATOM     18  C   UNL     1      -9.186  -8.692  40.941  0.00  0.00    +0.016 A 
ENDROOT
BRANCH  17  20
ATOM      1  S   UNL     1      -8.022  -5.265  41.439  0.00  0.00    -0.088 S 
ATOM     20  C   UNL     1      -8.707  -6.410  40.373  0.00  0.00    +0.026 A 
ATOM     23  C   UNL     1      -9.600  -5.821  39.501  0.00  0.00    +0.024 A 
ATOM     24  C   UNL     1      -9.734  -4.405  39.702  0.00  0.00    -0.010 A 
ATOM     25  C   UNL     1      -8.915  -3.963  40.746  0.00  0.00    +0.020 A 
ATOM     29  C   UNL     1     -10.534  -3.452  39.028  0.00  0.00    +0.009 A 
ATOM     30  C   UNL     1      -8.878  -2.607  41.128  0.00  0.00    +0.015 A 
ATOM     31  C   UNL     1     -10.499  -2.106  39.405  0.00  0.00    +0.001 A 
ATOM     32  C   UNL     1      -9.679  -1.691  40.444  0.00  0.00    +0.001 A 
ENDBRANCH  17  20
BRANCH  16  19
ATOM      2  F   UNL     1     -12.970 -10.840  36.735  0.00  0.00    -0.205 F 
ATOM     19  C   UNL     1      -8.874 -11.268  36.970  0.00  0.00    +0.037 A 
ATOM     21  C   UNL     1      -9.479 -10.116  37.465  0.00  0.00    +0.016 A 
ATOM     22  C   UNL     1      -9.644 -12.276  36.395  0.00  0.00    +0.016 A 
ATOM     26  C   UNL     1     -10.864  -9.971  37.386  0.00  0.00    +0.039 A 
ATOM     27  C   UNL     1     -11.030 -12.131  36.316  0.00  0.00    +0.039 A 
ATOM     28  C   UNL     1     -11.639 -10.979  36.811  0.00  0.00    +0.123 A 
ENDBRANCH  16  19
TORSDOF 2
ENDMDL
MODEL 7
REMARK VINA RESULT:      -6.7     27.734     29.879
REMARK  Name = 11911963
REMARK  2 active torsions:
REMARK  status: ('A' for Active; 'I' for Inactive)
REMARK    1  A    between atoms: C_16  and  C_19
REMARK    2  A    between atoms: C_17  and  C_20
REMARK                            x       y       z     vdW  Elec       q    Type
REMARK                         _______ _______ _______ _____ _____    ______ ____
ROOT
ATOM      3  O   UNL     1      12.299   7.775   2.404  0.00  0.00    -0.267 OA
ATOM      4  O   UNL     1      13.887   6.444  -2.170  0.00  0.00    -0.270 OA
ATOM      5  N   UNL     1      13.997   4.507  -0.903  0.00  0.00    -0.297 N 
ATOM      6  N   UNL     1      12.820   5.577   1.821  0.00  0.00    -0.311 N 
ATOM      7  C   UNL     1      15.204   4.834   1.247  0.00  0.00    +0.027 C 
ATOM      8  C   UNL     1      13.351   3.217   1.118  0.00  0.00    +0.054 C 
ATOM      9  C   UNL     1      14.736   3.459   1.714  0.00  0.00    +0.018 C 
ATOM     10  C   UNL     1      15.273   4.882  -0.291  0.00  0.00    +0.113 C 
ATOM     11  C   UNL     1      14.255   5.896   1.816  0.00  0.00    +0.130 C 
ATOM     12  C   UNL     1      13.441   3.230  -0.423  0.00  0.00    +0.117 C 
ATOM     13  C   UNL     1      12.367   4.277   1.576  0.00  0.00    +0.027 A 
ATOM     14  C   UNL     1      11.063   3.982   1.696  0.00  0.00    +0.022 A 
ATOM     15  C   UNL     1      11.939   6.619   2.174  0.00  0.00    +0.260 A 
ATOM     16  C   UNL     1      13.370   5.388  -1.804  0.00  0.00    +0.247 C 
ATOM     17  C   UNL     1      10.483   6.260   2.268  0.00  0.00    +0.053 A 
ATOM     18  C   UNL     1      10.106   4.992   2.048  0.00  0.00    +0.016 A 
ENDROOT
BRANCH  17  20
ATOM      1  S   UNL     1       9.099   7.527   4.231  0.00  0.00    -0.088 S 
ATOM     20  C   UNL     1       9.508   7.251   2.596  0.00  0.00    +0.026 A 
ATOM     23  C   UNL     1       8.799   8.077   1.749  0.00  0.00    +0.024 A 
ATOM     24  C   UNL     1       7.899   8.956   2.442  0.00  0.00    -0.010 A 
ATOM     25  C   UNL     1       7.963   8.758   3.824  0.00  0.00    +0.020 A 
ATOM     29  C   UNL     1       7.008   9.938   1.946  0.00  0.00    +0.009 A 
ATOM     30  C   UNL     1       7.168   9.509   4.713  0.00  0.00    +0.015 A 
ATOM     31  C   UNL     1       6.218  10.685   2.825  0.00  0.00    +0.001 A 
ATOM     32  C   UNL     1       6.299  10.470   4.193  0.00  0.00    +0.001 A 
ENDBRANCH  17  20
BRANCH  16  19
ATOM      2  F   UNL     1       8.293   3.964  -3.633  0.00  0.00    -0.205 F 
ATOM     19  C   UNL     1      12.045   5.018  -2.281  0.00  0.00    +0.037 A 
ATOM     21  C   UNL     1      11.917   4.186  -3.392  0.00  0.00    +0.016 A 
ATOM     22  C   UNL     1      10.913   5.494  -1.625  0.00  0.00    +0.016 A 
ATOM     26  C   UNL     1      10.648   3.830  -3.849  0.00  0.00    +0.039 A 
ATOM     27  C   UNL     1       9.644   5.137  -2.083  0.00  0.00    +0.039 A 
ATOM     28  C   UNL     1       9.511   4.305  -3.194  0.00  0.00    +0.123 A 
ENDBRANCH  16  19
TORSDOF 2
ENDMDL
MODEL 8
REMARK VINA RESULT:      -6.7     21.941     24.283
REMARK  Name = 11911963
REMARK  2 active torsions:
REMARK  status: ('A' for Active; 'I' for Inactive)
REMARK    1  A    between atoms: C_16  and  C_19
REMARK    2  A    between atoms: C_17  and  C_20
REMARK                            x       y       z     vdW  Elec       q    Type
REMARK                         _______ _______ _______ _____ _____    ______ ____
ROOT
ATOM      3  O   UNL     1       9.541  -9.426  32.597  0.00  0.00    -0.267 OA
ATOM      4  O   UNL     1       9.257  -7.956  37.390  0.00  0.00    -0.270 OA
ATOM      5  N   UNL     1       8.644  -6.097  36.149  0.00  0.00    -0.297 N 
ATOM      6  N   UNL     1       8.758  -7.326  33.246  0.00  0.00    -0.311 N 
ATOM      7  C   UNL     1      10.271  -5.572  34.343  0.00  0.00    +0.027 C 
ATOM      8  C   UNL     1       7.878  -5.093  34.012  0.00  0.00    +0.054 C 
ATOM      9  C   UNL     1       9.287  -4.564  33.756  0.00  0.00    +0.018 C 
ATOM     10  C   UNL     1      10.032  -5.735  35.855  0.00  0.00    +0.113 C 
ATOM     11  C   UNL     1      10.123  -6.899  33.588  0.00  0.00    +0.130 C 
ATOM     12  C   UNL     1       7.639  -5.216  35.531  0.00  0.00    +0.117 C 
ATOM     13  C   UNL     1       7.676  -6.447  33.357  0.00  0.00    +0.027 A 
ATOM     14  C   UNL     1       6.458  -6.819  32.934  0.00  0.00    +0.022 A 
ATOM     15  C   UNL     1       8.613  -8.625  32.718  0.00  0.00    +0.260 A 
ATOM     16  C   UNL     1       8.370  -7.258  36.896  0.00  0.00    +0.247 C 
ATOM     17  C   UNL     1       7.229  -9.018  32.283  0.00  0.00    +0.053 A 
ATOM     18  C   UNL     1       6.233  -8.127  32.388  0.00  0.00    +0.016 A 
ENDROOT
BRANCH  17  20
ATOM      1  S   UNL     1       6.386 -11.550  32.785  0.00  0.00    -0.088 S 
ATOM     20  C   UNL     1       6.974 -10.321  31.756  0.00  0.00    +0.026 A 
ATOM     23  C   UNL     1       7.137 -10.775  30.464  0.00  0.00    +0.024 A 
ATOM     24  C   UNL     1       6.776 -12.155  30.302  0.00  0.00    -0.010 A 
ATOM     25  C   UNL     1       6.342 -12.710  31.510  0.00  0.00    +0.020 A 
ATOM     29  C   UNL     1       6.798 -12.984  29.154  0.00  0.00    +0.009 A 
ATOM     30  C   UNL     1       5.934 -14.056  31.598  0.00  0.00    +0.015 A 
ATOM     31  C   UNL     1       6.395 -14.319  29.238  0.00  0.00    +0.001 A 
ATOM     32  C   UNL     1       5.968 -14.847  30.448  0.00  0.00    +0.001 A 
ENDBRANCH  17  20
BRANCH  16  19
ATOM      2  F   UNL     1       3.012  -8.710  37.478  0.00  0.00    -0.205 F 
ATOM     19  C   UNL     1       6.971  -7.636  37.048  0.00  0.00    +0.037 A 
ATOM     21  C   UNL     1       6.402  -8.548  36.164  0.00  0.00    +0.016 A 
ATOM     22  C   UNL     1       6.212  -7.085  38.077  0.00  0.00    +0.016 A 
ATOM     26  C   UNL     1       5.063  -8.911  36.309  0.00  0.00    +0.039 A 
ATOM     27  C   UNL     1       4.873  -7.448  38.222  0.00  0.00    +0.039 A 
ATOM     28  C   UNL     1       4.298  -8.362  37.339  0.00  0.00    +0.123 A 
ENDBRANCH  16  19
TORSDOF 2
ENDMDL
MODEL 9
REMARK VINA RESULT:      -6.7     26.022     29.801
REMARK  Name = 11911963
REMARK  2 active torsions:
REMARK  status: ('A' for Active; 'I' for Inactive)
REMARK    1  A    between atoms: C_16  and  C_19
REMARK    2  A    between atoms: C_17  and  C_20
REMARK                            x       y       z     vdW  Elec       q    Type
REMARK                         _______ _______ _______ _____ _____    ______ ____
ROOT
ATOM      3  O   UNL     1      13.674   7.051   7.111  0.00  0.00    -0.267 OA
ATOM      4  O   UNL     1      10.543   3.952   4.702  0.00  0.00    -0.270 OA
ATOM      5  N   UNL     1       9.466   6.004   4.723  0.00  0.00    -0.297 N 
ATOM      6  N   UNL     1      11.679   7.758   6.128  0.00  0.00    -0.311 N 
ATOM      7  C   UNL     1       9.382   7.020   6.992  0.00  0.00    +0.027 C 
ATOM      8  C   UNL     1       9.539   8.469   5.008  0.00  0.00    +0.054 C 
ATOM      9  C   UNL     1       8.891   8.329   6.383  0.00  0.00    +0.018 C 
ATOM     10  C   UNL     1       8.988   5.831   6.097  0.00  0.00    +0.113 C 
ATOM     11  C   UNL     1      10.900   7.112   7.195  0.00  0.00    +0.130 C 
ATOM     12  C   UNL     1       9.105   7.293   4.109  0.00  0.00    +0.117 C 
ATOM     13  C   UNL     1      11.052   8.491   5.117  0.00  0.00    +0.027 A 
ATOM     14  C   UNL     1      11.785   9.168   4.219  0.00  0.00    +0.022 A 
ATOM     15  C   UNL     1      13.083   7.680   6.232  0.00  0.00    +0.260 A 
ATOM     16  C   UNL     1      10.275   5.013   4.137  0.00  0.00    +0.247 C 
ATOM     17  C   UNL     1      13.872   8.424   5.190  0.00  0.00    +0.053 A 
ATOM     18  C   UNL     1      13.219   9.133   4.258  0.00  0.00    +0.016 A 
ENDROOT
BRANCH  17  20
ATOM      1  S   UNL     1      16.137   7.839   3.811  0.00  0.00    -0.088 S 
ATOM     20  C   UNL     1      15.300   8.387   5.195  0.00  0.00    +0.026 A 
ATOM     23  C   UNL     1      16.169   8.749   6.204  0.00  0.00    +0.024 A 
ATOM     24  C   UNL     1      17.549   8.576   5.848  0.00  0.00    -0.010 A 
ATOM     25  C   UNL     1      17.677   8.078   4.548  0.00  0.00    +0.020 A 
ATOM     29  C   UNL     1      18.729   8.828   6.588  0.00  0.00    +0.009 A 
ATOM     30  C   UNL     1      18.941   7.827   3.977  0.00  0.00    +0.015 A 
ATOM     31  C   UNL     1      19.983   8.580   6.025  0.00  0.00    +0.001 A 
ATOM     32  C   UNL     1      20.086   8.085   4.733  0.00  0.00    +0.001 A 
ENDBRANCH  17  20
BRANCH  16  19
ATOM      2  F   UNL     1      12.376   6.110  -0.917  0.00  0.00    -0.205 F 
ATOM     19  C   UNL     1      10.825   5.299   2.818  0.00  0.00    +0.037 A 
ATOM     21  C   UNL     1      10.102   4.953   1.678  0.00  0.00    +0.016 A 
ATOM     22  C   UNL     1      12.067   5.917   2.703  0.00  0.00    +0.016 A 
ATOM     26  C   UNL     1      10.627   5.228   0.415  0.00  0.00    +0.039 A 
ATOM     27  C   UNL     1      12.591   6.191   1.439  0.00  0.00    +0.039 A 
ATOM     28  C   UNL     1      11.871   5.847   0.296  0.00  0.00    +0.123 A 
ENDBRANCH  16  19
TORSDOF 2
ENDMDL
MODEL 10
REMARK VINA RESULT:      -6.5     19.594     23.156
REMARK  Name = 11911963
REMARK  2 active torsions:
REMARK  status: ('A' for Active; 'I' for Inactive)
REMARK    1  A    between atoms: C_16  and  C_19
REMARK    2  A    between atoms: C_17  and  C_20
REMARK                            x       y       z     vdW  Elec       q    Type
REMARK                         _______ _______ _______ _____ _____    ______ ____
ROOT
ATOM      3  O   UNL     1     -16.837   6.940  28.745  0.00  0.00    -0.267 OA
ATOM      4  O   UNL     1     -13.766   5.795  32.550  0.00  0.00    -0.270 OA
ATOM      5  N   UNL     1     -15.900   5.724  33.451  0.00  0.00    -0.297 N 
ATOM      6  N   UNL     1     -17.599   6.317  30.860  0.00  0.00    -0.311 N 
ATOM      7  C   UNL     1     -17.225   7.766  32.940  0.00  0.00    +0.027 C 
ATOM      8  C   UNL     1     -18.361   5.591  33.149  0.00  0.00    +0.054 C 
ATOM      9  C   UNL     1     -18.480   7.079  33.470  0.00  0.00    +0.018 C 
ATOM     10  C   UNL     1     -15.970   7.178  33.610  0.00  0.00    +0.113 C 
ATOM     11  C   UNL     1     -17.189   7.616  31.414  0.00  0.00    +0.130 C 
ATOM     12  C   UNL     1     -17.121   5.007  33.857  0.00  0.00    +0.117 C 
ATOM     13  C   UNL     1     -18.244   5.363  31.653  0.00  0.00    +0.027 A 
ATOM     14  C   UNL     1     -18.711   4.231  31.103  0.00  0.00    +0.022 A 
ATOM     15  C   UNL     1     -17.394   6.123  29.479  0.00  0.00    +0.260 A 
ATOM     16  C   UNL     1     -14.760   5.140  32.868  0.00  0.00    +0.247 C 
ATOM     17  C   UNL     1     -17.901   4.830  28.904  0.00  0.00    +0.053 A 
ATOM     18  C   UNL     1     -18.536   3.962  29.705  0.00  0.00    +0.016 A 
ENDROOT
BRANCH  17  20
ATOM      1  S   UNL     1     -18.919   4.984  26.391  0.00  0.00    -0.088 S 
ATOM     20  C   UNL     1     -17.721   4.529  27.519  0.00  0.00    +0.026 A 
ATOM     23  C   UNL     1     -16.663   3.889  26.906  0.00  0.00    +0.024 A 
ATOM     24  C   UNL     1     -16.828   3.762  25.485  0.00  0.00    -0.010 A 
ATOM     25  C   UNL     1     -18.036   4.327  25.064  0.00  0.00    +0.020 A 
ATOM     29  C   UNL     1     -15.985   3.179  24.509  0.00  0.00    +0.009 A 
ATOM     30  C   UNL     1     -18.417   4.323  23.707  0.00  0.00    +0.015 A 
ATOM     31  C   UNL     1     -16.360   3.173  23.163  0.00  0.00    +0.001 A 
ATOM     32  C   UNL     1     -17.563   3.739  22.769  0.00  0.00    +0.001 A 
ENDBRANCH  17  20
BRANCH  16  19
ATOM      2  F   UNL     1     -14.924  -0.358  31.921  0.00  0.00    -0.205 F 
ATOM     19  C   UNL     1     -14.802   3.705  32.620  0.00  0.00    +0.037 A 
ATOM     21  C   UNL     1     -14.528   2.816  33.656  0.00  0.00    +0.016 A 
ATOM     22  C   UNL     1     -15.117   3.230  31.350  0.00  0.00    +0.016 A 
ATOM     26  C   UNL     1     -14.570   1.442  33.420  0.00  0.00    +0.039 A 
ATOM     27  C   UNL     1     -15.159   1.855  31.114  0.00  0.00    +0.039 A 
ATOM     28  C   UNL     1     -14.885   0.962  32.148  0.00  0.00    +0.123 A 
ENDBRANCH  16  19
TORSDOF 2
ENDMDL
