MODEL 1
REMARK VINA RESULT:      -6.0      0.000      0.000
REMARK  Name = 38028297
REMARK  14 active torsions:
REMARK  status: ('A' for Active; 'I' for Inactive)
REMARK    1  A    between atoms: O_3  and  C_23
REMARK    2  A    between atoms: O_3  and  C_27
REMARK    3  A    between atoms: N_4  and  C_14
REMARK    4  A    between atoms: N_5  and  C_22
REMARK    5  A    between atoms: C_7  and  C_11
REMARK    6  A    between atoms: C_8  and  C_14
REMARK    7  A    between atoms: C_10  and  C_15
REMARK    8  A    between atoms: C_11  and  C_16
REMARK    9  A    between atoms: C_11  and  C_17
REMARK   10  A    between atoms: C_12  and  C_18
REMARK   11  A    between atoms: C_15  and  C_19
REMARK   12  A    between atoms: C_20  and  C_21
REMARK   13  A    between atoms: C_21  and  C_23
REMARK   14  A    between atoms: C_22  and  C_24
REMARK                            x       y       z     vdW  Elec       q    Type
REMARK                         _______ _______ _______ _____ _____    ______ ____
ROOT
ATOM      7  C   UNL     1      -6.040 -10.443  15.395  0.00  0.00    +0.000 C 
ATOM      8  C   UNL     1      -6.796 -10.563  16.741  0.00  0.00    +0.032 C 
ATOM      9  C   UNL     1      -5.035 -11.596  15.240  0.00  0.00    +0.012 C 
ATOM     10  C   UNL     1      -4.001 -11.623  16.381  0.00  0.00    +0.023 C 
ATOM     12  C   UNL     1      -4.655 -11.474  17.739  0.00  0.00    -0.073 C 
ATOM     13  C   UNL     1      -5.910 -11.011  17.879  0.00  0.00    -0.022 C 
ATOM     18  C   UNL     1      -3.851 -11.912  18.931  0.00  0.00    +0.039 C 
ENDROOT
BRANCH   7  11
ATOM     11  C   UNL     1      -7.001 -10.429  14.202  0.00  0.00    -0.013 C 
ATOM     16  C   UNL     1      -6.227 -10.270  12.897  0.00  0.00    +0.007 C 
ATOM     17  C   UNL     1      -7.840 -11.703  14.180  0.00  0.00    +0.007 C 
ENDBRANCH   7  11
BRANCH   8  14
ATOM     14  C   UNL     1      -7.476  -9.239  17.113  0.00  0.00    +0.112 C 
BRANCH  14   4
ATOM      2  O   UNL     1     -10.304  -9.366  16.549  0.00  0.00    -0.276 OA
ATOM      4  N   UNL     1      -8.532  -9.458  18.051  0.00  0.00    -0.315 N 
ATOM     20  C   UNL     1      -9.881  -9.504  17.693  0.00  0.00    +0.215 C 
ATOM     30  H   UNL     1      -8.281  -9.635  19.019  0.00  0.00    +0.149 HD
BRANCH  20  21
ATOM     21  C   UNL     1     -10.782  -9.754  18.892  0.00  0.00    +0.124 C 
BRANCH  21  23
ATOM     23  C   UNL     1     -10.208 -10.775  19.862  0.00  0.00    +0.168 C 
BRANCH  23   3
ATOM      3  O   UNL     1      -9.670 -11.870  19.131  0.00  0.00    -0.382 OA
ATOM     27  C   UNL     1      -8.712 -12.588  19.898  0.00  0.00    +0.194 C 
ENDBRANCH  23   3
ENDBRANCH  21  23
ENDBRANCH  20  21
ENDBRANCH  14   4
ENDBRANCH   8  14
BRANCH  10  15
ATOM     15  C   UNL     1      -2.920 -10.556  16.172  0.00  0.00    +0.103 C 
BRANCH  15  19
ATOM      1  O   UNL     1      -1.097 -11.708  15.076  0.00  0.00    -0.276 OA
ATOM      5  N   UNL     1      -2.343 -10.146  13.889  0.00  0.00    -0.310 N 
ATOM     19  C   UNL     1      -2.009 -10.888  15.012  0.00  0.00    +0.214 C 
ATOM     31  H   UNL     1      -3.128  -9.503  13.934  0.00  0.00    +0.149 HD
BRANCH   5  22
ATOM     22  C   UNL     1      -1.639 -10.256  12.632  0.00  0.00    +0.159 C 
BRANCH  22  24
ATOM      6  N   UNL     1      -3.021 -11.764  11.323  0.00  0.00    -0.258 NA
ATOM     24  C   UNL     1      -2.574 -10.498  11.483  0.00  0.00    +0.058 A 
ATOM     25  C   UNL     1      -2.928  -9.440  10.661  0.00  0.00    +0.025 A 
ATOM     26  C   UNL     1      -3.796  -9.698   9.607  0.00  0.00    +0.003 A 
ATOM     28  C   UNL     1      -3.864 -11.976  10.287  0.00  0.00    +0.111 A 
ATOM     29  C   UNL     1      -4.279 -10.988   9.409  0.00  0.00    +0.020 A 
ENDBRANCH  22  24
ENDBRANCH   5  22
ENDBRANCH  15  19
ENDBRANCH  10  15
TORSDOF 10
ENDMDL
MODEL 2
REMARK VINA RESULT:      -5.7      3.719      8.068
REMARK  Name = 38028297
REMARK  14 active torsions:
REMARK  status: ('A' for Active; 'I' for Inactive)
REMARK    1  A    between atoms: O_3  and  C_23
REMARK    2  A    between atoms: O_3  and  C_27
REMARK    3  A    between atoms: N_4  and  C_14
REMARK    4  A    between atoms: N_5  and  C_22
REMARK    5  A    between atoms: C_7  and  C_11
REMARK    6  A    between atoms: C_8  and  C_14
REMARK    7  A    between atoms: C_10  and  C_15
REMARK    8  A    between atoms: C_11  and  C_16
REMARK    9  A    between atoms: C_11  and  C_17
REMARK   10  A    between atoms: C_12  and  C_18
REMARK   11  A    between atoms: C_15  and  C_19
REMARK   12  A    between atoms: C_20  and  C_21
REMARK   13  A    between atoms: C_21  and  C_23
REMARK   14  A    between atoms: C_22  and  C_24
REMARK                            x       y       z     vdW  Elec       q    Type
REMARK                         _______ _______ _______ _____ _____    ______ ____
ROOT
ATOM      7  C   UNL     1      -5.205 -10.511  10.687  0.00  0.00    +0.000 C 
ATOM      8  C   UNL     1      -4.593  -9.575   9.616  0.00  0.00    +0.032 C 
ATOM      9  C   UNL     1      -4.698 -10.127  12.087  0.00  0.00    +0.012 C 
ATOM     10  C   UNL     1      -3.164 -10.204  12.191  0.00  0.00    +0.023 C 
ATOM     12  C   UNL     1      -2.485  -9.528  11.017  0.00  0.00    -0.073 C 
ATOM     13  C   UNL     1      -3.143  -9.243   9.880  0.00  0.00    -0.022 C 
ATOM     18  C   UNL     1      -1.042  -9.147  11.197  0.00  0.00    +0.039 C 
ENDROOT
BRANCH   7  11
ATOM     11  C   UNL     1      -6.737 -10.477  10.664  0.00  0.00    -0.013 C 
ATOM     16  C   UNL     1      -7.304 -11.249  11.852  0.00  0.00    +0.007 C 
ATOM     17  C   UNL     1      -7.238  -9.037  10.666  0.00  0.00    +0.007 C 
ENDBRANCH   7  11
BRANCH   8  14
ATOM     14  C   UNL     1      -4.733 -10.176   8.212  0.00  0.00    +0.112 C 
BRANCH  14   4
ATOM      2  O   UNL     1      -7.177 -10.930   6.876  0.00  0.00    -0.276 OA
ATOM      4  N   UNL     1      -5.553  -9.347   7.386  0.00  0.00    -0.315 N 
ATOM     20  C   UNL     1      -6.726  -9.793   6.773  0.00  0.00    +0.215 C 
ATOM     30  H   UNL     1      -5.290  -8.371   7.279  0.00  0.00    +0.149 HD
BRANCH  20  21
ATOM     21  C   UNL     1      -7.395  -8.699   5.956  0.00  0.00    +0.124 C 
BRANCH  21  23
ATOM     23  C   UNL     1      -8.669  -8.174   6.601  0.00  0.00    +0.168 C 
BRANCH  23   3
ATOM      3  O   UNL     1      -8.568  -6.765   6.767  0.00  0.00    -0.382 OA
ATOM     27  C   UNL     1      -7.943  -6.429   7.999  0.00  0.00    +0.194 C 
ENDBRANCH  23   3
ENDBRANCH  21  23
ENDBRANCH  20  21
ENDBRANCH  14   4
ENDBRANCH   8  14
BRANCH  10  15
ATOM     15  C   UNL     1      -2.691 -11.655  12.338  0.00  0.00    +0.103 C 
BRANCH  15  19
ATOM      1  O   UNL     1      -2.365 -13.215  14.157  0.00  0.00    -0.276 OA
ATOM      5  N   UNL     1      -2.597 -10.950  14.619  0.00  0.00    -0.310 N 
ATOM     19  C   UNL     1      -2.530 -12.057  13.786  0.00  0.00    +0.214 C 
ATOM     31  H   UNL     1      -2.720 -10.028  14.212  0.00  0.00    +0.149 HD
BRANCH   5  22
ATOM     22  C   UNL     1      -2.476 -11.036  16.057  0.00  0.00    +0.159 C 
BRANCH  22  24
ATOM      6  N   UNL     1      -4.748 -10.177  16.057  0.00  0.00    -0.258 NA
ATOM     24  C   UNL     1      -3.798 -10.849  16.744  0.00  0.00    +0.058 A 
ATOM     25  C   UNL     1      -3.979 -11.362  18.019  0.00  0.00    +0.025 A 
ATOM     26  C   UNL     1      -5.214 -11.172  18.627  0.00  0.00    +0.003 A 
ATOM     28  C   UNL     1      -5.936 -10.012  16.680  0.00  0.00    +0.111 A 
ATOM     29  C   UNL     1      -6.218 -10.485  17.952  0.00  0.00    +0.020 A 
ENDBRANCH  22  24
ENDBRANCH   5  22
ENDBRANCH  15  19
ENDBRANCH  10  15
TORSDOF 10
ENDMDL
MODEL 3
REMARK VINA RESULT:      -5.6      1.729      2.740
REMARK  Name = 38028297
REMARK  14 active torsions:
REMARK  status: ('A' for Active; 'I' for Inactive)
REMARK    1  A    between atoms: O_3  and  C_23
REMARK    2  A    between atoms: O_3  and  C_27
REMARK    3  A    between atoms: N_4  and  C_14
REMARK    4  A    between atoms: N_5  and  C_22
REMARK    5  A    between atoms: C_7  and  C_11
REMARK    6  A    between atoms: C_8  and  C_14
REMARK    7  A    between atoms: C_10  and  C_15
REMARK    8  A    between atoms: C_11  and  C_16
REMARK    9  A    between atoms: C_11  and  C_17
REMARK   10  A    between atoms: C_12  and  C_18
REMARK   11  A    between atoms: C_15  and  C_19
REMARK   12  A    between atoms: C_20  and  C_21
REMARK   13  A    between atoms: C_21  and  C_23
REMARK   14  A    between atoms: C_22  and  C_24
REMARK                            x       y       z     vdW  Elec       q    Type
REMARK                         _______ _______ _______ _____ _____    ______ ____
ROOT
ATOM      7  C   UNL     1      -5.843 -10.504  15.089  0.00  0.00    +0.000 C 
ATOM      8  C   UNL     1      -6.695 -10.463  16.381  0.00  0.00    +0.032 C 
ATOM      9  C   UNL     1      -4.944 -11.750  15.079  0.00  0.00    +0.012 C 
ATOM     10  C   UNL     1      -3.995 -11.792  16.291  0.00  0.00    +0.023 C 
ATOM     12  C   UNL     1      -4.720 -11.492  17.586  0.00  0.00    -0.073 C 
ATOM     13  C   UNL     1      -5.933 -10.910  17.606  0.00  0.00    -0.022 C 
ATOM     18  C   UNL     1      -4.042 -11.918  18.858  0.00  0.00    +0.039 C 
ENDROOT
BRANCH   7  11
ATOM     11  C   UNL     1      -6.717 -10.486  13.830  0.00  0.00    -0.013 C 
ATOM     16  C   UNL     1      -6.155  -9.505  12.806  0.00  0.00    +0.007 C 
ATOM     17  C   UNL     1      -6.823 -11.887  13.236  0.00  0.00    +0.007 C 
ENDBRANCH   7  11
BRANCH   8  14
ATOM     14  C   UNL     1      -7.271  -9.062  16.620  0.00  0.00    +0.112 C 
BRANCH  14   4
ATOM      2  O   UNL     1      -9.682  -7.811  17.595  0.00  0.00    -0.276 OA
ATOM      4  N   UNL     1      -8.499  -8.891  15.910  0.00  0.00    -0.315 N 
ATOM     20  C   UNL     1      -9.624  -8.272  16.459  0.00  0.00    +0.215 C 
ATOM     30  H   UNL     1      -8.536  -9.195  14.941  0.00  0.00    +0.149 HD
BRANCH  20  21
ATOM     21  C   UNL     1     -10.786  -8.226  15.478  0.00  0.00    +0.124 C 
BRANCH  21  23
ATOM     23  C   UNL     1     -11.994  -7.483  16.027  0.00  0.00    +0.168 C 
BRANCH  23   3
ATOM      3  O   UNL     1     -11.802  -6.083  15.864  0.00  0.00    -0.382 OA
ATOM     27  C   UNL     1     -11.936  -5.694  14.503  0.00  0.00    +0.194 C 
ENDBRANCH  23   3
ENDBRANCH  21  23
ENDBRANCH  20  21
ENDBRANCH  14   4
ENDBRANCH   8  14
BRANCH  10  15
ATOM     15  C   UNL     1      -2.806 -10.842  16.095  0.00  0.00    +0.103 C 
BRANCH  15  19
ATOM      1  O   UNL     1      -1.338 -12.141  14.677  0.00  0.00    -0.276 OA
ATOM      5  N   UNL     1      -2.236 -10.152  13.879  0.00  0.00    -0.310 N 
ATOM     19  C   UNL     1      -2.040 -11.145  14.828  0.00  0.00    +0.214 C 
ATOM     31  H   UNL     1      -2.850  -9.372  14.095  0.00  0.00    +0.149 HD
BRANCH   5  22
ATOM     22  C   UNL     1      -1.622 -10.178  12.571  0.00  0.00    +0.159 C 
BRANCH  22  24
ATOM      6  N   UNL     1      -2.836  -9.369  10.628  0.00  0.00    -0.258 NA
ATOM     24  C   UNL     1      -2.632 -10.398  11.482  0.00  0.00    +0.058 A 
ATOM     25  C   UNL     1      -3.290 -11.615  11.403  0.00  0.00    +0.025 A 
ATOM     26  C   UNL     1      -4.218 -11.787  10.382  0.00  0.00    +0.003 A 
ATOM     28  C   UNL     1      -3.746  -9.574   9.650  0.00  0.00    +0.111 A 
ATOM     29  C   UNL     1      -4.457 -10.752   9.484  0.00  0.00    +0.020 A 
ENDBRANCH  22  24
ENDBRANCH   5  22
ENDBRANCH  15  19
ENDBRANCH  10  15
TORSDOF 10
ENDMDL
MODEL 4
REMARK VINA RESULT:      -5.6      2.249      7.732
REMARK  Name = 38028297
REMARK  14 active torsions:
REMARK  status: ('A' for Active; 'I' for Inactive)
REMARK    1  A    between atoms: O_3  and  C_23
REMARK    2  A    between atoms: O_3  and  C_27
REMARK    3  A    between atoms: N_4  and  C_14
REMARK    4  A    between atoms: N_5  and  C_22
REMARK    5  A    between atoms: C_7  and  C_11
REMARK    6  A    between atoms: C_8  and  C_14
REMARK    7  A    between atoms: C_10  and  C_15
REMARK    8  A    between atoms: C_11  and  C_16
REMARK    9  A    between atoms: C_11  and  C_17
REMARK   10  A    between atoms: C_12  and  C_18
REMARK   11  A    between atoms: C_15  and  C_19
REMARK   12  A    between atoms: C_20  and  C_21
REMARK   13  A    between atoms: C_21  and  C_23
REMARK   14  A    between atoms: C_22  and  C_24
REMARK                            x       y       z     vdW  Elec       q    Type
REMARK                         _______ _______ _______ _____ _____    ______ ____
ROOT
ATOM      7  C   UNL     1      -7.078 -10.345  16.152  0.00  0.00    +0.000 C 
ATOM      8  C   UNL     1      -6.136 -10.064  14.956  0.00  0.00    +0.032 C 
ATOM      9  C   UNL     1      -6.430  -9.876  17.465  0.00  0.00    +0.012 C 
ATOM     10  C   UNL     1      -5.083 -10.573  17.731  0.00  0.00    +0.023 C 
ATOM     12  C   UNL     1      -4.197 -10.572  16.503  0.00  0.00    -0.073 C 
ATOM     13  C   UNL     1      -4.683 -10.329  15.272  0.00  0.00    -0.022 C 
ATOM     18  C   UNL     1      -2.729 -10.812  16.725  0.00  0.00    +0.039 C 
ENDROOT
BRANCH   7  11
ATOM     11  C   UNL     1      -8.440  -9.667  15.976  0.00  0.00    -0.013 C 
ATOM     16  C   UNL     1      -9.557 -10.706  15.988  0.00  0.00    +0.007 C 
ATOM     17  C   UNL     1      -8.661  -8.623  17.065  0.00  0.00    +0.007 C 
ENDBRANCH   7  11
BRANCH   8  14
ATOM     14  C   UNL     1      -6.548 -10.879  13.724  0.00  0.00    +0.112 C 
BRANCH  14   4
ATOM      2  O   UNL     1      -6.153  -8.786  11.777  0.00  0.00    -0.276 OA
ATOM      4  N   UNL     1      -5.536 -10.821  12.716  0.00  0.00    -0.315 N 
ATOM     20  C   UNL     1      -5.416  -9.766  11.809  0.00  0.00    +0.215 C 
ATOM     30  H   UNL     1      -4.844 -11.564  12.692  0.00  0.00    +0.149 HD
BRANCH  20  21
ATOM     21  C   UNL     1      -4.251  -9.967  10.852  0.00  0.00    +0.124 C 
BRANCH  21  23
ATOM     23  C   UNL     1      -2.937 -10.241  11.568  0.00  0.00    +0.168 C 
BRANCH  23   3
ATOM      3  O   UNL     1      -2.802 -11.639  11.787  0.00  0.00    -0.382 OA
ATOM     27  C   UNL     1      -1.972 -11.913  12.909  0.00  0.00    +0.194 C 
ENDBRANCH  23   3
ENDBRANCH  21  23
ENDBRANCH  20  21
ENDBRANCH  14   4
ENDBRANCH   8  14
BRANCH  10  15
ATOM     15  C   UNL     1      -5.291 -11.998  18.257  0.00  0.00    +0.103 C 
BRANCH  15  19
ATOM      1  O   UNL     1      -6.161 -11.424  20.440  0.00  0.00    -0.276 OA
ATOM      5  N   UNL     1      -7.356 -12.878  19.077  0.00  0.00    -0.310 N 
ATOM     19  C   UNL     1      -6.292 -12.045  19.389  0.00  0.00    +0.214 C 
ATOM     31  H   UNL     1      -7.380 -13.336  18.171  0.00  0.00    +0.149 HD
BRANCH   5  22
ATOM     22  C   UNL     1      -8.463 -13.115  19.976  0.00  0.00    +0.159 C 
BRANCH  22  24
ATOM      6  N   UNL     1     -10.681 -12.940  19.002  0.00  0.00    -0.258 NA
ATOM     24  C   UNL     1      -9.666 -12.292  19.616  0.00  0.00    +0.058 A 
ATOM     25  C   UNL     1      -9.680 -10.940  19.922  0.00  0.00    +0.025 A 
ATOM     26  C   UNL     1     -10.808 -10.207  19.575  0.00  0.00    +0.003 A 
ATOM     28  C   UNL     1     -11.762 -12.194  18.680  0.00  0.00    +0.111 A 
ATOM     29  C   UNL     1     -11.875 -10.838  18.942  0.00  0.00    +0.020 A 
ENDBRANCH  22  24
ENDBRANCH   5  22
ENDBRANCH  15  19
ENDBRANCH  10  15
TORSDOF 10
ENDMDL
MODEL 5
REMARK VINA RESULT:      -5.5     28.580     31.441
REMARK  Name = 38028297
REMARK  14 active torsions:
REMARK  status: ('A' for Active; 'I' for Inactive)
REMARK    1  A    between atoms: O_3  and  C_23
REMARK    2  A    between atoms: O_3  and  C_27
REMARK    3  A    between atoms: N_4  and  C_14
REMARK    4  A    between atoms: N_5  and  C_22
REMARK    5  A    between atoms: C_7  and  C_11
REMARK    6  A    between atoms: C_8  and  C_14
REMARK    7  A    between atoms: C_10  and  C_15
REMARK    8  A    between atoms: C_11  and  C_16
REMARK    9  A    between atoms: C_11  and  C_17
REMARK   10  A    between atoms: C_12  and  C_18
REMARK   11  A    between atoms: C_15  and  C_19
REMARK   12  A    between atoms: C_20  and  C_21
REMARK   13  A    between atoms: C_21  and  C_23
REMARK   14  A    between atoms: C_22  and  C_24
REMARK                            x       y       z     vdW  Elec       q    Type
REMARK                         _______ _______ _______ _____ _____    ______ ____
ROOT
ATOM      7  C   UNL     1      20.223   6.076  21.912  0.00  0.00    +0.000 C 
ATOM      8  C   UNL     1      20.557   7.342  22.739  0.00  0.00    +0.032 C 
ATOM      9  C   UNL     1      19.641   6.468  20.545  0.00  0.00    +0.012 C 
ATOM     10  C   UNL     1      18.362   7.315  20.678  0.00  0.00    +0.023 C 
ATOM     12  C   UNL     1      18.529   8.432  21.687  0.00  0.00    -0.073 C 
ATOM     13  C   UNL     1      19.524   8.433  22.592  0.00  0.00    -0.022 C 
ATOM     18  C   UNL     1      17.552   9.572  21.604  0.00  0.00    +0.039 C 
ENDROOT
BRANCH   7  11
ATOM     11  C   UNL     1      21.454   5.184  21.715  0.00  0.00    -0.013 C 
ATOM     16  C   UNL     1      21.092   3.952  20.891  0.00  0.00    +0.007 C 
ATOM     17  C   UNL     1      22.579   5.969  21.048  0.00  0.00    +0.007 C 
ENDBRANCH   7  11
BRANCH   8  14
ATOM     14  C   UNL     1      20.732   7.001  24.224  0.00  0.00    +0.112 C 
BRANCH  14   4
ATOM      2  O   UNL     1      19.874   7.194  26.973  0.00  0.00    -0.276 OA
ATOM      4  N   UNL     1      20.671   8.183  25.026  0.00  0.00    -0.315 N 
ATOM     20  C   UNL     1      20.240   8.189  26.354  0.00  0.00    +0.215 C 
ATOM     30  H   UNL     1      21.001   9.053  24.619  0.00  0.00    +0.149 HD
BRANCH  20  21
ATOM     21  C   UNL     1      20.281   9.583  26.961  0.00  0.00    +0.124 C 
BRANCH  21  23
ATOM     23  C   UNL     1      20.851  10.626  26.013  0.00  0.00    +0.168 C 
BRANCH  23   3
ATOM      3  O   UNL     1      19.859  10.992  25.063  0.00  0.00    -0.382 OA
ATOM     27  C   UNL     1      20.222  12.175  24.361  0.00  0.00    +0.194 C 
ENDBRANCH  23   3
ENDBRANCH  21  23
ENDBRANCH  20  21
ENDBRANCH  14   4
ENDBRANCH   8  14
BRANCH  10  15
ATOM     15  C   UNL     1      17.152   6.438  21.024  0.00  0.00    +0.103 C 
BRANCH  15  19
ATOM      1  O   UNL     1      16.454   5.711  18.825  0.00  0.00    -0.276 OA
ATOM      5  N   UNL     1      14.997   6.962  20.134  0.00  0.00    -0.310 N 
ATOM     19  C   UNL     1      16.192   6.312  19.863  0.00  0.00    +0.214 C 
ATOM     31  H   UNL     1      14.871   7.417  21.033  0.00  0.00    +0.149 HD
BRANCH   5  22
ATOM     22  C   UNL     1      13.894   7.007  19.201  0.00  0.00    +0.159 C 
BRANCH  22  24
ATOM      6  N   UNL     1      13.833   7.761  16.893  0.00  0.00    -0.258 NA
ATOM     24  C   UNL     1      14.064   8.096  18.182  0.00  0.00    +0.058 A 
ATOM     25  C   UNL     1      14.440   9.363  18.600  0.00  0.00    +0.025 A 
ATOM     26  C   UNL     1      14.588  10.349  17.631  0.00  0.00    +0.003 A 
ATOM     28  C   UNL     1      13.988   8.747  15.980  0.00  0.00    +0.111 A 
ATOM     29  C   UNL     1      14.359  10.044  16.294  0.00  0.00    +0.020 A 
ENDBRANCH  22  24
ENDBRANCH   5  22
ENDBRANCH  15  19
ENDBRANCH  10  15
TORSDOF 10
ENDMDL
MODEL 6
REMARK VINA RESULT:      -5.5      2.499      7.491
REMARK  Name = 38028297
REMARK  14 active torsions:
REMARK  status: ('A' for Active; 'I' for Inactive)
REMARK    1  A    between atoms: O_3  and  C_23
REMARK    2  A    between atoms: O_3  and  C_27
REMARK    3  A    between atoms: N_4  and  C_14
REMARK    4  A    between atoms: N_5  and  C_22
REMARK    5  A    between atoms: C_7  and  C_11
REMARK    6  A    between atoms: C_8  and  C_14
REMARK    7  A    between atoms: C_10  and  C_15
REMARK    8  A    between atoms: C_11  and  C_16
REMARK    9  A    between atoms: C_11  and  C_17
REMARK   10  A    between atoms: C_12  and  C_18
REMARK   11  A    between atoms: C_15  and  C_19
REMARK   12  A    between atoms: C_20  and  C_21
REMARK   13  A    between atoms: C_21  and  C_23
REMARK   14  A    between atoms: C_22  and  C_24
REMARK                            x       y       z     vdW  Elec       q    Type
REMARK                         _______ _______ _______ _____ _____    ______ ____
ROOT
ATOM      7  C   UNL     1      -4.639 -10.960  13.088  0.00  0.00    +0.000 C 
ATOM      8  C   UNL     1      -3.255 -10.469  12.597  0.00  0.00    +0.032 C 
ATOM      9  C   UNL     1      -4.944 -10.393  14.484  0.00  0.00    +0.012 C 
ATOM     10  C   UNL     1      -3.884 -10.803  15.523  0.00  0.00    +0.023 C 
ATOM     12  C   UNL     1      -2.476 -10.597  15.002  0.00  0.00    -0.073 C 
ATOM     13  C   UNL     1      -2.216 -10.436  13.693  0.00  0.00    -0.022 C 
ATOM     18  C   UNL     1      -1.377 -10.535  16.026  0.00  0.00    +0.039 C 
ENDROOT
BRANCH   7  11
ATOM     11  C   UNL     1      -5.758 -10.573  12.116  0.00  0.00    -0.013 C 
ATOM     16  C   UNL     1      -6.833 -11.655  12.084  0.00  0.00    +0.007 C 
ATOM     17  C   UNL     1      -6.359  -9.226  12.505  0.00  0.00    +0.007 C 
ENDBRANCH   7  11
BRANCH   8  14
ATOM     14  C   UNL     1      -2.744 -11.328  11.434  0.00  0.00    +0.112 C 
BRANCH  14   4
ATOM      2  O   UNL     1      -4.170 -13.687  10.577  0.00  0.00    -0.276 OA
ATOM      4  N   UNL     1      -2.517 -12.674  11.859  0.00  0.00    -0.315 N 
ATOM     20  C   UNL     1      -3.256 -13.762  11.393  0.00  0.00    +0.215 C 
ATOM     30  H   UNL     1      -1.746 -12.847  12.498  0.00  0.00    +0.149 HD
BRANCH  20  21
ATOM     21  C   UNL     1      -2.795 -15.073  12.013  0.00  0.00    +0.124 C 
BRANCH  21  23
ATOM     23  C   UNL     1      -2.804 -15.043  13.534  0.00  0.00    +0.168 C 
BRANCH  23   3
ATOM      3  O   UNL     1      -1.501 -14.732  14.008  0.00  0.00    -0.382 OA
ATOM     27  C   UNL     1      -0.510 -15.523  13.364  0.00  0.00    +0.194 C 
ENDBRANCH  23   3
ENDBRANCH  21  23
ENDBRANCH  20  21
ENDBRANCH  14   4
ENDBRANCH   8  14
BRANCH  10  15
ATOM     15  C   UNL     1      -4.092 -12.250  15.985  0.00  0.00    +0.103 C 
BRANCH  15  19
ATOM      1  O   UNL     1      -5.446 -13.358  17.655  0.00  0.00    -0.276 OA
ATOM      5  N   UNL     1      -4.965 -11.096  17.887  0.00  0.00    -0.310 N 
ATOM     19  C   UNL     1      -4.909 -12.329  17.254  0.00  0.00    +0.214 C 
ATOM     31  H   UNL     1      -4.472 -10.307  17.482  0.00  0.00    +0.149 HD
BRANCH   5  22
ATOM     22  C   UNL     1      -5.681 -10.876  19.123  0.00  0.00    +0.159 C 
BRANCH  22  24
ATOM      6  N   UNL     1      -8.005 -11.174  19.764  0.00  0.00    -0.258 NA
ATOM     24  C   UNL     1      -7.140 -10.614  18.889  0.00  0.00    +0.058 A 
ATOM     25  C   UNL     1      -7.524  -9.829  17.813  0.00  0.00    +0.025 A 
ATOM     26  C   UNL     1      -8.883  -9.605  17.624  0.00  0.00    +0.003 A 
ATOM     28  C   UNL     1      -9.318 -10.934  19.548  0.00  0.00    +0.111 A 
ATOM     29  C   UNL     1      -9.804 -10.164  18.504  0.00  0.00    +0.020 A 
ENDBRANCH  22  24
ENDBRANCH   5  22
ENDBRANCH  15  19
ENDBRANCH  10  15
TORSDOF 10
ENDMDL
MODEL 7
REMARK VINA RESULT:      -5.5      3.045      8.031
REMARK  Name = 38028297
REMARK  14 active torsions:
REMARK  status: ('A' for Active; 'I' for Inactive)
REMARK    1  A    between atoms: O_3  and  C_23
REMARK    2  A    between atoms: O_3  and  C_27
REMARK    3  A    between atoms: N_4  and  C_14
REMARK    4  A    between atoms: N_5  and  C_22
REMARK    5  A    between atoms: C_7  and  C_11
REMARK    6  A    between atoms: C_8  and  C_14
REMARK    7  A    between atoms: C_10  and  C_15
REMARK    8  A    between atoms: C_11  and  C_16
REMARK    9  A    between atoms: C_11  and  C_17
REMARK   10  A    between atoms: C_12  and  C_18
REMARK   11  A    between atoms: C_15  and  C_19
REMARK   12  A    between atoms: C_20  and  C_21
REMARK   13  A    between atoms: C_21  and  C_23
REMARK   14  A    between atoms: C_22  and  C_24
REMARK                            x       y       z     vdW  Elec       q    Type
REMARK                         _______ _______ _______ _____ _____    ______ ____
ROOT
ATOM      7  C   UNL     1      -5.685 -10.673  17.783  0.00  0.00    +0.000 C 
ATOM      8  C   UNL     1      -5.052 -11.018  16.413  0.00  0.00    +0.032 C 
ATOM      9  C   UNL     1      -7.191 -10.979  17.770  0.00  0.00    +0.012 C 
ATOM     10  C   UNL     1      -7.935 -10.192  16.677  0.00  0.00    +0.023 C 
ATOM     12  C   UNL     1      -7.219 -10.264  15.344  0.00  0.00    -0.073 C 
ATOM     13  C   UNL     1      -5.934 -10.648  15.244  0.00  0.00    -0.022 C 
ATOM     18  C   UNL     1      -8.026  -9.927  14.121  0.00  0.00    +0.039 C 
ENDROOT
BRANCH   7  11
ATOM     11  C   UNL     1      -5.011 -11.434  18.930  0.00  0.00    -0.013 C 
ATOM     16  C   UNL     1      -5.883 -11.394  20.180  0.00  0.00    +0.007 C 
ATOM     17  C   UNL     1      -4.725 -12.874  18.516  0.00  0.00    +0.007 C 
ENDBRANCH   7  11
BRANCH   8  14
ATOM     14  C   UNL     1      -3.682 -10.347  16.252  0.00  0.00    +0.112 C 
BRANCH  14   4
ATOM      2  O   UNL     1      -1.496 -11.662  14.903  0.00  0.00    -0.276 OA
ATOM      4  N   UNL     1      -3.331 -10.236  14.870  0.00  0.00    -0.315 N 
ATOM     20  C   UNL     1      -2.252 -10.910  14.296  0.00  0.00    +0.215 C 
ATOM     30  H   UNL     1      -3.928  -9.674  14.271  0.00  0.00    +0.149 HD
BRANCH  20  21
ATOM     21  C   UNL     1      -2.116 -10.608  12.811  0.00  0.00    +0.124 C 
BRANCH  21  23
ATOM     23  C   UNL     1      -3.358 -10.980  12.015  0.00  0.00    +0.168 C 
BRANCH  23   3
ATOM      3  O   UNL     1      -4.342  -9.966  12.176  0.00  0.00    -0.382 OA
ATOM     27  C   UNL     1      -4.966  -9.645  10.940  0.00  0.00    +0.194 C 
ENDBRANCH  23   3
ENDBRANCH  21  23
ENDBRANCH  20  21
ENDBRANCH  14   4
ENDBRANCH   8  14
BRANCH  10  15
ATOM     15  C   UNL     1      -8.161  -8.735  17.101  0.00  0.00    +0.103 C 
BRANCH  15  19
ATOM      1  O   UNL     1     -10.475  -9.068  17.721  0.00  0.00    -0.276 OA
ATOM      5  N   UNL     1      -9.879  -7.191  16.486  0.00  0.00    -0.310 N 
ATOM     19  C   UNL     1      -9.629  -8.380  17.156  0.00  0.00    +0.214 C 
ATOM     31  H   UNL     1      -9.105  -6.687  16.063  0.00  0.00    +0.149 HD
BRANCH   5  22
ATOM     22  C   UNL     1     -11.198  -6.610  16.375  0.00  0.00    +0.159 C 
BRANCH  22  24
ATOM      6  N   UNL     1     -12.013  -5.418  14.423  0.00  0.00    -0.258 NA
ATOM     24  C   UNL     1     -11.698  -6.618  14.960  0.00  0.00    +0.058 A 
ATOM     25  C   UNL     1     -11.810  -7.824  14.287  0.00  0.00    +0.025 A 
ATOM     26  C   UNL     1     -12.276  -7.796  12.977  0.00  0.00    +0.003 A 
ATOM     28  C   UNL     1     -12.463  -5.431  13.148  0.00  0.00    +0.111 A 
ATOM     29  C   UNL     1     -12.611  -6.581  12.389  0.00  0.00    +0.020 A 
ENDBRANCH  22  24
ENDBRANCH   5  22
ENDBRANCH  15  19
ENDBRANCH  10  15
TORSDOF 10
ENDMDL
MODEL 8
REMARK VINA RESULT:      -5.4     19.086     20.810
REMARK  Name = 38028297
REMARK  14 active torsions:
REMARK  status: ('A' for Active; 'I' for Inactive)
REMARK    1  A    between atoms: O_3  and  C_23
REMARK    2  A    between atoms: O_3  and  C_27
REMARK    3  A    between atoms: N_4  and  C_14
REMARK    4  A    between atoms: N_5  and  C_22
REMARK    5  A    between atoms: C_7  and  C_11
REMARK    6  A    between atoms: C_8  and  C_14
REMARK    7  A    between atoms: C_10  and  C_15
REMARK    8  A    between atoms: C_11  and  C_16
REMARK    9  A    between atoms: C_11  and  C_17
REMARK   10  A    between atoms: C_12  and  C_18
REMARK   11  A    between atoms: C_15  and  C_19
REMARK   12  A    between atoms: C_20  and  C_21
REMARK   13  A    between atoms: C_21  and  C_23
REMARK   14  A    between atoms: C_22  and  C_24
REMARK                            x       y       z     vdW  Elec       q    Type
REMARK                         _______ _______ _______ _____ _____    ______ ____
ROOT
ATOM      7  C   UNL     1     -15.562   6.490  22.530  0.00  0.00    +0.000 C 
ATOM      8  C   UNL     1     -14.694   5.210  22.454  0.00  0.00    +0.032 C 
ATOM      9  C   UNL     1     -15.372   7.342  21.264  0.00  0.00    +0.012 C 
ATOM     10  C   UNL     1     -13.904   7.759  21.059  0.00  0.00    +0.023 C 
ATOM     12  C   UNL     1     -12.956   6.592  21.237  0.00  0.00    -0.073 C 
ATOM     13  C   UNL     1     -13.331   5.455  21.851  0.00  0.00    -0.022 C 
ATOM     18  C   UNL     1     -11.579   6.741  20.652  0.00  0.00    +0.039 C 
ENDROOT
BRANCH   7  11
ATOM     11  C   UNL     1     -17.047   6.160  22.714  0.00  0.00    -0.013 C 
ATOM     16  C   UNL     1     -17.882   7.437  22.698  0.00  0.00    +0.007 C 
ATOM     17  C   UNL     1     -17.516   5.194  21.630  0.00  0.00    +0.007 C 
ENDBRANCH   7  11
BRANCH   8  14
ATOM     14  C   UNL     1     -14.532   4.569  23.838  0.00  0.00    +0.112 C 
BRANCH  14   4
ATOM      2  O   UNL     1     -16.088   3.722  26.116  0.00  0.00    -0.276 OA
ATOM      4  N   UNL     1     -15.329   3.387  23.945  0.00  0.00    -0.315 N 
ATOM     20  C   UNL     1     -16.054   3.050  25.090  0.00  0.00    +0.215 C 
ATOM     30  H   UNL     1     -15.406   2.789  23.128  0.00  0.00    +0.149 HD
BRANCH  20  21
ATOM     21  C   UNL     1     -16.811   1.742  24.921  0.00  0.00    +0.124 C 
BRANCH  21  23
ATOM     23  C   UNL     1     -17.952   1.843  23.920  0.00  0.00    +0.168 C 
BRANCH  23   3
ATOM      3  O   UNL     1     -17.443   1.664  22.605  0.00  0.00    -0.382 OA
ATOM     27  C   UNL     1     -18.488   1.625  21.642  0.00  0.00    +0.194 C 
ENDBRANCH  23   3
ENDBRANCH  21  23
ENDBRANCH  20  21
ENDBRANCH  14   4
ENDBRANCH   8  14
BRANCH  10  15
ATOM     15  C   UNL     1     -13.525   8.920  21.986  0.00  0.00    +0.103 C 
BRANCH  15  19
ATOM      1  O   UNL     1     -12.222  10.947  21.766  0.00  0.00    -0.276 OA
ATOM      5  N   UNL     1     -13.175   9.986  19.876  0.00  0.00    -0.310 N 
ATOM     19  C   UNL     1     -12.892  10.067  21.232  0.00  0.00    +0.214 C 
ATOM     31  H   UNL     1     -13.727   9.208  19.529  0.00  0.00    +0.149 HD
BRANCH   5  22
ATOM     22  C   UNL     1     -12.700  10.953  18.912  0.00  0.00    +0.159 C 
BRANCH  22  24
ATOM      6  N   UNL     1     -11.282  11.136  16.948  0.00  0.00    -0.258 NA
ATOM     24  C   UNL     1     -11.909  10.306  17.812  0.00  0.00    +0.058 A 
ATOM     25  C   UNL     1     -11.859   8.923  17.734  0.00  0.00    +0.025 A 
ATOM     26  C   UNL     1     -11.118   8.357  16.703  0.00  0.00    +0.003 A 
ATOM     28  C   UNL     1     -10.571  10.548  15.960  0.00  0.00    +0.111 A 
ATOM     29  C   UNL     1     -10.458   9.177  15.795  0.00  0.00    +0.020 A 
ENDBRANCH  22  24
ENDBRANCH   5  22
ENDBRANCH  15  19
ENDBRANCH  10  15
TORSDOF 10
ENDMDL
MODEL 9
REMARK VINA RESULT:      -5.3     22.859     26.936
REMARK  Name = 38028297
REMARK  14 active torsions:
REMARK  status: ('A' for Active; 'I' for Inactive)
REMARK    1  A    between atoms: O_3  and  C_23
REMARK    2  A    between atoms: O_3  and  C_27
REMARK    3  A    between atoms: N_4  and  C_14
REMARK    4  A    between atoms: N_5  and  C_22
REMARK    5  A    between atoms: C_7  and  C_11
REMARK    6  A    between atoms: C_8  and  C_14
REMARK    7  A    between atoms: C_10  and  C_15
REMARK    8  A    between atoms: C_11  and  C_16
REMARK    9  A    between atoms: C_11  and  C_17
REMARK   10  A    between atoms: C_12  and  C_18
REMARK   11  A    between atoms: C_15  and  C_19
REMARK   12  A    between atoms: C_20  and  C_21
REMARK   13  A    between atoms: C_21  and  C_23
REMARK   14  A    between atoms: C_22  and  C_24
REMARK                            x       y       z     vdW  Elec       q    Type
REMARK                         _______ _______ _______ _____ _____    ______ ____
ROOT
ATOM      7  C   UNL     1     -12.248   9.587  32.075  0.00  0.00    +0.000 C 
ATOM      8  C   UNL     1     -11.437  10.083  33.297  0.00  0.00    +0.032 C 
ATOM      9  C   UNL     1     -13.654   9.143  32.510  0.00  0.00    +0.012 C 
ATOM     10  C   UNL     1     -13.609   8.015  33.557  0.00  0.00    +0.023 C 
ATOM     12  C   UNL     1     -12.622   8.313  34.666  0.00  0.00    -0.073 C 
ATOM     13  C   UNL     1     -11.666   9.251  34.537  0.00  0.00    -0.022 C 
ATOM     18  C   UNL     1     -12.785   7.541  35.946  0.00  0.00    +0.039 C 
ENDROOT
BRANCH   7  11
ATOM     11  C   UNL     1     -12.357  10.663  30.990  0.00  0.00    -0.013 C 
ATOM     16  C   UNL     1     -11.775  10.153  29.675  0.00  0.00    +0.007 C 
ATOM     17  C   UNL     1     -13.810  11.090  30.809  0.00  0.00    +0.007 C 
ENDBRANCH   7  11
BRANCH   8  14
ATOM     14  C   UNL     1      -9.936  10.129  32.983  0.00  0.00    +0.112 C 
BRANCH  14   4
ATOM      2  O   UNL     1      -7.765  11.586  34.207  0.00  0.00    -0.276 OA
ATOM      4  N   UNL     1      -9.167   9.733  34.121  0.00  0.00    -0.315 N 
ATOM     20  C   UNL     1      -8.128  10.500  34.651  0.00  0.00    +0.215 C 
ATOM     30  H   UNL     1      -9.424   8.871  34.593  0.00  0.00    +0.149 HD
BRANCH  20  21
ATOM     21  C   UNL     1      -7.489   9.837  35.861  0.00  0.00    +0.124 C 
BRANCH  21  23
ATOM     23  C   UNL     1      -8.490   9.522  36.962  0.00  0.00    +0.168 C 
BRANCH  23   3
ATOM      3  O   UNL     1      -9.036   8.227  36.748  0.00  0.00    -0.382 OA
ATOM     27  C   UNL     1      -9.842   7.813  37.843  0.00  0.00    +0.194 C 
ENDBRANCH  23   3
ENDBRANCH  21  23
ENDBRANCH  20  21
ENDBRANCH  14   4
ENDBRANCH   8  14
BRANCH  10  15
ATOM     15  C   UNL     1     -13.305   6.662  32.901  0.00  0.00    +0.103 C 
BRANCH  15  19
ATOM      1  O   UNL     1     -15.402   5.854  33.798  0.00  0.00    -0.276 OA
ATOM      5  N   UNL     1     -13.843   4.335  32.984  0.00  0.00    -0.310 N 
ATOM     19  C   UNL     1     -14.314   5.604  33.285  0.00  0.00    +0.214 C 
ATOM     31  H   UNL     1     -12.934   4.234  32.544  0.00  0.00    +0.149 HD
BRANCH   5  22
ATOM     22  C   UNL     1     -14.598   3.130  33.245  0.00  0.00    +0.159 C 
BRANCH  22  24
ATOM      6  N   UNL     1     -13.770   2.520  31.045  0.00  0.00    -0.258 NA
ATOM     24  C   UNL     1     -14.430   2.114  32.153  0.00  0.00    +0.058 A 
ATOM     25  C   UNL     1     -14.945   0.839  32.327  0.00  0.00    +0.025 A 
ATOM     26  C   UNL     1     -14.771  -0.078  31.297  0.00  0.00    +0.003 A 
ATOM     28  C   UNL     1     -13.621   1.600  30.065  0.00  0.00    +0.111 A 
ATOM     29  C   UNL     1     -14.097   0.301  30.140  0.00  0.00    +0.020 A 
ENDBRANCH  22  24
ENDBRANCH   5  22
ENDBRANCH  15  19
ENDBRANCH  10  15
TORSDOF 10
ENDMDL
MODEL 10
REMARK VINA RESULT:      -5.2     28.573     31.929
REMARK  Name = 38028297
REMARK  14 active torsions:
REMARK  status: ('A' for Active; 'I' for Inactive)
REMARK    1  A    between atoms: O_3  and  C_23
REMARK    2  A    between atoms: O_3  and  C_27
REMARK    3  A    between atoms: N_4  and  C_14
REMARK    4  A    between atoms: N_5  and  C_22
REMARK    5  A    between atoms: C_7  and  C_11
REMARK    6  A    between atoms: C_8  and  C_14
REMARK    7  A    between atoms: C_10  and  C_15
REMARK    8  A    between atoms: C_11  and  C_16
REMARK    9  A    between atoms: C_11  and  C_17
REMARK   10  A    between atoms: C_12  and  C_18
REMARK   11  A    between atoms: C_15  and  C_19
REMARK   12  A    between atoms: C_20  and  C_21
REMARK   13  A    between atoms: C_21  and  C_23
REMARK   14  A    between atoms: C_22  and  C_24
REMARK                            x       y       z     vdW  Elec       q    Type
REMARK                         _______ _______ _______ _____ _____    ______ ____
ROOT
ATOM      7  C   UNL     1      21.323   6.861  22.193  0.00  0.00    +0.000 C 
ATOM      8  C   UNL     1      21.281   5.627  21.258  0.00  0.00    +0.032 C 
ATOM      9  C   UNL     1      19.939   7.111  22.812  0.00  0.00    +0.012 C 
ATOM     10  C   UNL     1      18.857   7.345  21.742  0.00  0.00    +0.023 C 
ATOM     12  C   UNL     1      18.925   6.313  20.636  0.00  0.00    -0.073 C 
ATOM     13  C   UNL     1      20.013   5.545  20.443  0.00  0.00    -0.022 C 
ATOM     18  C   UNL     1      17.699   6.152  19.782  0.00  0.00    +0.039 C 
ENDROOT
BRANCH   7  11
ATOM     11  C   UNL     1      22.366   6.699  23.303  0.00  0.00    -0.013 C 
ATOM     16  C   UNL     1      22.190   7.784  24.361  0.00  0.00    +0.007 C 
ATOM     17  C   UNL     1      22.266   5.312  23.930  0.00  0.00    +0.007 C 
ENDBRANCH   7  11
BRANCH   8  14
ATOM     14  C   UNL     1      22.494   5.602  20.320  0.00  0.00    +0.112 C 
BRANCH  14   4
ATOM      2  O   UNL     1      25.232   4.981  19.652  0.00  0.00    -0.276 OA
ATOM      4  N   UNL     1      23.109   4.312  20.320  0.00  0.00    -0.315 N 
ATOM     20  C   UNL     1      24.446   4.098  19.981  0.00  0.00    +0.215 C 
ATOM     30  H   UNL     1      22.553   3.519  20.627  0.00  0.00    +0.149 HD
BRANCH  20  21
ATOM     21  C   UNL     1      24.830   2.629  20.070  0.00  0.00    +0.124 C 
BRANCH  21  23
ATOM     23  C   UNL     1      23.828   1.802  20.862  0.00  0.00    +0.168 C 
BRANCH  23   3
ATOM      3  O   UNL     1      23.831   2.229  22.218  0.00  0.00    -0.382 OA
ATOM     27  C   UNL     1      24.320   1.211  23.083  0.00  0.00    +0.194 C 
ENDBRANCH  23   3
ENDBRANCH  21  23
ENDBRANCH  20  21
ENDBRANCH  14   4
ENDBRANCH   8  14
BRANCH  10  15
ATOM     15  C   UNL     1      18.940   8.767  21.173  0.00  0.00    +0.103 C 
BRANCH  15  19
ATOM      1  O   UNL     1      17.768  10.618  22.200  0.00  0.00    -0.276 OA
ATOM      5  N   UNL     1      16.572   9.034  20.992  0.00  0.00    -0.310 N 
ATOM     19  C   UNL     1      17.723   9.592  21.526  0.00  0.00    +0.214 C 
ATOM     31  H   UNL     1      16.642   8.189  20.432  0.00  0.00    +0.149 HD
BRANCH   5  22
ATOM     22  C   UNL     1      15.258   9.610  21.171  0.00  0.00    +0.159 C 
BRANCH  22  24
ATOM      6  N   UNL     1      13.255   8.460  21.920  0.00  0.00    -0.258 NA
ATOM     24  C   UNL     1      14.167   8.608  20.933  0.00  0.00    +0.058 A 
ATOM     25  C   UNL     1      14.146   7.897  19.743  0.00  0.00    +0.025 A 
ATOM     26  C   UNL     1      13.122   6.977  19.554  0.00  0.00    +0.003 A 
ATOM     28  C   UNL     1      12.274   7.555  21.699  0.00  0.00    +0.111 A 
ATOM     29  C   UNL     1      12.163   6.796  20.546  0.00  0.00    +0.020 A 
ENDBRANCH  22  24
ENDBRANCH   5  22
ENDBRANCH  15  19
ENDBRANCH  10  15
TORSDOF 10
ENDMDL
