MODEL 1
REMARK VINA RESULT:      -6.4      0.000      0.000
REMARK  Name = 75366993
REMARK  13 active torsions:
REMARK  status: ('A' for Active; 'I' for Inactive)
REMARK    1  A    between atoms: O_2  and  C_8
REMARK    2  A    between atoms: N_4  and  C_12
REMARK    3  A    between atoms: N_4  and  C_15
REMARK    4  A    between atoms: N_6  and  C_20
REMARK    5  A    between atoms: N_6  and  C_21
REMARK    6  A    between atoms: N_6  and  C_22
REMARK    7  A    between atoms: C_7  and  C_12
REMARK    8  A    between atoms: C_9  and  C_13
REMARK    9  A    between atoms: C_13  and  C_14
REMARK   10  A    between atoms: C_15  and  C_17
REMARK   11  A    between atoms: C_15  and  C_18
REMARK   12  A    between atoms: C_19  and  C_20
REMARK   13  A    between atoms: C_21  and  C_23
REMARK                            x       y       z     vdW  Elec       q    Type
REMARK                         _______ _______ _______ _____ _____    ______ ____
ROOT
ATOM     13  C   UNL     1      11.528   8.457  17.435  0.00  0.00    +0.090 C 
ENDROOT
BRANCH  13   9
ATOM      1  O   UNL     1      10.709   8.359  19.670  0.00  0.00    -0.369 OA
ATOM      7  C   UNL     1      10.886   8.263  21.090  0.00  0.00    +0.161 C 
ATOM      8  C   UNL     1      11.699   7.018  21.468  0.00  0.00    +0.145 C 
ATOM      9  C   UNL     1      11.916   8.345  18.905  0.00  0.00    +0.125 C 
ATOM     10  C   UNL     1      12.983   6.893  20.653  0.00  0.00    +0.036 C 
ATOM     11  C   UNL     1      12.703   7.061  19.163  0.00  0.00    +0.034 C 
BRANCH   8   2
ATOM      2  O   UNL     1      10.906   5.855  21.213  0.00  0.00    -0.389 OA
ATOM     30  H   UNL     1      10.024   6.155  20.935  0.00  0.00    +0.210 HD
ENDBRANCH   8   2
BRANCH   7  12
ATOM     12  C   UNL     1      11.471   9.553  21.660  0.00  0.00    +0.115 C 
BRANCH  12   4
ATOM      4  N   UNL     1      11.318   9.598  23.105  0.00  0.00    -0.311 NA
ATOM     29  H   UNL     1      10.711   8.831  23.395  0.00  0.00    +0.122 HD
BRANCH   4  15
ATOM     15  C   UNL     1      10.750  10.870  23.532  0.00  0.00    +0.048 C 
ATOM     17  C   UNL     1      11.045  11.954  22.499  0.00  0.00    +0.023 C 
ATOM     18  C   UNL     1      11.314  11.246  24.899  0.00  0.00    +0.023 C 
ENDBRANCH   4  15
ENDBRANCH  12   4
ENDBRANCH   7  12
ENDBRANCH  13   9
BRANCH  13  14
ATOM      3  O   UNL     1      13.747   9.802  14.935  0.00  0.00    -0.358 OA
ATOM      5  N   UNL     1      12.749   8.930  15.352  0.00  0.00    -0.083 NA
ATOM     14  C   UNL     1      12.557   9.218  16.643  0.00  0.00    +0.086 A 
ATOM     16  C   UNL     1      13.396  10.253  17.089  0.00  0.00    +0.072 A 
ATOM     19  C   UNL     1      14.124  10.585  15.978  0.00  0.00    +0.151 A 
BRANCH  19  20
ATOM     20  C   UNL     1      15.177  11.572  15.710  0.00  0.00    +0.161 C 
BRANCH  20   6
ATOM      6  N   UNL     1      15.412  12.491  16.836  0.00  0.00    -0.294 NA
ATOM     22  C   UNL     1      16.844  12.660  17.053  0.00  0.00    +0.105 C 
BRANCH   6  21
ATOM     21  C   UNL     1      14.771  13.775  16.577  0.00  0.00    +0.119 C 
BRANCH  21  23
ATOM     23  C   UNL     1      13.776  14.131  17.649  0.00  0.00    -0.033 A 
ATOM     24  C   UNL     1      13.674  13.346  18.797  0.00  0.00    +0.005 A 
ATOM     25  C   UNL     1      12.955  15.248  17.494  0.00  0.00    +0.005 A 
ATOM     26  C   UNL     1      12.751  13.675  19.790  0.00  0.00    +0.000 A 
ATOM     27  C   UNL     1      12.032  15.578  18.487  0.00  0.00    +0.000 A 
ATOM     28  C   UNL     1      11.931  14.792  19.635  0.00  0.00    +0.000 A 
ENDBRANCH  21  23
ENDBRANCH   6  21
ENDBRANCH  20   6
ENDBRANCH  19  20
ENDBRANCH  13  14
TORSDOF 10
ENDMDL
MODEL 2
REMARK VINA RESULT:      -6.1      1.814      2.494
REMARK  Name = 75366993
REMARK  13 active torsions:
REMARK  status: ('A' for Active; 'I' for Inactive)
REMARK    1  A    between atoms: O_2  and  C_8
REMARK    2  A    between atoms: N_4  and  C_12
REMARK    3  A    between atoms: N_4  and  C_15
REMARK    4  A    between atoms: N_6  and  C_20
REMARK    5  A    between atoms: N_6  and  C_21
REMARK    6  A    between atoms: N_6  and  C_22
REMARK    7  A    between atoms: C_7  and  C_12
REMARK    8  A    between atoms: C_9  and  C_13
REMARK    9  A    between atoms: C_13  and  C_14
REMARK   10  A    between atoms: C_15  and  C_17
REMARK   11  A    between atoms: C_15  and  C_18
REMARK   12  A    between atoms: C_19  and  C_20
REMARK   13  A    between atoms: C_21  and  C_23
REMARK                            x       y       z     vdW  Elec       q    Type
REMARK                         _______ _______ _______ _____ _____    ______ ____
ROOT
ATOM     13  C   UNL     1      11.875   8.089  17.589  0.00  0.00    +0.090 C 
ENDROOT
BRANCH  13   9
ATOM      1  O   UNL     1      10.874   7.758  19.725  0.00  0.00    -0.369 OA
ATOM      7  C   UNL     1      10.890   7.785  21.159  0.00  0.00    +0.161 C 
ATOM      8  C   UNL     1      12.058   6.964  21.720  0.00  0.00    +0.145 C 
ATOM      9  C   UNL     1      12.084   8.185  19.096  0.00  0.00    +0.125 C 
ATOM     10  C   UNL     1      13.387   7.316  21.059  0.00  0.00    +0.036 C 
ATOM     11  C   UNL     1      13.258   7.313  19.538  0.00  0.00    +0.034 C 
BRANCH   8   2
ATOM      2  O   UNL     1      11.805   5.578  21.476  0.00  0.00    -0.389 OA
ATOM     30  H   UNL     1      11.565   5.482  20.539  0.00  0.00    +0.210 HD
ENDBRANCH   8   2
BRANCH   7  12
ATOM     12  C   UNL     1      10.865   9.220  21.682  0.00  0.00    +0.115 C 
BRANCH  12   4
ATOM      4  N   UNL     1      11.844   9.402  22.742  0.00  0.00    -0.311 NA
ATOM     29  H   UNL     1      11.385   9.257  23.641  0.00  0.00    +0.122 HD
BRANCH   4  15
ATOM     15  C   UNL     1      12.428  10.737  22.691  0.00  0.00    +0.048 C 
ATOM     17  C   UNL     1      11.644  11.692  23.586  0.00  0.00    +0.023 C 
ATOM     18  C   UNL     1      12.447  11.229  21.248  0.00  0.00    +0.023 C 
ENDBRANCH   4  15
ENDBRANCH  12   4
ENDBRANCH   7  12
ENDBRANCH  13   9
BRANCH  13  14
ATOM      3  O   UNL     1      13.782   9.986  15.191  0.00  0.00    -0.358 OA
ATOM      5  N   UNL     1      13.018   8.887  15.562  0.00  0.00    -0.083 NA
ATOM     14  C   UNL     1      12.712   9.096  16.845  0.00  0.00    +0.086 A 
ATOM     16  C   UNL     1      13.249  10.299  17.332  0.00  0.00    +0.072 A 
ATOM     19  C   UNL     1      13.912  10.821  16.254  0.00  0.00    +0.151 A 
BRANCH  19  20
ATOM     20  C   UNL     1      14.695  12.042  16.036  0.00  0.00    +0.161 C 
BRANCH  20   6
ATOM      6  N   UNL     1      15.830  12.178  16.965  0.00  0.00    -0.294 NA
ATOM     22  C   UNL     1      17.005  12.666  16.251  0.00  0.00    +0.105 C 
BRANCH   6  21
ATOM     21  C   UNL     1      15.478  13.077  18.058  0.00  0.00    +0.119 C 
BRANCH  21  23
ATOM     23  C   UNL     1      15.696  12.436  19.402  0.00  0.00    -0.033 A 
ATOM     24  C   UNL     1      15.670  13.212  20.560  0.00  0.00    +0.005 A 
ATOM     25  C   UNL     1      15.926  11.062  19.490  0.00  0.00    +0.005 A 
ATOM     26  C   UNL     1      15.873  12.617  21.806  0.00  0.00    +0.000 A 
ATOM     27  C   UNL     1      16.129  10.467  20.735  0.00  0.00    +0.000 A 
ATOM     28  C   UNL     1      16.103  11.245  21.893  0.00  0.00    +0.000 A 
ENDBRANCH  21  23
ENDBRANCH   6  21
ENDBRANCH  20   6
ENDBRANCH  19  20
ENDBRANCH  13  14
TORSDOF 10
ENDMDL
MODEL 3
REMARK VINA RESULT:      -6.1      2.132      2.868
REMARK  Name = 75366993
REMARK  13 active torsions:
REMARK  status: ('A' for Active; 'I' for Inactive)
REMARK    1  A    between atoms: O_2  and  C_8
REMARK    2  A    between atoms: N_4  and  C_12
REMARK    3  A    between atoms: N_4  and  C_15
REMARK    4  A    between atoms: N_6  and  C_20
REMARK    5  A    between atoms: N_6  and  C_21
REMARK    6  A    between atoms: N_6  and  C_22
REMARK    7  A    between atoms: C_7  and  C_12
REMARK    8  A    between atoms: C_9  and  C_13
REMARK    9  A    between atoms: C_13  and  C_14
REMARK   10  A    between atoms: C_15  and  C_17
REMARK   11  A    between atoms: C_15  and  C_18
REMARK   12  A    between atoms: C_19  and  C_20
REMARK   13  A    between atoms: C_21  and  C_23
REMARK                            x       y       z     vdW  Elec       q    Type
REMARK                         _______ _______ _______ _____ _____    ______ ____
ROOT
ATOM     13  C   UNL     1      11.107   8.792  17.861  0.00  0.00    +0.090 C 
ENDROOT
BRANCH  13   9
ATOM      1  O   UNL     1      10.611   8.197  20.113  0.00  0.00    -0.369 OA
ATOM      7  C   UNL     1      10.986   7.806  21.442  0.00  0.00    +0.161 C 
ATOM      8  C   UNL     1      11.844   6.534  21.428  0.00  0.00    +0.145 C 
ATOM      9  C   UNL     1      11.698   8.382  19.204  0.00  0.00    +0.125 C 
ATOM     10  C   UNL     1      13.000   6.623  20.436  0.00  0.00    +0.036 C 
ATOM     11  C   UNL     1      12.512   7.096  19.070  0.00  0.00    +0.034 C 
BRANCH   8   2
ATOM      2  O   UNL     1      11.022   5.429  21.040  0.00  0.00    -0.389 OA
ATOM     30  H   UNL     1      11.119   5.312  20.080  0.00  0.00    +0.210 HD
ENDBRANCH   8   2
BRANCH   7  12
ATOM     12  C   UNL     1      11.647   8.962  22.189  0.00  0.00    +0.115 C 
BRANCH  12   4
ATOM      4  N   UNL     1      10.667   9.977  22.544  0.00  0.00    -0.311 NA
ATOM     29  H   UNL     1      10.023  10.098  21.763  0.00  0.00    +0.122 HD
BRANCH   4  15
ATOM     15  C   UNL     1      11.316  11.244  22.857  0.00  0.00    +0.048 C 
ATOM     17  C   UNL     1      10.550  11.973  23.957  0.00  0.00    +0.023 C 
ATOM     18  C   UNL     1      11.404  12.095  21.594  0.00  0.00    +0.023 C 
ENDBRANCH   4  15
ENDBRANCH  12   4
ENDBRANCH   7  12
ENDBRANCH  13   9
BRANCH  13  14
ATOM      3  O   UNL     1      13.255   9.461  15.046  0.00  0.00    -0.358 OA
ATOM      5  N   UNL     1      12.162   8.842  15.639  0.00  0.00    -0.083 NA
ATOM     14  C   UNL     1      12.169   9.267  16.905  0.00  0.00    +0.086 A 
ATOM     16  C   UNL     1      13.232  10.148  17.167  0.00  0.00    +0.072 A 
ATOM     19  C   UNL     1      13.884  10.237  15.965  0.00  0.00    +0.151 A 
BRANCH  19  20
ATOM     20  C   UNL     1      15.069  10.969  15.504  0.00  0.00    +0.161 C 
BRANCH  20   6
ATOM      6  N   UNL     1      14.790  12.378  15.177  0.00  0.00    -0.294 NA
ATOM     22  C   UNL     1      15.929  13.212  15.547  0.00  0.00    +0.105 C 
BRANCH   6  21
ATOM     21  C   UNL     1      14.488  12.512  13.757  0.00  0.00    +0.119 C 
BRANCH  21  23
ATOM     23  C   UNL     1      13.089  13.020  13.528  0.00  0.00    -0.033 A 
ATOM     24  C   UNL     1      12.121  12.179  12.982  0.00  0.00    +0.005 A 
ATOM     25  C   UNL     1      12.762  14.335  13.861  0.00  0.00    +0.005 A 
ATOM     26  C   UNL     1      10.825  12.650  12.769  0.00  0.00    +0.000 A 
ATOM     27  C   UNL     1      11.467  14.806  13.649  0.00  0.00    +0.000 A 
ATOM     28  C   UNL     1      10.498  13.964  13.103  0.00  0.00    +0.000 A 
ENDBRANCH  21  23
ENDBRANCH   6  21
ENDBRANCH  20   6
ENDBRANCH  19  20
ENDBRANCH  13  14
TORSDOF 10
ENDMDL
MODEL 4
REMARK VINA RESULT:      -6.0      2.694      4.704
REMARK  Name = 75366993
REMARK  13 active torsions:
REMARK  status: ('A' for Active; 'I' for Inactive)
REMARK    1  A    between atoms: O_2  and  C_8
REMARK    2  A    between atoms: N_4  and  C_12
REMARK    3  A    between atoms: N_4  and  C_15
REMARK    4  A    between atoms: N_6  and  C_20
REMARK    5  A    between atoms: N_6  and  C_21
REMARK    6  A    between atoms: N_6  and  C_22
REMARK    7  A    between atoms: C_7  and  C_12
REMARK    8  A    between atoms: C_9  and  C_13
REMARK    9  A    between atoms: C_13  and  C_14
REMARK   10  A    between atoms: C_15  and  C_17
REMARK   11  A    between atoms: C_15  and  C_18
REMARK   12  A    between atoms: C_19  and  C_20
REMARK   13  A    between atoms: C_21  and  C_23
REMARK                            x       y       z     vdW  Elec       q    Type
REMARK                         _______ _______ _______ _____ _____    ______ ____
ROOT
ATOM     13  C   UNL     1      11.859   8.636  17.078  0.00  0.00    +0.090 C 
ENDROOT
BRANCH  13   9
ATOM      1  O   UNL     1      10.858   8.353  19.220  0.00  0.00    -0.369 OA
ATOM      7  C   UNL     1      10.914   8.228  20.648  0.00  0.00    +0.161 C 
ATOM      8  C   UNL     1      11.844   7.084  21.072  0.00  0.00    +0.145 C 
ATOM      9  C   UNL     1      12.122   8.521  18.575  0.00  0.00    +0.125 C 
ATOM     10  C   UNL     1      13.203   7.154  20.382  0.00  0.00    +0.036 C 
ATOM     11  C   UNL     1      13.042   7.339  18.876  0.00  0.00    +0.034 C 
BRANCH   8   2
ATOM      2  O   UNL     1      11.237   5.840  20.714  0.00  0.00    -0.389 OA
ATOM     30  H   UNL     1      10.684   5.996  19.929  0.00  0.00    +0.210 HD
ENDBRANCH   8   2
BRANCH   7  12
ATOM     12  C   UNL     1      11.271   9.561  21.302  0.00  0.00    +0.115 C 
BRANCH  12   4
ATOM      4  N   UNL     1      11.406   9.411  22.743  0.00  0.00    -0.311 NA
ATOM     29  H   UNL     1      10.499   9.153  23.132  0.00  0.00    +0.122 HD
BRANCH   4  15
ATOM     15  C   UNL     1      11.878  10.646  23.355  0.00  0.00    +0.048 C 
ATOM     17  C   UNL     1      11.042  10.977  24.589  0.00  0.00    +0.023 C 
ATOM     18  C   UNL     1      11.819  11.776  22.333  0.00  0.00    +0.023 C 
ENDBRANCH   4  15
ENDBRANCH  12   4
ENDBRANCH   7  12
ENDBRANCH  13   9
BRANCH  13  14
ATOM      3  O   UNL     1      14.630   9.349  14.887  0.00  0.00    -0.358 OA
ATOM      5  N   UNL     1      13.583   8.547  15.324  0.00  0.00    -0.083 NA
ATOM     14  C   UNL     1      13.042   9.215  16.347  0.00  0.00    +0.086 A 
ATOM     16  C   UNL     1      13.699  10.431  16.598  0.00  0.00    +0.072 A 
ATOM     19  C   UNL     1      14.690  10.468  15.653  0.00  0.00    +0.151 A 
BRANCH  19  20
ATOM     20  C   UNL     1      15.746  11.431  15.326  0.00  0.00    +0.161 C 
BRANCH  20   6
ATOM      6  N   UNL     1      15.712  11.877  13.922  0.00  0.00    -0.294 NA
ATOM     22  C   UNL     1      14.375  12.350  13.580  0.00  0.00    +0.105 C 
BRANCH   6  21
ATOM     21  C   UNL     1      16.704  12.924  13.704  0.00  0.00    +0.119 C 
BRANCH  21  23
ATOM     23  C   UNL     1      17.831  12.452  12.825  0.00  0.00    -0.033 A 
ATOM     24  C   UNL     1      17.643  12.334  11.449  0.00  0.00    +0.005 A 
ATOM     25  C   UNL     1      19.067  12.131  13.389  0.00  0.00    +0.005 A 
ATOM     26  C   UNL     1      18.688  11.895  10.635  0.00  0.00    +0.000 A 
ATOM     27  C   UNL     1      20.112  11.693  12.575  0.00  0.00    +0.000 A 
ATOM     28  C   UNL     1      19.922  11.575  11.198  0.00  0.00    +0.000 A 
ENDBRANCH  21  23
ENDBRANCH   6  21
ENDBRANCH  20   6
ENDBRANCH  19  20
ENDBRANCH  13  14
TORSDOF 10
ENDMDL
MODEL 5
REMARK VINA RESULT:      -6.0     28.316     30.677
REMARK  Name = 75366993
REMARK  13 active torsions:
REMARK  status: ('A' for Active; 'I' for Inactive)
REMARK    1  A    between atoms: O_2  and  C_8
REMARK    2  A    between atoms: N_4  and  C_12
REMARK    3  A    between atoms: N_4  and  C_15
REMARK    4  A    between atoms: N_6  and  C_20
REMARK    5  A    between atoms: N_6  and  C_21
REMARK    6  A    between atoms: N_6  and  C_22
REMARK    7  A    between atoms: C_7  and  C_12
REMARK    8  A    between atoms: C_9  and  C_13
REMARK    9  A    between atoms: C_13  and  C_14
REMARK   10  A    between atoms: C_15  and  C_17
REMARK   11  A    between atoms: C_15  and  C_18
REMARK   12  A    between atoms: C_19  and  C_20
REMARK   13  A    between atoms: C_21  and  C_23
REMARK                            x       y       z     vdW  Elec       q    Type
REMARK                         _______ _______ _______ _____ _____    ______ ____
ROOT
ATOM     13  C   UNL     1     -14.246   2.933  33.198  0.00  0.00    +0.090 C 
ENDROOT
BRANCH  13   9
ATOM      1  O   UNL     1     -13.761   2.307  30.952  0.00  0.00    -0.369 OA
ATOM      7  C   UNL     1     -14.034   1.589  29.740  0.00  0.00    +0.161 C 
ATOM      8  C   UNL     1     -14.156   0.082  30.000  0.00  0.00    +0.145 C 
ATOM      9  C   UNL     1     -14.699   2.094  32.009  0.00  0.00    +0.125 C 
ATOM     10  C   UNL     1     -15.098  -0.234  31.158  0.00  0.00    +0.036 C 
ATOM     11  C   UNL     1     -14.763   0.614  32.382  0.00  0.00    +0.034 C 
BRANCH   8   2
ATOM      2  O   UNL     1     -12.865  -0.433  30.337  0.00  0.00    -0.389 OA
ATOM     30  H   UNL     1     -12.252  -0.182  29.625  0.00  0.00    +0.210 HD
ENDBRANCH   8   2
BRANCH   7  12
ATOM     12  C   UNL     1     -15.249   2.170  29.020  0.00  0.00    +0.115 C 
BRANCH  12   4
ATOM      4  N   UNL     1     -15.064   3.586  28.750  0.00  0.00    -0.311 NA
ATOM     29  H   UNL     1     -14.422   3.971  29.443  0.00  0.00    +0.122 HD
BRANCH   4  15
ATOM     15  C   UNL     1     -16.334   4.299  28.799  0.00  0.00    +0.048 C 
ATOM     17  C   UNL     1     -17.221   3.725  29.900  0.00  0.00    +0.023 C 
ATOM     18  C   UNL     1     -17.020   4.209  27.440  0.00  0.00    +0.023 C 
ENDBRANCH   4  15
ENDBRANCH  12   4
ENDBRANCH   7  12
ENDBRANCH  13   9
BRANCH  13  14
ATOM      3  O   UNL     1     -15.661   6.223  32.803  0.00  0.00    -0.358 OA
ATOM      5  N   UNL     1     -15.769   4.859  33.042  0.00  0.00    -0.083 NA
ATOM     14  C   UNL     1     -14.516   4.398  32.982  0.00  0.00    +0.086 A 
ATOM     16  C   UNL     1     -13.586   5.416  32.712  0.00  0.00    +0.072 A 
ATOM     19  C   UNL     1     -14.356   6.543  32.608  0.00  0.00    +0.151 A 
BRANCH  19  20
ATOM     20  C   UNL     1     -14.060   7.955  32.342  0.00  0.00    +0.161 C 
BRANCH  20   6
ATOM      6  N   UNL     1     -12.697   8.349  32.740  0.00  0.00    -0.294 NA
ATOM     22  C   UNL     1     -11.982   8.902  31.596  0.00  0.00    +0.105 C 
BRANCH   6  21
ATOM     21  C   UNL     1     -12.754   9.313  33.833  0.00  0.00    +0.119 C 
BRANCH  21  23
ATOM     23  C   UNL     1     -12.045   8.809  35.062  0.00  0.00    -0.033 A 
ATOM     24  C   UNL     1     -12.601   7.776  35.816  0.00  0.00    +0.005 A 
ATOM     25  C   UNL     1     -10.829   9.376  35.447  0.00  0.00    +0.005 A 
ATOM     26  C   UNL     1     -11.944   7.310  36.955  0.00  0.00    +0.000 A 
ATOM     27  C   UNL     1     -10.172   8.909  36.585  0.00  0.00    +0.000 A 
ATOM     28  C   UNL     1     -10.729   7.877  37.339  0.00  0.00    +0.000 A 
ENDBRANCH  21  23
ENDBRANCH   6  21
ENDBRANCH  20   6
ENDBRANCH  19  20
ENDBRANCH  13  14
TORSDOF 10
ENDMDL
MODEL 6
REMARK VINA RESULT:      -6.0      6.994      9.378
REMARK  Name = 75366993
REMARK  13 active torsions:
REMARK  status: ('A' for Active; 'I' for Inactive)
REMARK    1  A    between atoms: O_2  and  C_8
REMARK    2  A    between atoms: N_4  and  C_12
REMARK    3  A    between atoms: N_4  and  C_15
REMARK    4  A    between atoms: N_6  and  C_20
REMARK    5  A    between atoms: N_6  and  C_21
REMARK    6  A    between atoms: N_6  and  C_22
REMARK    7  A    between atoms: C_7  and  C_12
REMARK    8  A    between atoms: C_9  and  C_13
REMARK    9  A    between atoms: C_13  and  C_14
REMARK   10  A    between atoms: C_15  and  C_17
REMARK   11  A    between atoms: C_15  and  C_18
REMARK   12  A    between atoms: C_19  and  C_20
REMARK   13  A    between atoms: C_21  and  C_23
REMARK                            x       y       z     vdW  Elec       q    Type
REMARK                         _______ _______ _______ _____ _____    ______ ____
ROOT
ATOM     13  C   UNL     1      16.300   6.252  19.028  0.00  0.00    +0.090 C 
ENDROOT
BRANCH  13   9
ATOM      1  O   UNL     1      14.803   7.433  17.600  0.00  0.00    -0.369 OA
ATOM      7  C   UNL     1      13.758   8.384  17.355  0.00  0.00    +0.161 C 
ATOM      8  C   UNL     1      12.512   8.072  18.193  0.00  0.00    +0.145 C 
ATOM      9  C   UNL     1      15.189   7.294  18.969  0.00  0.00    +0.125 C 
ATOM     10  C   UNL     1      12.842   7.850  19.666  0.00  0.00    +0.036 C 
ATOM     11  C   UNL     1      13.997   6.866  19.824  0.00  0.00    +0.034 C 
BRANCH   8   2
ATOM      2  O   UNL     1      11.911   6.873  17.696  0.00  0.00    -0.389 OA
ATOM     30  H   UNL     1      12.029   6.862  16.731  0.00  0.00    +0.210 HD
ENDBRANCH   8   2
BRANCH   7  12
ATOM     12  C   UNL     1      14.260   9.814  17.544  0.00  0.00    +0.115 C 
BRANCH  12   4
ATOM      4  N   UNL     1      13.149  10.735  17.721  0.00  0.00    -0.311 NA
ATOM     29  H   UNL     1      13.015  11.258  16.855  0.00  0.00    +0.122 HD
BRANCH   4  15
ATOM     15  C   UNL     1      13.400  11.654  18.824  0.00  0.00    +0.048 C 
ATOM     17  C   UNL     1      13.694  13.053  18.290  0.00  0.00    +0.023 C 
ATOM     18  C   UNL     1      14.560  11.132  19.666  0.00  0.00    +0.023 C 
ENDBRANCH   4  15
ENDBRANCH  12   4
ENDBRANCH   7  12
ENDBRANCH  13   9
BRANCH  13  14
ATOM      3  O   UNL     1      18.470   7.885  21.396  0.00  0.00    -0.358 OA
ATOM      5  N   UNL     1      17.319   7.826  20.620  0.00  0.00    -0.083 NA
ATOM     14  C   UNL     1      17.398   6.659  19.975  0.00  0.00    +0.086 A 
ATOM     16  C   UNL     1      18.564   5.946  20.301  0.00  0.00    +0.072 A 
ATOM     19  C   UNL     1      19.203   6.760  21.198  0.00  0.00    +0.151 A 
BRANCH  19  20
ATOM     20  C   UNL     1      20.461   6.656  21.946  0.00  0.00    +0.161 C 
BRANCH  20   6
ATOM      6  N   UNL     1      21.626   6.378  21.089  0.00  0.00    -0.294 NA
ATOM     22  C   UNL     1      22.002   7.579  20.351  0.00  0.00    +0.105 C 
BRANCH   6  21
ATOM     21  C   UNL     1      22.740   5.896  21.898  0.00  0.00    +0.119 C 
BRANCH  21  23
ATOM     23  C   UNL     1      23.367   4.661  21.308  0.00  0.00    -0.033 A 
ATOM     24  C   UNL     1      23.018   3.401  21.791  0.00  0.00    +0.005 A 
ATOM     25  C   UNL     1      24.301   4.779  20.278  0.00  0.00    +0.005 A 
ATOM     26  C   UNL     1      23.600   2.257  21.244  0.00  0.00    +0.000 A 
ATOM     27  C   UNL     1      24.883   3.635  19.731  0.00  0.00    +0.000 A 
ATOM     28  C   UNL     1      24.533   2.375  20.214  0.00  0.00    +0.000 A 
ENDBRANCH  21  23
ENDBRANCH   6  21
ENDBRANCH  20   6
ENDBRANCH  19  20
ENDBRANCH  13  14
TORSDOF 10
ENDMDL
MODEL 7
REMARK VINA RESULT:      -5.9     26.391     29.199
REMARK  Name = 75366993
REMARK  13 active torsions:
REMARK  status: ('A' for Active; 'I' for Inactive)
REMARK    1  A    between atoms: O_2  and  C_8
REMARK    2  A    between atoms: N_4  and  C_12
REMARK    3  A    between atoms: N_4  and  C_15
REMARK    4  A    between atoms: N_6  and  C_20
REMARK    5  A    between atoms: N_6  and  C_21
REMARK    6  A    between atoms: N_6  and  C_22
REMARK    7  A    between atoms: C_7  and  C_12
REMARK    8  A    between atoms: C_9  and  C_13
REMARK    9  A    between atoms: C_13  and  C_14
REMARK   10  A    between atoms: C_15  and  C_17
REMARK   11  A    between atoms: C_15  and  C_18
REMARK   12  A    between atoms: C_19  and  C_20
REMARK   13  A    between atoms: C_21  and  C_23
REMARK                            x       y       z     vdW  Elec       q    Type
REMARK                         _______ _______ _______ _____ _____    ______ ____
ROOT
ATOM     13  C   UNL     1      -7.372  -9.206  17.190  0.00  0.00    +0.090 C 
ENDROOT
BRANCH  13   9
ATOM      1  O   UNL     1      -7.902 -10.719  18.951  0.00  0.00    -0.369 OA
ATOM      7  C   UNL     1      -8.740 -11.695  19.585  0.00  0.00    +0.161 C 
ATOM      8  C   UNL     1     -10.164 -11.162  19.786  0.00  0.00    +0.145 C 
ATOM      9  C   UNL     1      -8.389 -10.218  17.704  0.00  0.00    +0.125 C 
ATOM     10  C   UNL     1     -10.742 -10.553  18.512  0.00  0.00    +0.036 C 
ATOM     11  C   UNL     1      -9.760  -9.569  17.883  0.00  0.00    +0.034 C 
BRANCH   8   2
ATOM      2  O   UNL     1     -10.136 -10.137  20.784  0.00  0.00    -0.389 OA
ATOM     30  H   UNL     1      -9.440 -10.367  21.423  0.00  0.00    +0.210 HD
ENDBRANCH   8   2
BRANCH   7  12
ATOM     12  C   UNL     1      -8.702 -13.024  18.834  0.00  0.00    +0.115 C 
BRANCH  12   4
ATOM      4  N   UNL     1      -7.337 -13.509  18.708  0.00  0.00    -0.311 NA
ATOM     29  H   UNL     1      -6.712 -12.858  19.184  0.00  0.00    +0.122 HD
BRANCH   4  15
ATOM     15  C   UNL     1      -6.952 -13.633  17.307  0.00  0.00    +0.048 C 
ATOM     17  C   UNL     1      -7.767 -14.733  16.631  0.00  0.00    +0.023 C 
ATOM     18  C   UNL     1      -5.458 -13.921  17.214  0.00  0.00    +0.023 C 
ENDBRANCH   4  15
ENDBRANCH  12   4
ENDBRANCH   7  12
ENDBRANCH  13   9
BRANCH  13  14
ATOM      3  O   UNL     1      -4.151 -10.771  16.793  0.00  0.00    -0.358 OA
ATOM      5  N   UNL     1      -5.141 -10.172  17.562  0.00  0.00    -0.083 NA
ATOM     14  C   UNL     1      -6.117  -9.876  16.699  0.00  0.00    +0.086 A 
ATOM     16  C   UNL     1      -5.802 -10.262  15.385  0.00  0.00    +0.072 A 
ATOM     19  C   UNL     1      -4.556 -10.819  15.498  0.00  0.00    +0.151 A 
BRANCH  19  20
ATOM     20  C   UNL     1      -3.625 -11.427  14.541  0.00  0.00    +0.161 C 
BRANCH  20   6
ATOM      6  N   UNL     1      -3.008 -10.448  13.629  0.00  0.00    -0.294 NA
ATOM     22  C   UNL     1      -1.638 -10.170  14.046  0.00  0.00    +0.105 C 
BRANCH   6  21
ATOM     21  C   UNL     1      -3.044 -10.948  12.260  0.00  0.00    +0.119 C 
BRANCH  21  23
ATOM     23  C   UNL     1      -3.840 -10.047  11.355  0.00  0.00    -0.033 A 
ATOM     24  C   UNL     1      -5.118  -9.633  11.729  0.00  0.00    +0.005 A 
ATOM     25  C   UNL     1      -3.299  -9.625  10.140  0.00  0.00    +0.005 A 
ATOM     26  C   UNL     1      -5.856  -8.798  10.890  0.00  0.00    +0.000 A 
ATOM     27  C   UNL     1      -4.037  -8.790   9.300  0.00  0.00    +0.000 A 
ATOM     28  C   UNL     1      -5.316  -8.377   9.676  0.00  0.00    +0.000 A 
ENDBRANCH  21  23
ENDBRANCH   6  21
ENDBRANCH  20   6
ENDBRANCH  19  20
ENDBRANCH  13  14
TORSDOF 10
ENDMDL
MODEL 8
REMARK VINA RESULT:      -5.8     28.164     31.075
REMARK  Name = 75366993
REMARK  13 active torsions:
REMARK  status: ('A' for Active; 'I' for Inactive)
REMARK    1  A    between atoms: O_2  and  C_8
REMARK    2  A    between atoms: N_4  and  C_12
REMARK    3  A    between atoms: N_4  and  C_15
REMARK    4  A    between atoms: N_6  and  C_20
REMARK    5  A    between atoms: N_6  and  C_21
REMARK    6  A    between atoms: N_6  and  C_22
REMARK    7  A    between atoms: C_7  and  C_12
REMARK    8  A    between atoms: C_9  and  C_13
REMARK    9  A    between atoms: C_13  and  C_14
REMARK   10  A    between atoms: C_15  and  C_17
REMARK   11  A    between atoms: C_15  and  C_18
REMARK   12  A    between atoms: C_19  and  C_20
REMARK   13  A    between atoms: C_21  and  C_23
REMARK                            x       y       z     vdW  Elec       q    Type
REMARK                         _______ _______ _______ _____ _____    ______ ____
ROOT
ATOM     13  C   UNL     1     -14.680   2.056  33.443  0.00  0.00    +0.090 C 
ENDROOT
BRANCH  13   9
ATOM      1  O   UNL     1     -13.883   1.897  31.205  0.00  0.00    -0.369 OA
ATOM      7  C   UNL     1     -13.964   1.426  29.852  0.00  0.00    +0.161 C 
ATOM      8  C   UNL     1     -14.045  -0.104  29.798  0.00  0.00    +0.145 C 
ATOM      9  C   UNL     1     -14.936   1.458  32.065  0.00  0.00    +0.125 C 
ATOM     10  C   UNL     1     -15.111  -0.664  30.735  0.00  0.00    +0.036 C 
ATOM     11  C   UNL     1     -14.976  -0.067  32.133  0.00  0.00    +0.034 C 
BRANCH   8   2
ATOM      2  O   UNL     1     -12.783  -0.646  30.200  0.00  0.00    -0.389 OA
ATOM     30  H   UNL     1     -12.727  -0.576  31.168  0.00  0.00    +0.210 HD
ENDBRANCH   8   2
BRANCH   7  12
ATOM     12  C   UNL     1     -15.104   2.110  29.100  0.00  0.00    +0.115 C 
BRANCH  12   4
ATOM      4  N   UNL     1     -14.880   3.545  29.013  0.00  0.00    -0.311 NA
ATOM     29  H   UNL     1     -14.249   3.824  29.764  0.00  0.00    +0.122 HD
BRANCH   4  15
ATOM     15  C   UNL     1     -16.136   4.277  29.120  0.00  0.00    +0.048 C 
ATOM     17  C   UNL     1     -17.110   3.528  30.024  0.00  0.00    +0.023 C 
ATOM     18  C   UNL     1     -16.725   4.481  27.728  0.00  0.00    +0.023 C 
ENDBRANCH   4  15
ENDBRANCH  12   4
ENDBRANCH   7  12
ENDBRANCH  13   9
BRANCH  13  14
ATOM      3  O   UNL     1     -14.319   5.641  33.432  0.00  0.00    -0.358 OA
ATOM      5  N   UNL     1     -13.799   4.353  33.422  0.00  0.00    -0.083 NA
ATOM     14  C   UNL     1     -14.867   3.550  33.447  0.00  0.00    +0.086 A 
ATOM     16  C   UNL     1     -16.074   4.268  33.471  0.00  0.00    +0.072 A 
ATOM     19  C   UNL     1     -15.675   5.578  33.460  0.00  0.00    +0.151 A 
BRANCH  19  20
ATOM     20  C   UNL     1     -16.391   6.859  33.473  0.00  0.00    +0.161 C 
BRANCH  20   6
ATOM      6  N   UNL     1     -15.878   7.821  32.483  0.00  0.00    -0.294 NA
ATOM     22  C   UNL     1     -16.945   8.217  31.570  0.00  0.00    +0.105 C 
BRANCH   6  21
ATOM     21  C   UNL     1     -15.316   8.985  33.160  0.00  0.00    +0.119 C 
BRANCH  21  23
ATOM     23  C   UNL     1     -13.827   9.080  32.968  0.00  0.00    -0.033 A 
ATOM     24  C   UNL     1     -13.280   8.996  31.688  0.00  0.00    +0.005 A 
ATOM     25  C   UNL     1     -12.991   9.251  34.073  0.00  0.00    +0.005 A 
ATOM     26  C   UNL     1     -11.899   9.084  31.511  0.00  0.00    +0.000 A 
ATOM     27  C   UNL     1     -11.610   9.338  33.895  0.00  0.00    +0.000 A 
ATOM     28  C   UNL     1     -11.064   9.255  32.614  0.00  0.00    +0.000 A 
ENDBRANCH  21  23
ENDBRANCH   6  21
ENDBRANCH  20   6
ENDBRANCH  19  20
ENDBRANCH  13  14
TORSDOF 10
ENDMDL
MODEL 9
REMARK VINA RESULT:      -5.7      7.728     10.117
REMARK  Name = 75366993
REMARK  13 active torsions:
REMARK  status: ('A' for Active; 'I' for Inactive)
REMARK    1  A    between atoms: O_2  and  C_8
REMARK    2  A    between atoms: N_4  and  C_12
REMARK    3  A    between atoms: N_4  and  C_15
REMARK    4  A    between atoms: N_6  and  C_20
REMARK    5  A    between atoms: N_6  and  C_21
REMARK    6  A    between atoms: N_6  and  C_22
REMARK    7  A    between atoms: C_7  and  C_12
REMARK    8  A    between atoms: C_9  and  C_13
REMARK    9  A    between atoms: C_13  and  C_14
REMARK   10  A    between atoms: C_15  and  C_17
REMARK   11  A    between atoms: C_15  and  C_18
REMARK   12  A    between atoms: C_19  and  C_20
REMARK   13  A    between atoms: C_21  and  C_23
REMARK                            x       y       z     vdW  Elec       q    Type
REMARK                         _______ _______ _______ _____ _____    ______ ____
ROOT
ATOM     13  C   UNL     1      17.551   5.799  19.226  0.00  0.00    +0.090 C 
ENDROOT
BRANCH  13   9
ATOM      1  O   UNL     1      15.385   6.766  19.012  0.00  0.00    -0.369 OA
ATOM      7  C   UNL     1      14.349   7.676  19.408  0.00  0.00    +0.161 C 
ATOM      8  C   UNL     1      13.984   7.497  20.887  0.00  0.00    +0.145 C 
ATOM      9  C   UNL     1      16.579   6.827  19.794  0.00  0.00    +0.125 C 
ATOM     10  C   UNL     1      15.213   7.492  21.792  0.00  0.00    +0.036 C 
ATOM     11  C   UNL     1      16.277   6.536  21.263  0.00  0.00    +0.034 C 
BRANCH   8   2
ATOM      2  O   UNL     1      13.319   6.241  21.048  0.00  0.00    -0.389 OA
ATOM     30  H   UNL     1      13.290   6.042  21.999  0.00  0.00    +0.210 HD
ENDBRANCH   8   2
BRANCH   7  12
ATOM     12  C   UNL     1      14.719   9.116  19.055  0.00  0.00    +0.115 C 
BRANCH  12   4
ATOM      4  N   UNL     1      13.711   9.713  18.193  0.00  0.00    -0.311 NA
ATOM     29  H   UNL     1      12.910   9.984  18.764  0.00  0.00    +0.122 HD
BRANCH   4  15
ATOM     15  C   UNL     1      13.290   8.780  17.155  0.00  0.00    +0.048 C 
ATOM     17  C   UNL     1      14.049   9.054  15.860  0.00  0.00    +0.023 C 
ATOM     18  C   UNL     1      11.785   8.899  16.945  0.00  0.00    +0.023 C 
ENDBRANCH   4  15
ENDBRANCH  12   4
ENDBRANCH   7  12
ENDBRANCH  13   9
BRANCH  13  14
ATOM      3  O   UNL     1      20.689   5.011  20.813  0.00  0.00    -0.358 OA
ATOM      5  N   UNL     1      19.559   4.665  20.083  0.00  0.00    -0.083 NA
ATOM     14  C   UNL     1      18.859   5.797  19.971  0.00  0.00    +0.086 A 
ATOM     16  C   UNL     1      19.493   6.880  20.603  0.00  0.00    +0.072 A 
ATOM     19  C   UNL     1      20.639   6.333  21.117  0.00  0.00    +0.151 A 
BRANCH  19  20
ATOM     20  C   UNL     1      21.763   6.871  21.891  0.00  0.00    +0.161 C 
BRANCH  20   6
ATOM      6  N   UNL     1      23.067   6.676  21.234  0.00  0.00    -0.294 NA
ATOM     22  C   UNL     1      23.652   7.967  20.889  0.00  0.00    +0.105 C 
BRANCH   6  21
ATOM     21  C   UNL     1      23.958   5.918  22.105  0.00  0.00    +0.119 C 
BRANCH  21  23
ATOM     23  C   UNL     1      24.047   4.473  21.695  0.00  0.00    -0.033 A 
ATOM     24  C   UNL     1      24.599   4.128  20.462  0.00  0.00    +0.005 A 
ATOM     25  C   UNL     1      23.574   3.476  22.549  0.00  0.00    +0.005 A 
ATOM     26  C   UNL     1      24.680   2.788  20.082  0.00  0.00    +0.000 A 
ATOM     27  C   UNL     1      23.654   2.136  22.169  0.00  0.00    +0.000 A 
ATOM     28  C   UNL     1      24.208   1.793  20.935  0.00  0.00    +0.000 A 
ENDBRANCH  21  23
ENDBRANCH   6  21
ENDBRANCH  20   6
ENDBRANCH  19  20
ENDBRANCH  13  14
TORSDOF 10
ENDMDL
MODEL 10
REMARK VINA RESULT:      -5.6     26.548     29.522
REMARK  Name = 75366993
REMARK  13 active torsions:
REMARK  status: ('A' for Active; 'I' for Inactive)
REMARK    1  A    between atoms: O_2  and  C_8
REMARK    2  A    between atoms: N_4  and  C_12
REMARK    3  A    between atoms: N_4  and  C_15
REMARK    4  A    between atoms: N_6  and  C_20
REMARK    5  A    between atoms: N_6  and  C_21
REMARK    6  A    between atoms: N_6  and  C_22
REMARK    7  A    between atoms: C_7  and  C_12
REMARK    8  A    between atoms: C_9  and  C_13
REMARK    9  A    between atoms: C_13  and  C_14
REMARK   10  A    between atoms: C_15  and  C_17
REMARK   11  A    between atoms: C_15  and  C_18
REMARK   12  A    between atoms: C_19  and  C_20
REMARK   13  A    between atoms: C_21  and  C_23
REMARK                            x       y       z     vdW  Elec       q    Type
REMARK                         _______ _______ _______ _____ _____    ______ ____
ROOT
ATOM     13  C   UNL     1      -7.648  -9.340  17.041  0.00  0.00    +0.090 C 
ENDROOT
BRANCH  13   9
ATOM      1  O   UNL     1      -8.188 -10.773  18.865  0.00  0.00    -0.369 OA
ATOM      7  C   UNL     1      -9.073 -11.640  19.588  0.00  0.00    +0.161 C 
ATOM      8  C   UNL     1     -10.400 -10.941  19.910  0.00  0.00    +0.145 C 
ATOM      9  C   UNL     1      -8.725 -10.223  17.661  0.00  0.00    +0.125 C 
ATOM     10  C   UNL     1     -11.017 -10.272  18.685  0.00  0.00    +0.036 C 
ATOM     11  C   UNL     1      -9.988  -9.415  17.954  0.00  0.00    +0.034 C 
BRANCH   8   2
ATOM      2  O   UNL     1     -10.159  -9.924  20.886  0.00  0.00    -0.389 OA
ATOM     30  H   UNL     1      -9.234  -9.637  20.792  0.00  0.00    +0.210 HD
ENDBRANCH   8   2
BRANCH   7  12
ATOM     12  C   UNL     1      -9.261 -12.967  18.855  0.00  0.00    +0.115 C 
BRANCH  12   4
ATOM      4  N   UNL     1     -10.308 -13.760  19.480  0.00  0.00    -0.311 NA
ATOM     29  H   UNL     1     -11.049 -13.135  19.795  0.00  0.00    +0.122 HD
BRANCH   4  15
ATOM     15  C   UNL     1      -9.786 -14.522  20.607  0.00  0.00    +0.048 C 
ATOM     17  C   UNL     1      -9.673 -15.999  20.240  0.00  0.00    +0.023 C 
ATOM     18  C   UNL     1     -10.693 -14.325  21.817  0.00  0.00    +0.023 C 
ENDBRANCH   4  15
ENDBRANCH  12   4
ENDBRANCH   7  12
ENDBRANCH  13   9
BRANCH  13  14
ATOM      3  O   UNL     1      -5.397 -11.739  15.571  0.00  0.00    -0.358 OA
ATOM      5  N   UNL     1      -6.669 -11.248  15.836  0.00  0.00    -0.083 NA
ATOM     14  C   UNL     1      -6.470 -10.148  16.566  0.00  0.00    +0.086 A 
ATOM     16  C   UNL     1      -5.106  -9.896  16.790  0.00  0.00    +0.072 A 
ATOM     19  C   UNL     1      -4.474 -10.925  16.144  0.00  0.00    +0.151 A 
BRANCH  19  20
ATOM     20  C   UNL     1      -3.067 -11.298  15.961  0.00  0.00    +0.161 C 
BRANCH  20   6
ATOM      6  N   UNL     1      -2.380 -10.491  14.938  0.00  0.00    -0.294 NA
ATOM     22  C   UNL     1      -1.068 -10.079  15.425  0.00  0.00    +0.105 C 
BRANCH   6  21
ATOM     21  C   UNL     1      -2.259 -11.250  13.698  0.00  0.00    +0.119 C 
BRANCH  21  23
ATOM     23  C   UNL     1      -2.864 -10.516  12.531  0.00  0.00    -0.033 A 
ATOM     24  C   UNL     1      -2.042  -9.987  11.536  0.00  0.00    +0.005 A 
ATOM     25  C   UNL     1      -4.248 -10.365  12.446  0.00  0.00    +0.005 A 
ATOM     26  C   UNL     1      -2.604  -9.307  10.456  0.00  0.00    +0.000 A 
ATOM     27  C   UNL     1      -4.809  -9.684  11.365  0.00  0.00    +0.000 A 
ATOM     28  C   UNL     1      -3.987  -9.156  10.370  0.00  0.00    +0.000 A 
ENDBRANCH  21  23
ENDBRANCH   6  21
ENDBRANCH  20   6
ENDBRANCH  19  20
ENDBRANCH  13  14
TORSDOF 10
ENDMDL
