MODEL 1
REMARK VINA RESULT:      -7.2      0.000      0.000
REMARK  Name = 26744006
REMARK  8 active torsions:
REMARK  status: ('A' for Active; 'I' for Inactive)
REMARK    1  A    between atoms: S_2  and  C_20
REMARK    2  A    between atoms: S_2  and  C_23
REMARK    3  A    between atoms: O_3  and  C_12
REMARK    4  A    between atoms: N_7  and  C_14
REMARK    5  A    between atoms: C_10  and  C_15
REMARK    6  A    between atoms: C_14  and  C_16
REMARK    7  A    between atoms: C_17  and  C_20
REMARK    8  A    between atoms: C_29  and  C_30
REMARK                            x       y       z     vdW  Elec       q    Type
REMARK                         _______ _______ _______ _____ _____    ______ ____
ROOT
ATOM      4  O   UNL     1      11.682   8.172  17.054  0.00  0.00    -0.336 OA
ATOM      8  N   UNL     1      13.786   8.634  17.668  0.00  0.00    -0.193 NA
ATOM      9  N   UNL     1      12.329   8.642  15.905  0.00  0.00    -0.060 NA
ATOM     15  C   UNL     1      12.611   8.200  18.046  0.00  0.00    +0.245 A 
ATOM     17  C   UNL     1      13.565   8.893  16.347  0.00  0.00    +0.193 A 
ENDROOT
BRANCH  15  10
ATOM      7  N   UNL     1      13.175   7.951  20.458  0.00  0.00    -0.285 NA
ATOM     10  C   UNL     1      12.155   7.731  19.413  0.00  0.00    +0.149 C 
ATOM     11  C   UNL     1      10.908   8.481  19.915  0.00  0.00    +0.061 C 
ATOM     12  C   UNL     1      11.309   9.051  21.269  0.00  0.00    +0.130 C 
ATOM     13  C   UNL     1      12.448   8.151  21.710  0.00  0.00    +0.116 C 
BRANCH  12   3
ATOM      3  O   UNL     1      10.223   9.006  22.174  0.00  0.00    -0.390 OA
ATOM     31  H   UNL     1      10.443   9.587  22.923  0.00  0.00    +0.210 HD
ENDBRANCH  12   3
BRANCH   7  14
ATOM     14  C   UNL     1      14.143   6.867  20.554  0.00  0.00    +0.120 C 
BRANCH  14  16
ATOM      1 CL   UNL     1      19.734   8.920  21.400  0.00  0.00    -0.084 Cl
ATOM     16  C   UNL     1      15.542   7.381  20.767  0.00  0.00    -0.033 A 
ATOM     18  C   UNL     1      16.580   6.488  21.036  0.00  0.00    +0.006 A 
ATOM     19  C   UNL     1      15.801   8.749  20.694  0.00  0.00    +0.006 A 
ATOM     21  C   UNL     1      17.875   6.964  21.233  0.00  0.00    +0.020 A 
ATOM     22  C   UNL     1      17.097   9.226  20.891  0.00  0.00    +0.020 A 
ATOM     24  C   UNL     1      18.134   8.333  21.161  0.00  0.00    +0.041 A 
ENDBRANCH  14  16
ENDBRANCH   7  14
ENDBRANCH  15  10
BRANCH  17  20
ATOM     20  C   UNL     1      14.614   9.414  15.465  0.00  0.00    +0.251 C 
BRANCH  20   2
ATOM      2  S   UNL     1      14.269  11.116  15.116  0.00  0.00    +0.004 S 
ATOM      5  O   UNL     1      14.285  11.833  16.378  0.00  0.00    -0.169 OA
ATOM      6  O   UNL     1      13.111  11.183  14.246  0.00  0.00    -0.169 OA
BRANCH   2  23
ATOM     23  C   UNL     1      15.663  11.644  14.167  0.00  0.00    +0.089 A 
ATOM     25  C   UNL     1      15.528  11.874  12.798  0.00  0.00    +0.027 A 
ATOM     26  C   UNL     1      16.899  11.829  14.787  0.00  0.00    +0.027 A 
ATOM     27  C   UNL     1      16.628  12.288  12.049  0.00  0.00    +0.005 A 
ATOM     28  C   UNL     1      17.999  12.244  14.037  0.00  0.00    +0.005 A 
ATOM     29  C   UNL     1      17.864  12.473  12.668  0.00  0.00    -0.050 A 
ATOM     30  C   UNL     1      19.041  12.916  11.865  0.00  0.00    +0.044 C 
ENDBRANCH   2  23
ENDBRANCH  20   2
ENDBRANCH  17  20
TORSDOF 7
ENDMDL
MODEL 2
REMARK VINA RESULT:      -7.0     26.424     29.620
REMARK  Name = 26744006
REMARK  8 active torsions:
REMARK  status: ('A' for Active; 'I' for Inactive)
REMARK    1  A    between atoms: S_2  and  C_20
REMARK    2  A    between atoms: S_2  and  C_23
REMARK    3  A    between atoms: O_3  and  C_12
REMARK    4  A    between atoms: N_7  and  C_14
REMARK    5  A    between atoms: C_10  and  C_15
REMARK    6  A    between atoms: C_14  and  C_16
REMARK    7  A    between atoms: C_17  and  C_20
REMARK    8  A    between atoms: C_29  and  C_30
REMARK                            x       y       z     vdW  Elec       q    Type
REMARK                         _______ _______ _______ _____ _____    ______ ____
ROOT
ATOM      4  O   UNL     1      -5.208 -11.635  17.394  0.00  0.00    -0.336 OA
ATOM      8  N   UNL     1      -5.555  -9.852  16.082  0.00  0.00    -0.193 NA
ATOM      9  N   UNL     1      -6.418 -11.070  17.816  0.00  0.00    -0.060 NA
ATOM     15  C   UNL     1      -4.767 -10.857  16.370  0.00  0.00    +0.245 A 
ATOM     17  C   UNL     1      -6.554 -10.024  16.995  0.00  0.00    +0.193 A 
ENDROOT
BRANCH  15  10
ATOM      7  N   UNL     1      -3.247 -10.629  14.411  0.00  0.00    -0.285 NA
ATOM     10  C   UNL     1      -3.456 -11.264  15.729  0.00  0.00    +0.149 C 
ATOM     11  C   UNL     1      -2.231 -10.851  16.564  0.00  0.00    +0.061 C 
ATOM     12  C   UNL     1      -1.369 -10.025  15.619  0.00  0.00    +0.130 C 
ATOM     13  C   UNL     1      -1.802 -10.494  14.242  0.00  0.00    +0.116 C 
BRANCH  12   3
ATOM      3  O   UNL     1       0.005 -10.269  15.848  0.00  0.00    -0.390 OA
ATOM     31  H   UNL     1       0.482  -9.438  15.681  0.00  0.00    +0.210 HD
ENDBRANCH  12   3
BRANCH   7  14
ATOM     14  C   UNL     1      -3.861 -11.365  13.315  0.00  0.00    +0.120 C 
BRANCH  14  16
ATOM      1 CL   UNL     1      -6.225  -7.678   9.191  0.00  0.00    -0.084 Cl
ATOM     16  C   UNL     1      -4.453 -10.443  12.282  0.00  0.00    -0.033 A 
ATOM     18  C   UNL     1      -5.695  -9.849  12.508  0.00  0.00    +0.006 A 
ATOM     19  C   UNL     1      -3.760 -10.183  11.100  0.00  0.00    +0.006 A 
ATOM     21  C   UNL     1      -6.243  -8.995  11.551  0.00  0.00    +0.020 A 
ATOM     22  C   UNL     1      -4.308  -9.328  10.144  0.00  0.00    +0.020 A 
ATOM     24  C   UNL     1      -5.550  -8.735  10.369  0.00  0.00    +0.041 A 
ENDBRANCH  14  16
ENDBRANCH   7  14
ENDBRANCH  15  10
BRANCH  17  20
ATOM     20  C   UNL     1      -7.707  -9.120  17.072  0.00  0.00    +0.251 C 
BRANCH  20   2
ATOM      2  S   UNL     1      -9.119  -9.943  16.387  0.00  0.00    +0.004 S 
ATOM      5  O   UNL     1      -9.829 -10.576  17.482  0.00  0.00    -0.169 OA
ATOM      6  O   UNL     1      -8.688 -10.720  15.241  0.00  0.00    -0.169 OA
BRANCH   2  23
ATOM     23  C   UNL     1     -10.120  -8.623  15.774  0.00  0.00    +0.089 A 
ATOM     25  C   UNL     1     -10.918  -8.819  14.647  0.00  0.00    +0.027 A 
ATOM     26  C   UNL     1     -10.111  -7.384  16.415  0.00  0.00    +0.027 A 
ATOM     27  C   UNL     1     -11.706  -7.778  14.161  0.00  0.00    +0.005 A 
ATOM     28  C   UNL     1     -10.900  -6.342  15.928  0.00  0.00    +0.005 A 
ATOM     29  C   UNL     1     -11.698  -6.539  14.801  0.00  0.00    -0.050 A 
ATOM     30  C   UNL     1     -12.542  -5.424  14.280  0.00  0.00    +0.044 C 
ENDBRANCH   2  23
ENDBRANCH  20   2
ENDBRANCH  17  20
TORSDOF 7
ENDMDL
MODEL 3
REMARK VINA RESULT:      -6.8      2.887      7.363
REMARK  Name = 26744006
REMARK  8 active torsions:
REMARK  status: ('A' for Active; 'I' for Inactive)
REMARK    1  A    between atoms: S_2  and  C_20
REMARK    2  A    between atoms: S_2  and  C_23
REMARK    3  A    between atoms: O_3  and  C_12
REMARK    4  A    between atoms: N_7  and  C_14
REMARK    5  A    between atoms: C_10  and  C_15
REMARK    6  A    between atoms: C_14  and  C_16
REMARK    7  A    between atoms: C_17  and  C_20
REMARK    8  A    between atoms: C_29  and  C_30
REMARK                            x       y       z     vdW  Elec       q    Type
REMARK                         _______ _______ _______ _____ _____    ______ ____
ROOT
ATOM      4  O   UNL     1      14.385   9.379  15.026  0.00  0.00    -0.336 OA
ATOM      8  N   UNL     1      13.305  10.441  16.677  0.00  0.00    -0.193 NA
ATOM      9  N   UNL     1      13.491   8.448  15.568  0.00  0.00    -0.060 NA
ATOM     15  C   UNL     1      14.211  10.525  15.736  0.00  0.00    +0.245 A 
ATOM     17  C   UNL     1      12.891   9.148  16.536  0.00  0.00    +0.193 A 
ENDROOT
BRANCH  15  10
ATOM      7  N   UNL     1      15.947  12.166  16.436  0.00  0.00    -0.285 NA
ATOM     10  C   UNL     1      15.075  11.704  15.337  0.00  0.00    +0.149 C 
ATOM     11  C   UNL     1      16.037  11.375  14.182  0.00  0.00    +0.061 C 
ATOM     12  C   UNL     1      17.422  11.726  14.709  0.00  0.00    +0.130 C 
ATOM     13  C   UNL     1      17.138  12.734  15.807  0.00  0.00    +0.116 C 
BRANCH  12   3
ATOM      3  O   UNL     1      18.225  12.279  13.684  0.00  0.00    -0.390 OA
ATOM     31  H   UNL     1      18.501  13.165  13.976  0.00  0.00    +0.210 HD
ENDBRANCH  12   3
BRANCH   7  14
ATOM     14  C   UNL     1      15.295  13.113  17.330  0.00  0.00    +0.120 C 
BRANCH  14  16
ATOM      1 CL   UNL     1      15.759  11.451  23.092  0.00  0.00    -0.084 Cl
ATOM     16  C   UNL     1      15.412  12.697  18.772  0.00  0.00    -0.033 A 
ATOM     18  C   UNL     1      15.020  13.573  19.784  0.00  0.00    +0.006 A 
ATOM     19  C   UNL     1      15.912  11.437  19.095  0.00  0.00    +0.006 A 
ATOM     21  C   UNL     1      15.129  13.188  21.120  0.00  0.00    +0.020 A 
ATOM     22  C   UNL     1      16.020  11.051  20.431  0.00  0.00    +0.020 A 
ATOM     24  C   UNL     1      15.629  11.927  21.443  0.00  0.00    +0.041 A 
ENDBRANCH  14  16
ENDBRANCH   7  14
ENDBRANCH  15  10
BRANCH  17  20
ATOM     20  C   UNL     1      11.853   8.562  17.390  0.00  0.00    +0.251 C 
BRANCH  20   2
ATOM      2  S   UNL     1      12.625   7.864  18.823  0.00  0.00    +0.004 S 
ATOM      5  O   UNL     1      14.058   8.041  18.677  0.00  0.00    -0.169 OA
ATOM      6  O   UNL     1      12.066   6.545  19.052  0.00  0.00    -0.169 OA
BRANCH   2  23
ATOM     23  C   UNL     1      12.076   8.898  20.146  0.00  0.00    +0.089 A 
ATOM     25  C   UNL     1      12.501  10.225  20.216  0.00  0.00    +0.027 A 
ATOM     26  C   UNL     1      11.220   8.387  21.121  0.00  0.00    +0.027 A 
ATOM     27  C   UNL     1      12.071  11.040  21.262  0.00  0.00    +0.005 A 
ATOM     28  C   UNL     1      10.788   9.204  22.167  0.00  0.00    +0.005 A 
ATOM     29  C   UNL     1      11.214  10.531  22.237  0.00  0.00    -0.050 A 
ATOM     30  C   UNL     1      10.753  11.404  23.356  0.00  0.00    +0.044 C 
ENDBRANCH   2  23
ENDBRANCH  20   2
ENDBRANCH  17  20
TORSDOF 7
ENDMDL
MODEL 4
REMARK VINA RESULT:      -6.8     14.526     18.463
REMARK  Name = 26744006
REMARK  8 active torsions:
REMARK  status: ('A' for Active; 'I' for Inactive)
REMARK    1  A    between atoms: S_2  and  C_20
REMARK    2  A    between atoms: S_2  and  C_23
REMARK    3  A    between atoms: O_3  and  C_12
REMARK    4  A    between atoms: N_7  and  C_14
REMARK    5  A    between atoms: C_10  and  C_15
REMARK    6  A    between atoms: C_14  and  C_16
REMARK    7  A    between atoms: C_17  and  C_20
REMARK    8  A    between atoms: C_29  and  C_30
REMARK                            x       y       z     vdW  Elec       q    Type
REMARK                         _______ _______ _______ _____ _____    ______ ____
ROOT
ATOM      4  O   UNL     1      11.583   3.510   2.596  0.00  0.00    -0.336 OA
ATOM      8  N   UNL     1      11.947   5.711   2.400  0.00  0.00    -0.193 NA
ATOM      9  N   UNL     1      10.547   4.140   3.297  0.00  0.00    -0.060 NA
ATOM     15  C   UNL     1      12.362   4.507   2.099  0.00  0.00    +0.245 A 
ATOM     17  C   UNL     1      10.832   5.436   3.136  0.00  0.00    +0.193 A 
ENDROOT
BRANCH  15  10
ATOM      7  N   UNL     1      13.356   4.233  -0.167  0.00  0.00    -0.285 NA
ATOM     10  C   UNL     1      13.568   4.081   1.288  0.00  0.00    +0.149 C 
ATOM     11  C   UNL     1      14.820   4.923   1.594  0.00  0.00    +0.061 C 
ATOM     12  C   UNL     1      15.266   5.472   0.245  0.00  0.00    +0.130 C 
ATOM     13  C   UNL     1      14.670   4.494  -0.751  0.00  0.00    +0.116 C 
BRANCH  12   3
ATOM      3  O   UNL     1      16.677   5.511   0.161  0.00  0.00    -0.390 OA
ATOM     31  H   UNL     1      17.019   5.688   1.054  0.00  0.00    +0.210 HD
ENDBRANCH  12   3
BRANCH   7  14
ATOM     14  C   UNL     1      12.704   3.083  -0.776  0.00  0.00    +0.120 C 
BRANCH  14  16
ATOM      1 CL   UNL     1       8.164   4.718  -4.369  0.00  0.00    -0.084 Cl
ATOM     16  C   UNL     1      11.568   3.493  -1.676  0.00  0.00    -0.033 A 
ATOM     18  C   UNL     1      11.248   2.719  -2.792  0.00  0.00    +0.006 A 
ATOM     19  C   UNL     1      10.835   4.645  -1.393  0.00  0.00    +0.006 A 
ATOM     21  C   UNL     1      10.197   3.100  -3.625  0.00  0.00    +0.020 A 
ATOM     22  C   UNL     1       9.783   5.025  -2.226  0.00  0.00    +0.020 A 
ATOM     24  C   UNL     1       9.464   4.252  -3.342  0.00  0.00    +0.041 A 
ENDBRANCH  14  16
ENDBRANCH   7  14
ENDBRANCH  15  10
BRANCH  17  20
ATOM     20  C   UNL     1       9.994   6.493   3.713  0.00  0.00    +0.251 C 
BRANCH  20   2
ATOM      2  S   UNL     1      10.905   7.297   5.002  0.00  0.00    +0.004 S 
ATOM      5  O   UNL     1      10.524   8.697   4.998  0.00  0.00    -0.169 OA
ATOM      6  O   UNL     1      12.300   6.913   4.889  0.00  0.00    -0.169 OA
BRANCH   2  23
ATOM     23  C   UNL     1      10.282   6.562   6.483  0.00  0.00    +0.089 A 
ATOM     25  C   UNL     1       9.649   7.353   7.441  0.00  0.00    +0.027 A 
ATOM     26  C   UNL     1      10.425   5.191   6.694  0.00  0.00    +0.027 A 
ATOM     27  C   UNL     1       9.160   6.774   8.610  0.00  0.00    +0.005 A 
ATOM     28  C   UNL     1       9.935   4.611   7.864  0.00  0.00    +0.005 A 
ATOM     29  C   UNL     1       9.302   5.403   8.823  0.00  0.00    -0.050 A 
ATOM     30  C   UNL     1       8.778   4.784  10.075  0.00  0.00    +0.044 C 
ENDBRANCH   2  23
ENDBRANCH  20   2
ENDBRANCH  17  20
TORSDOF 7
ENDMDL
MODEL 5
REMARK VINA RESULT:      -6.8     27.525     29.522
REMARK  Name = 26744006
REMARK  8 active torsions:
REMARK  status: ('A' for Active; 'I' for Inactive)
REMARK    1  A    between atoms: S_2  and  C_20
REMARK    2  A    between atoms: S_2  and  C_23
REMARK    3  A    between atoms: O_3  and  C_12
REMARK    4  A    between atoms: N_7  and  C_14
REMARK    5  A    between atoms: C_10  and  C_15
REMARK    6  A    between atoms: C_14  and  C_16
REMARK    7  A    between atoms: C_17  and  C_20
REMARK    8  A    between atoms: C_29  and  C_30
REMARK                            x       y       z     vdW  Elec       q    Type
REMARK                         _______ _______ _______ _____ _____    ______ ____
ROOT
ATOM      4  O   UNL     1      -5.145 -11.443  18.264  0.00  0.00    -0.336 OA
ATOM      8  N   UNL     1      -4.866  -9.969  16.601  0.00  0.00    -0.193 NA
ATOM      9  N   UNL     1      -3.908 -11.744  17.681  0.00  0.00    -0.060 NA
ATOM     15  C   UNL     1      -5.642 -10.386  17.569  0.00  0.00    +0.245 A 
ATOM     17  C   UNL     1      -3.814 -10.832  16.708  0.00  0.00    +0.193 A 
ENDROOT
BRANCH  15  10
ATOM      7  N   UNL     1      -8.098 -10.353  17.166  0.00  0.00    -0.285 NA
ATOM     10  C   UNL     1      -6.991  -9.860  18.012  0.00  0.00    +0.149 C 
ATOM     11  C   UNL     1      -7.362 -10.298  19.441  0.00  0.00    +0.061 C 
ATOM     12  C   UNL     1      -8.713 -10.988  19.304  0.00  0.00    +0.130 C 
ATOM     13  C   UNL     1      -9.281 -10.405  18.023  0.00  0.00    +0.116 C 
BRANCH  12   3
ATOM      3  O   UNL     1      -9.537 -10.706  20.419  0.00  0.00    -0.390 OA
ATOM     31  H   UNL     1     -10.438 -10.995  20.197  0.00  0.00    +0.210 HD
ENDBRANCH  12   3
BRANCH   7  14
ATOM     14  C   UNL     1      -8.319  -9.540  15.977  0.00  0.00    +0.120 C 
BRANCH  14  16
ATOM      1 CL   UNL     1      -7.831 -12.775  10.929  0.00  0.00    -0.084 Cl
ATOM     16  C   UNL     1      -8.197 -10.351  14.714  0.00  0.00    -0.033 A 
ATOM     18  C   UNL     1      -8.544  -9.785  13.487  0.00  0.00    +0.006 A 
ATOM     19  C   UNL     1      -7.738 -11.666  14.770  0.00  0.00    +0.006 A 
ATOM     21  C   UNL     1      -8.433 -10.535  12.317  0.00  0.00    +0.020 A 
ATOM     22  C   UNL     1      -7.625 -12.416  13.600  0.00  0.00    +0.020 A 
ATOM     24  C   UNL     1      -7.973 -11.851  12.374  0.00  0.00    +0.041 A 
ENDBRANCH  14  16
ENDBRANCH   7  14
ENDBRANCH  15  10
BRANCH  17  20
ATOM     20  C   UNL     1      -2.653 -10.765  15.815  0.00  0.00    +0.251 C 
BRANCH  20   2
ATOM      2  S   UNL     1      -2.838 -11.994  14.552  0.00  0.00    +0.004 S 
ATOM      5  O   UNL     1      -4.007 -12.787  14.882  0.00  0.00    -0.169 OA
ATOM      6  O   UNL     1      -1.552 -12.631  14.337  0.00  0.00    -0.169 OA
BRANCH   2  23
ATOM     23  C   UNL     1      -3.202 -11.056  13.099  0.00  0.00    +0.089 A 
ATOM     25  C   UNL     1      -4.503 -10.613  12.864  0.00  0.00    +0.027 A 
ATOM     26  C   UNL     1      -2.189 -10.762  12.188  0.00  0.00    +0.027 A 
ATOM     27  C   UNL     1      -4.792  -9.876  11.716  0.00  0.00    +0.005 A 
ATOM     28  C   UNL     1      -2.477 -10.024  11.040  0.00  0.00    +0.005 A 
ATOM     29  C   UNL     1      -3.779  -9.581  10.804  0.00  0.00    -0.050 A 
ATOM     30  C   UNL     1      -4.088  -8.792   9.576  0.00  0.00    +0.044 C 
ENDBRANCH   2  23
ENDBRANCH  20   2
ENDBRANCH  17  20
TORSDOF 7
ENDMDL
MODEL 6
REMARK VINA RESULT:      -6.8     26.783     30.231
REMARK  Name = 26744006
REMARK  8 active torsions:
REMARK  status: ('A' for Active; 'I' for Inactive)
REMARK    1  A    between atoms: S_2  and  C_20
REMARK    2  A    between atoms: S_2  and  C_23
REMARK    3  A    between atoms: O_3  and  C_12
REMARK    4  A    between atoms: N_7  and  C_14
REMARK    5  A    between atoms: C_10  and  C_15
REMARK    6  A    between atoms: C_14  and  C_16
REMARK    7  A    between atoms: C_17  and  C_20
REMARK    8  A    between atoms: C_29  and  C_30
REMARK                            x       y       z     vdW  Elec       q    Type
REMARK                         _______ _______ _______ _____ _____    ______ ____
ROOT
ATOM      4  O   UNL     1      -5.185 -11.594  17.450  0.00  0.00    -0.336 OA
ATOM      8  N   UNL     1      -5.551  -9.840  16.105  0.00  0.00    -0.193 NA
ATOM      9  N   UNL     1      -6.385 -11.015  17.882  0.00  0.00    -0.060 NA
ATOM     15  C   UNL     1      -4.761 -10.841  16.401  0.00  0.00    +0.245 A 
ATOM     17  C   UNL     1      -6.534  -9.988  17.040  0.00  0.00    +0.193 A 
ENDROOT
BRANCH  15  10
ATOM      7  N   UNL     1      -3.272 -10.651  14.415  0.00  0.00    -0.285 NA
ATOM     10  C   UNL     1      -3.464 -11.266  15.745  0.00  0.00    +0.149 C 
ATOM     11  C   UNL     1      -2.222 -10.851  16.554  0.00  0.00    +0.061 C 
ATOM     12  C   UNL     1      -1.369 -10.044  15.584  0.00  0.00    +0.130 C 
ATOM     13  C   UNL     1      -1.828 -10.530  14.221  0.00  0.00    +0.116 C 
BRANCH  12   3
ATOM      3  O   UNL     1       0.006 -10.296  15.794  0.00  0.00    -0.390 OA
ATOM     31  H   UNL     1       0.081 -10.883  16.566  0.00  0.00    +0.210 HD
ENDBRANCH  12   3
BRANCH   7  14
ATOM     14  C   UNL     1      -3.908 -11.398  13.339  0.00  0.00    +0.120 C 
BRANCH  14  16
ATOM      1 CL   UNL     1      -6.256  -7.758   9.165  0.00  0.00    -0.084 Cl
ATOM     16  C   UNL     1      -4.496 -10.487  12.295  0.00  0.00    -0.033 A 
ATOM     18  C   UNL     1      -3.818 -10.274  11.094  0.00  0.00    +0.006 A 
ATOM     19  C   UNL     1      -5.717  -9.855  12.528  0.00  0.00    +0.006 A 
ATOM     21  C   UNL     1      -4.362  -9.429  10.127  0.00  0.00    +0.020 A 
ATOM     22  C   UNL     1      -6.261  -9.010  11.560  0.00  0.00    +0.020 A 
ATOM     24  C   UNL     1      -5.584  -8.797  10.361  0.00  0.00    +0.041 A 
ENDBRANCH  14  16
ENDBRANCH   7  14
ENDBRANCH  15  10
BRANCH  17  20
ATOM     20  C   UNL     1      -7.682  -9.079  17.119  0.00  0.00    +0.251 C 
BRANCH  20   2
ATOM      2  S   UNL     1      -9.072  -9.852  16.339  0.00  0.00    +0.004 S 
ATOM      5  O   UNL     1      -8.709 -11.231  16.067  0.00  0.00    -0.169 OA
ATOM      6  O   UNL     1      -9.541  -8.990  15.271  0.00  0.00    -0.169 OA
BRANCH   2  23
ATOM     23  C   UNL     1     -10.316  -9.850  17.594  0.00  0.00    +0.089 A 
ATOM     25  C   UNL     1     -11.607  -9.414  17.294  0.00  0.00    +0.027 A 
ATOM     26  C   UNL     1     -10.007 -10.281  18.883  0.00  0.00    +0.027 A 
ATOM     27  C   UNL     1     -12.588  -9.409  18.284  0.00  0.00    +0.005 A 
ATOM     28  C   UNL     1     -10.989 -10.277  19.874  0.00  0.00    +0.005 A 
ATOM     29  C   UNL     1     -12.280  -9.840  19.574  0.00  0.00    -0.050 A 
ATOM     30  C   UNL     1     -13.330  -9.834  20.634  0.00  0.00    +0.044 C 
ENDBRANCH   2  23
ENDBRANCH  20   2
ENDBRANCH  17  20
TORSDOF 7
ENDMDL
MODEL 7
REMARK VINA RESULT:      -6.7     27.994     29.606
REMARK  Name = 26744006
REMARK  8 active torsions:
REMARK  status: ('A' for Active; 'I' for Inactive)
REMARK    1  A    between atoms: S_2  and  C_20
REMARK    2  A    between atoms: S_2  and  C_23
REMARK    3  A    between atoms: O_3  and  C_12
REMARK    4  A    between atoms: N_7  and  C_14
REMARK    5  A    between atoms: C_10  and  C_15
REMARK    6  A    between atoms: C_14  and  C_16
REMARK    7  A    between atoms: C_17  and  C_20
REMARK    8  A    between atoms: C_29  and  C_30
REMARK                            x       y       z     vdW  Elec       q    Type
REMARK                         _______ _______ _______ _____ _____    ______ ____
ROOT
ATOM      4  O   UNL     1      -4.746 -14.297  16.914  0.00  0.00    -0.336 OA
ATOM      8  N   UNL     1      -4.327 -12.983  15.149  0.00  0.00    -0.193 NA
ATOM      9  N   UNL     1      -4.672 -15.148  15.804  0.00  0.00    -0.060 NA
ATOM     15  C   UNL     1      -4.531 -13.042  16.441  0.00  0.00    +0.245 A 
ATOM     17  C   UNL     1      -4.422 -14.299  14.802  0.00  0.00    +0.193 A 
ENDROOT
BRANCH  15  10
ATOM      7  N   UNL     1      -5.655 -10.960  17.217  0.00  0.00    -0.285 NA
ATOM     10  C   UNL     1      -4.560 -11.921  17.460  0.00  0.00    +0.149 C 
ATOM     11  C   UNL     1      -4.790 -12.427  18.895  0.00  0.00    +0.061 C 
ATOM     12  C   UNL     1      -6.008 -11.661  19.393  0.00  0.00    +0.130 C 
ATOM     13  C   UNL     1      -6.026 -10.418  18.522  0.00  0.00    +0.116 C 
BRANCH  12   3
ATOM      3  O   UNL     1      -5.874 -11.339  20.764  0.00  0.00    -0.390 OA
ATOM     31  H   UNL     1      -6.007 -10.380  20.853  0.00  0.00    +0.210 HD
ENDBRANCH  12   3
BRANCH   7  14
ATOM     14  C   UNL     1      -5.302  -9.912  16.269  0.00  0.00    +0.120 C 
BRANCH  14  16
ATOM      1 CL   UNL     1      -8.764 -10.078  11.352  0.00  0.00    -0.084 Cl
ATOM     16  C   UNL     1      -6.169  -9.953  15.039  0.00  0.00    -0.033 A 
ATOM     18  C   UNL     1      -5.582  -9.977  13.773  0.00  0.00    +0.006 A 
ATOM     19  C   UNL     1      -7.557  -9.967  15.164  0.00  0.00    +0.006 A 
ATOM     21  C   UNL     1      -6.385 -10.014  12.633  0.00  0.00    +0.020 A 
ATOM     22  C   UNL     1      -8.360 -10.005  14.024  0.00  0.00    +0.020 A 
ATOM     24  C   UNL     1      -7.774 -10.027  12.759  0.00  0.00    +0.041 A 
ENDBRANCH  14  16
ENDBRANCH   7  14
ENDBRANCH  15  10
BRANCH  17  20
ATOM     20  C   UNL     1      -4.261 -14.757  13.418  0.00  0.00    +0.251 C 
BRANCH  20   2
ATOM      2  S   UNL     1      -2.621 -14.361  12.878  0.00  0.00    +0.004 S 
ATOM      5  O   UNL     1      -2.237 -15.349  11.886  0.00  0.00    -0.169 OA
ATOM      6  O   UNL     1      -1.793 -14.131  14.047  0.00  0.00    -0.169 OA
BRANCH   2  23
ATOM     23  C   UNL     1      -2.808 -12.806  12.060  0.00  0.00    +0.089 A 
ATOM     25  C   UNL     1      -3.642 -12.700  10.948  0.00  0.00    +0.027 A 
ATOM     26  C   UNL     1      -2.120 -11.686  12.526  0.00  0.00    +0.027 A 
ATOM     27  C   UNL     1      -3.788 -11.474  10.300  0.00  0.00    +0.005 A 
ATOM     28  C   UNL     1      -2.266 -10.459  11.878  0.00  0.00    +0.005 A 
ATOM     29  C   UNL     1      -3.101 -10.353  10.765  0.00  0.00    -0.050 A 
ATOM     30  C   UNL     1      -3.257  -9.041  10.072  0.00  0.00    +0.044 C 
ENDBRANCH   2  23
ENDBRANCH  20   2
ENDBRANCH  17  20
TORSDOF 7
ENDMDL
MODEL 8
REMARK VINA RESULT:      -6.7      4.322      9.031
REMARK  Name = 26744006
REMARK  8 active torsions:
REMARK  status: ('A' for Active; 'I' for Inactive)
REMARK    1  A    between atoms: S_2  and  C_20
REMARK    2  A    between atoms: S_2  and  C_23
REMARK    3  A    between atoms: O_3  and  C_12
REMARK    4  A    between atoms: N_7  and  C_14
REMARK    5  A    between atoms: C_10  and  C_15
REMARK    6  A    between atoms: C_14  and  C_16
REMARK    7  A    between atoms: C_17  and  C_20
REMARK    8  A    between atoms: C_29  and  C_30
REMARK                            x       y       z     vdW  Elec       q    Type
REMARK                         _______ _______ _______ _____ _____    ______ ____
ROOT
ATOM      4  O   UNL     1      14.299   9.370  14.842  0.00  0.00    -0.336 OA
ATOM      8  N   UNL     1      13.335  10.475  16.536  0.00  0.00    -0.193 NA
ATOM      9  N   UNL     1      13.380   8.482  15.414  0.00  0.00    -0.060 NA
ATOM     15  C   UNL     1      14.209  10.519  15.562  0.00  0.00    +0.245 A 
ATOM     17  C   UNL     1      12.851   9.206  16.406  0.00  0.00    +0.193 A 
ENDROOT
BRANCH  15  10
ATOM      7  N   UNL     1      14.411  12.668  14.321  0.00  0.00    -0.285 NA
ATOM     10  C   UNL     1      15.115  11.656  15.136  0.00  0.00    +0.149 C 
ATOM     11  C   UNL     1      15.688  12.441  16.330  0.00  0.00    +0.061 C 
ATOM     12  C   UNL     1      15.296  13.890  16.075  0.00  0.00    +0.130 C 
ATOM     13  C   UNL     1      15.083  13.941  14.574  0.00  0.00    +0.116 C 
BRANCH  12   3
ATOM      3  O   UNL     1      16.323  14.769  16.490  0.00  0.00    -0.390 OA
ATOM     31  H   UNL     1      16.082  15.105  17.371  0.00  0.00    +0.210 HD
ENDBRANCH  12   3
BRANCH   7  14
ATOM     14  C   UNL     1      14.375  12.340  12.903  0.00  0.00    +0.120 C 
BRANCH  14  16
ATOM      1 CL   UNL     1       8.739  11.890  10.848  0.00  0.00    -0.084 Cl
ATOM     16  C   UNL     1      12.964  12.228  12.389  0.00  0.00    -0.033 A 
ATOM     18  C   UNL     1      12.719  12.241  11.015  0.00  0.00    +0.006 A 
ATOM     19  C   UNL     1      11.902  12.111  13.285  0.00  0.00    +0.006 A 
ATOM     21  C   UNL     1      11.412  12.139  10.540  0.00  0.00    +0.020 A 
ATOM     22  C   UNL     1      10.596  12.007  12.809  0.00  0.00    +0.020 A 
ATOM     24  C   UNL     1      10.351  12.022  11.437  0.00  0.00    +0.041 A 
ENDBRANCH  14  16
ENDBRANCH   7  14
ENDBRANCH  15  10
BRANCH  17  20
ATOM     20  C   UNL     1      11.817   8.668  17.296  0.00  0.00    +0.251 C 
BRANCH  20   2
ATOM      2  S   UNL     1      12.605   7.945  18.708  0.00  0.00    +0.004 S 
ATOM      5  O   UNL     1      14.037   8.106  18.540  0.00  0.00    -0.169 OA
ATOM      6  O   UNL     1      12.033   6.631  18.933  0.00  0.00    -0.169 OA
BRANCH   2  23
ATOM     23  C   UNL     1      12.091   8.972  20.051  0.00  0.00    +0.089 A 
ATOM     25  C   UNL     1      12.595  10.267  20.170  0.00  0.00    +0.027 A 
ATOM     26  C   UNL     1      11.183   8.487  20.992  0.00  0.00    +0.027 A 
ATOM     27  C   UNL     1      12.192  11.076  21.231  0.00  0.00    +0.005 A 
ATOM     28  C   UNL     1      10.780   9.297  22.053  0.00  0.00    +0.005 A 
ATOM     29  C   UNL     1      11.285  10.592  22.173  0.00  0.00    -0.050 A 
ATOM     30  C   UNL     1      10.854  11.459  23.308  0.00  0.00    +0.044 C 
ENDBRANCH   2  23
ENDBRANCH  20   2
ENDBRANCH  17  20
TORSDOF 7
ENDMDL
MODEL 9
REMARK VINA RESULT:      -6.6     27.191     29.840
REMARK  Name = 26744006
REMARK  8 active torsions:
REMARK  status: ('A' for Active; 'I' for Inactive)
REMARK    1  A    between atoms: S_2  and  C_20
REMARK    2  A    between atoms: S_2  and  C_23
REMARK    3  A    between atoms: O_3  and  C_12
REMARK    4  A    between atoms: N_7  and  C_14
REMARK    5  A    between atoms: C_10  and  C_15
REMARK    6  A    between atoms: C_14  and  C_16
REMARK    7  A    between atoms: C_17  and  C_20
REMARK    8  A    between atoms: C_29  and  C_30
REMARK                            x       y       z     vdW  Elec       q    Type
REMARK                         _______ _______ _______ _____ _____    ______ ____
ROOT
ATOM      4  O   UNL     1      -5.780 -12.462  13.259  0.00  0.00    -0.336 OA
ATOM      8  N   UNL     1      -5.685 -10.363  14.036  0.00  0.00    -0.193 NA
ATOM      9  N   UNL     1      -6.990 -11.858  12.897  0.00  0.00    -0.060 NA
ATOM     15  C   UNL     1      -5.070 -11.513  13.926  0.00  0.00    +0.245 A 
ATOM     17  C   UNL     1      -6.859 -10.622  13.390  0.00  0.00    +0.193 A 
ENDROOT
BRANCH  15  10
ATOM      7  N   UNL     1      -2.606 -11.224  13.727  0.00  0.00    -0.285 NA
ATOM     10  C   UNL     1      -3.702 -11.922  14.430  0.00  0.00    +0.149 C 
ATOM     11  C   UNL     1      -3.490 -11.591  15.918  0.00  0.00    +0.061 C 
ATOM     12  C   UNL     1      -2.228 -10.740  15.957  0.00  0.00    +0.130 C 
ATOM     13  C   UNL     1      -1.503 -11.122  14.680  0.00  0.00    +0.116 C 
BRANCH  12   3
ATOM      3  O   UNL     1      -1.458 -11.036  17.106  0.00  0.00    -0.390 OA
ATOM     31  H   UNL     1      -0.628 -11.444  16.805  0.00  0.00    +0.210 HD
ENDBRANCH  12   3
BRANCH   7  14
ATOM     14  C   UNL     1      -2.203 -11.882  12.491  0.00  0.00    +0.120 C 
BRANCH  14  16
ATOM      1 CL   UNL     1      -5.124  -9.672   7.719  0.00  0.00    -0.084 Cl
ATOM     16  C   UNL     1      -2.935 -11.329  11.297  0.00  0.00    -0.033 A 
ATOM     18  C   UNL     1      -2.882  -9.963  11.018  0.00  0.00    +0.006 A 
ATOM     19  C   UNL     1      -3.666 -12.182  10.471  0.00  0.00    +0.006 A 
ATOM     21  C   UNL     1      -3.560  -9.451   9.913  0.00  0.00    +0.020 A 
ATOM     22  C   UNL     1      -4.344 -11.670   9.365  0.00  0.00    +0.020 A 
ATOM     24  C   UNL     1      -4.291 -10.304   9.086  0.00  0.00    +0.041 A 
ENDBRANCH  14  16
ENDBRANCH   7  14
ENDBRANCH  15  10
BRANCH  17  20
ATOM     20  C   UNL     1      -7.911  -9.611  13.244  0.00  0.00    +0.251 C 
BRANCH  20   2
ATOM      2  S   UNL     1      -9.199  -9.961  14.408  0.00  0.00    +0.004 S 
ATOM      5  O   UNL     1      -9.889 -11.153  13.953  0.00  0.00    -0.169 OA
ATOM      6  O   UNL     1      -9.935  -8.737  14.664  0.00  0.00    -0.169 OA
BRANCH   2  23
ATOM     23  C   UNL     1      -8.329 -10.364  15.893  0.00  0.00    +0.089 A 
ATOM     25  C   UNL     1      -7.773  -9.350  16.672  0.00  0.00    +0.027 A 
ATOM     26  C   UNL     1      -8.197 -11.696  16.283  0.00  0.00    +0.027 A 
ATOM     27  C   UNL     1      -7.084  -9.667  17.841  0.00  0.00    +0.005 A 
ATOM     28  C   UNL     1      -7.508 -12.014  17.454  0.00  0.00    +0.005 A 
ATOM     29  C   UNL     1      -6.952 -10.999  18.233  0.00  0.00    -0.050 A 
ATOM     30  C   UNL     1      -6.214 -11.338  19.485  0.00  0.00    +0.044 C 
ENDBRANCH   2  23
ENDBRANCH  20   2
ENDBRANCH  17  20
TORSDOF 7
ENDMDL
MODEL 10
REMARK VINA RESULT:      -6.6      2.851      7.363
REMARK  Name = 26744006
REMARK  8 active torsions:
REMARK  status: ('A' for Active; 'I' for Inactive)
REMARK    1  A    between atoms: S_2  and  C_20
REMARK    2  A    between atoms: S_2  and  C_23
REMARK    3  A    between atoms: O_3  and  C_12
REMARK    4  A    between atoms: N_7  and  C_14
REMARK    5  A    between atoms: C_10  and  C_15
REMARK    6  A    between atoms: C_14  and  C_16
REMARK    7  A    between atoms: C_17  and  C_20
REMARK    8  A    between atoms: C_29  and  C_30
REMARK                            x       y       z     vdW  Elec       q    Type
REMARK                         _______ _______ _______ _____ _____    ______ ____
ROOT
ATOM      4  O   UNL     1      12.730  10.414  14.753  0.00  0.00    -0.336 OA
ATOM      8  N   UNL     1      14.598  10.220  15.974  0.00  0.00    -0.193 NA
ATOM      9  N   UNL     1      12.720   9.116  15.277  0.00  0.00    -0.060 NA
ATOM     15  C   UNL     1      13.870  10.996  15.212  0.00  0.00    +0.245 A 
ATOM     17  C   UNL     1      13.853   9.077  15.985  0.00  0.00    +0.193 A 
ENDROOT
BRANCH  15  10
ATOM      7  N   UNL     1      15.544  12.694  14.498  0.00  0.00    -0.285 NA
ATOM     10  C   UNL     1      14.119  12.427  14.781  0.00  0.00    +0.149 C 
ATOM     11  C   UNL     1      13.383  12.794  13.480  0.00  0.00    +0.061 C 
ATOM     12  C   UNL     1      14.470  13.301  12.541  0.00  0.00    +0.130 C 
ATOM     13  C   UNL     1      15.573  13.746  13.484  0.00  0.00    +0.116 C 
BRANCH  12   3
ATOM      3  O   UNL     1      13.992  14.372  11.751  0.00  0.00    -0.390 OA
ATOM     31  H   UNL     1      14.766  14.830  11.381  0.00  0.00    +0.210 HD
ENDBRANCH  12   3
BRANCH   7  14
ATOM     14  C   UNL     1      16.307  13.057  15.685  0.00  0.00    +0.120 C 
BRANCH  14  16
ATOM      1 CL   UNL     1      22.003  11.149  15.349  0.00  0.00    -0.084 Cl
ATOM     16  C   UNL     1      17.733  12.579  15.602  0.00  0.00    -0.033 A 
ATOM     18  C   UNL     1      18.126  11.736  14.562  0.00  0.00    +0.006 A 
ATOM     19  C   UNL     1      18.660  12.979  16.563  0.00  0.00    +0.006 A 
ATOM     21  C   UNL     1      19.446  11.292  14.485  0.00  0.00    +0.020 A 
ATOM     22  C   UNL     1      19.980  12.537  16.486  0.00  0.00    +0.020 A 
ATOM     24  C   UNL     1      20.373  11.693  15.447  0.00  0.00    +0.041 A 
ENDBRANCH  14  16
ENDBRANCH   7  14
ENDBRANCH  15  10
BRANCH  17  20
ATOM     20  C   UNL     1      14.265   7.881  16.727  0.00  0.00    +0.251 C 
BRANCH  20   2
ATOM      2  S   UNL     1      13.751   8.054  18.413  0.00  0.00    +0.004 S 
ATOM      5  O   UNL     1      12.843   6.961  18.708  0.00  0.00    -0.169 OA
ATOM      6  O   UNL     1      13.342   9.429  18.632  0.00  0.00    -0.169 OA
BRANCH   2  23
ATOM     23  C   UNL     1      15.235   7.800  19.337  0.00  0.00    +0.089 A 
ATOM     25  C   UNL     1      15.930   6.596  19.222  0.00  0.00    +0.027 A 
ATOM     26  C   UNL     1      15.711   8.802  20.182  0.00  0.00    +0.027 A 
ATOM     27  C   UNL     1      17.099   6.394  19.953  0.00  0.00    +0.005 A 
ATOM     28  C   UNL     1      16.882   8.600  20.913  0.00  0.00    +0.005 A 
ATOM     29  C   UNL     1      17.576   7.395  20.798  0.00  0.00    -0.050 A 
ATOM     30  C   UNL     1      18.828   7.178  21.580  0.00  0.00    +0.044 C 
ENDBRANCH   2  23
ENDBRANCH  20   2
ENDBRANCH  17  20
TORSDOF 7
ENDMDL
