MODEL 1
REMARK VINA RESULT:      -6.3      0.000      0.000
REMARK  Name = 75537103
REMARK  4 active torsions:
REMARK  status: ('A' for Active; 'I' for Inactive)
REMARK    1  A    between atoms: N_3  and  C_12
REMARK    2  A    between atoms: N_4  and  C_14
REMARK    3  A    between atoms: N_5  and  C_20
REMARK    4  A    between atoms: C_12  and  C_13
REMARK                            x       y       z     vdW  Elec       q    Type
REMARK                         _______ _______ _______ _____ _____    ______ ____
ROOT
ATOM      1  O   UNL     1      12.019   6.984  18.611  0.00  0.00    -0.252 OA
ATOM      2  N   UNL     1      14.096   7.354  19.644  0.00  0.00    -0.278 N 
ATOM      3  N   UNL     1      16.791   6.948  20.341  0.00  0.00    -0.295 NA
ATOM      4  N   UNL     1      12.237   7.567  20.885  0.00  0.00    -0.287 N 
ATOM      6  C   UNL     1      14.570   7.832  20.926  0.00  0.00    +0.109 C 
ATOM      7  C   UNL     1      15.760   6.998  21.398  0.00  0.00    +0.109 C 
ATOM      8  C   UNL     1      13.334   7.751  21.822  0.00  0.00    +0.132 C 
ATOM      9  C   UNL     1      15.049   7.127  18.577  0.00  0.00    +0.125 C 
ATOM     10  C   UNL     1      16.251   6.341  19.108  0.00  0.00    +0.104 C 
ATOM     11  C   UNL     1      12.699   7.270  19.587  0.00  0.00    +0.305 C 
ATOM     14  C   UNL     1      10.857   7.550  21.317  0.00  0.00    +0.133 C 
ENDROOT
BRANCH   3  12
ATOM     12  C   UNL     1      17.960   6.202  20.806  0.00  0.00    +0.121 C 
BRANCH  12  13
ATOM      5  N   UNL     1      20.418   8.882  21.366  0.00  0.00    -0.349 N 
ATOM     13  C   UNL     1      19.160   7.095  20.983  0.00  0.00    -0.008 A 
ATOM     15  C   UNL     1      20.525   6.711  20.865  0.00  0.00    +0.004 A 
ATOM     16  C   UNL     1      19.127   8.435  21.292  0.00  0.00    +0.091 A 
ATOM     17  C   UNL     1      21.294   7.851  21.110  0.00  0.00    +0.049 A 
ATOM     18  C   UNL     1      21.184   5.500  20.572  0.00  0.00    +0.010 A 
ATOM     19  C   UNL     1      22.692   7.842  21.077  0.00  0.00    +0.026 A 
ATOM     20  C   UNL     1      20.792  10.246  21.671  0.00  0.00    +0.149 C 
ATOM     21  C   UNL     1      22.582   5.475  20.535  0.00  0.00    +0.001 A 
ATOM     22  C   UNL     1      23.323   6.629  20.784  0.00  0.00    +0.002 A 
ENDBRANCH  12  13
ENDBRANCH   3  12
TORSDOF 2
ENDMDL
MODEL 2
REMARK VINA RESULT:      -6.0     29.052     31.537
REMARK  Name = 75537103
REMARK  4 active torsions:
REMARK  status: ('A' for Active; 'I' for Inactive)
REMARK    1  A    between atoms: N_3  and  C_12
REMARK    2  A    between atoms: N_4  and  C_14
REMARK    3  A    between atoms: N_5  and  C_20
REMARK    4  A    between atoms: C_12  and  C_13
REMARK                            x       y       z     vdW  Elec       q    Type
REMARK                         _______ _______ _______ _____ _____    ______ ____
ROOT
ATOM      1  O   UNL     1     -18.461   3.843  22.939  0.00  0.00    -0.252 OA
ATOM      2  N   UNL     1     -16.373   4.920  22.981  0.00  0.00    -0.278 N 
ATOM      3  N   UNL     1     -14.001   6.086  22.019  0.00  0.00    -0.295 NA
ATOM      4  N   UNL     1     -16.746   3.263  24.450  0.00  0.00    -0.287 N 
ATOM      6  C   UNL     1     -15.194   4.908  23.821  0.00  0.00    +0.109 C 
ATOM      7  C   UNL     1     -13.930   4.953  22.963  0.00  0.00    +0.109 C 
ATOM      8  C   UNL     1     -15.357   3.640  24.657  0.00  0.00    +0.132 C 
ATOM      9  C   UNL     1     -16.478   5.902  21.921  0.00  0.00    +0.125 C 
ATOM     10  C   UNL     1     -15.171   5.954  21.126  0.00  0.00    +0.104 C 
ATOM     11  C   UNL     1     -17.338   3.994  23.400  0.00  0.00    +0.305 C 
ATOM     14  C   UNL     1     -17.353   2.158  25.159  0.00  0.00    +0.133 C 
ENDROOT
BRANCH   3  12
ATOM     12  C   UNL     1     -12.770   6.174  21.235  0.00  0.00    +0.121 C 
BRANCH  12  13
ATOM      5  N   UNL     1     -12.277   9.809  20.946  0.00  0.00    -0.349 N 
ATOM     13  C   UNL     1     -12.438   7.597  20.870  0.00  0.00    -0.008 A 
ATOM     15  C   UNL     1     -11.752   8.033  19.702  0.00  0.00    +0.004 A 
ATOM     16  C   UNL     1     -12.747   8.711  21.615  0.00  0.00    +0.091 A 
ATOM     17  C   UNL     1     -11.664   9.425  19.774  0.00  0.00    +0.049 A 
ATOM     18  C   UNL     1     -11.196   7.376  18.586  0.00  0.00    +0.010 A 
ATOM     19  C   UNL     1     -11.046  10.196  18.784  0.00  0.00    +0.026 A 
ATOM     20  C   UNL     1     -12.411  11.170  21.417  0.00  0.00    +0.149 C 
ATOM     21  C   UNL     1     -10.574   8.134  17.587  0.00  0.00    +0.001 A 
ATOM     22  C   UNL     1     -10.501   9.522  17.687  0.00  0.00    +0.002 A 
ENDBRANCH  12  13
ENDBRANCH   3  12
TORSDOF 2
ENDMDL
MODEL 3
REMARK VINA RESULT:      -6.0      4.655      7.250
REMARK  Name = 75537103
REMARK  4 active torsions:
REMARK  status: ('A' for Active; 'I' for Inactive)
REMARK    1  A    between atoms: N_3  and  C_12
REMARK    2  A    between atoms: N_4  and  C_14
REMARK    3  A    between atoms: N_5  and  C_20
REMARK    4  A    between atoms: C_12  and  C_13
REMARK                            x       y       z     vdW  Elec       q    Type
REMARK                         _______ _______ _______ _____ _____    ______ ____
ROOT
ATOM      1  O   UNL     1      12.123  15.082  23.684  0.00  0.00    -0.252 OA
ATOM      2  N   UNL     1      12.246  12.784  23.213  0.00  0.00    -0.278 N 
ATOM      3  N   UNL     1      12.112  10.396  21.731  0.00  0.00    -0.295 NA
ATOM      4  N   UNL     1      11.253  13.427  25.121  0.00  0.00    -0.287 N 
ATOM      6  C   UNL     1      11.948  11.545  23.901  0.00  0.00    +0.109 C 
ATOM      7  C   UNL     1      11.288  10.552  22.947  0.00  0.00    +0.109 C 
ATOM      8  C   UNL     1      11.075  11.985  25.075  0.00  0.00    +0.132 C 
ATOM      9  C   UNL     1      12.924  12.737  21.933  0.00  0.00    +0.125 C 
ATOM     10  C   UNL     1      12.267  11.688  21.032  0.00  0.00    +0.104 C 
ATOM     11  C   UNL     1      11.907  13.912  23.970  0.00  0.00    +0.305 C 
ATOM     14  C   UNL     1      10.676  14.237  26.170  0.00  0.00    +0.133 C 
ENDROOT
BRANCH   3  12
ATOM     12  C   UNL     1      11.519   9.402  20.837  0.00  0.00    +0.121 C 
BRANCH  12  13
ATOM      5  N   UNL     1      13.620   8.246  18.047  0.00  0.00    -0.349 N 
ATOM     13  C   UNL     1      12.539   8.811  19.901  0.00  0.00    -0.008 A 
ATOM     15  C   UNL     1      13.683   8.048  20.268  0.00  0.00    +0.004 A 
ATOM     16  C   UNL     1      12.528   8.915  18.529  0.00  0.00    +0.091 A 
ATOM     17  C   UNL     1      14.344   7.706  19.086  0.00  0.00    +0.049 A 
ATOM     18  C   UNL     1      14.222   7.614  21.495  0.00  0.00    +0.010 A 
ATOM     19  C   UNL     1      15.520   6.949  19.069  0.00  0.00    +0.026 A 
ATOM     20  C   UNL     1      13.951   8.132  16.643  0.00  0.00    +0.149 C 
ATOM     21  C   UNL     1      15.398   6.856  21.495  0.00  0.00    +0.001 A 
ATOM     22  C   UNL     1      16.036   6.530  20.299  0.00  0.00    +0.002 A 
ENDBRANCH  12  13
ENDBRANCH   3  12
TORSDOF 2
ENDMDL
MODEL 4
REMARK VINA RESULT:      -5.9     32.831     34.516
REMARK  Name = 75537103
REMARK  4 active torsions:
REMARK  status: ('A' for Active; 'I' for Inactive)
REMARK    1  A    between atoms: N_3  and  C_12
REMARK    2  A    between atoms: N_4  and  C_14
REMARK    3  A    between atoms: N_5  and  C_20
REMARK    4  A    between atoms: C_12  and  C_13
REMARK                            x       y       z     vdW  Elec       q    Type
REMARK                         _______ _______ _______ _____ _____    ______ ____
ROOT
ATOM      1  O   UNL     1     -17.431   3.913  21.682  0.00  0.00    -0.252 OA
ATOM      2  N   UNL     1     -16.816   3.124  23.808  0.00  0.00    -0.278 N 
ATOM      3  N   UNL     1     -17.074   2.386  26.510  0.00  0.00    -0.295 NA
ATOM      4  N   UNL     1     -15.437   4.556  22.765  0.00  0.00    -0.287 N 
ATOM      6  C   UNL     1     -15.657   3.204  24.672  0.00  0.00    +0.109 C 
ATOM      7  C   UNL     1     -16.088   3.415  26.122  0.00  0.00    +0.109 C 
ATOM      8  C   UNL     1     -14.838   4.346  24.073  0.00  0.00    +0.132 C 
ATOM      9  C   UNL     1     -17.913   2.251  24.175  0.00  0.00    +0.125 C 
ATOM     10  C   UNL     1     -18.272   2.454  25.649  0.00  0.00    +0.104 C 
ATOM     11  C   UNL     1     -16.659   3.866  22.630  0.00  0.00    +0.305 C 
ATOM     14  C   UNL     1     -14.884   5.491  21.811  0.00  0.00    +0.133 C 
ENDROOT
BRANCH   3  12
ATOM     12  C   UNL     1     -17.448   2.543  27.915  0.00  0.00    +0.121 C 
BRANCH  12  13
ATOM      5  N   UNL     1     -14.749   0.948  29.842  0.00  0.00    -0.349 N 
ATOM     13  C   UNL     1     -16.330   2.141  28.841  0.00  0.00    -0.008 A 
ATOM     15  C   UNL     1     -15.728   2.952  29.844  0.00  0.00    +0.004 A 
ATOM     16  C   UNL     1     -15.707   0.915  28.865  0.00  0.00    +0.091 A 
ATOM     17  C   UNL     1     -14.739   2.179  30.457  0.00  0.00    +0.049 A 
ATOM     18  C   UNL     1     -15.929   4.273  30.290  0.00  0.00    +0.010 A 
ATOM     19  C   UNL     1     -13.939   2.663  31.498  0.00  0.00    +0.026 A 
ATOM     20  C   UNL     1     -13.880  -0.162  30.169  0.00  0.00    +0.149 C 
ATOM     21  C   UNL     1     -15.137   4.771  31.331  0.00  0.00    +0.001 A 
ATOM     22  C   UNL     1     -14.157   3.976  31.923  0.00  0.00    +0.002 A 
ENDBRANCH  12  13
ENDBRANCH   3  12
TORSDOF 2
ENDMDL
MODEL 5
REMARK VINA RESULT:      -5.9     17.108     19.611
REMARK  Name = 75537103
REMARK  4 active torsions:
REMARK  status: ('A' for Active; 'I' for Inactive)
REMARK    1  A    between atoms: N_3  and  C_12
REMARK    2  A    between atoms: N_4  and  C_14
REMARK    3  A    between atoms: N_5  and  C_20
REMARK    4  A    between atoms: C_12  and  C_13
REMARK                            x       y       z     vdW  Elec       q    Type
REMARK                         _______ _______ _______ _____ _____    ______ ____
ROOT
ATOM      1  O   UNL     1       9.374   9.010   5.601  0.00  0.00    -0.252 OA
ATOM      2  N   UNL     1      10.359   7.066   4.722  0.00  0.00    -0.278 N 
ATOM      3  N   UNL     1      10.973   5.043   2.867  0.00  0.00    -0.295 NA
ATOM      4  N   UNL     1       9.543   6.993   6.813  0.00  0.00    -0.287 N 
ATOM      6  C   UNL     1      10.732   5.755   5.210  0.00  0.00    +0.109 C 
ATOM      7  C   UNL     1      10.388   4.685   4.176  0.00  0.00    +0.109 C 
ATOM      8  C   UNL     1       9.978   5.634   6.534  0.00  0.00    +0.132 C 
ATOM      9  C   UNL     1      10.756   7.464   3.387  0.00  0.00    +0.125 C 
ATOM     10  C   UNL     1      10.448   6.340   2.394  0.00  0.00    +0.104 C 
ATOM     11  C   UNL     1       9.720   7.840   5.700  0.00  0.00    +0.305 C 
ATOM     14  C   UNL     1       8.877   7.346   8.046  0.00  0.00    +0.133 C 
ENDROOT
BRANCH   3  12
ATOM     12  C   UNL     1      10.700   3.994   1.884  0.00  0.00    +0.121 C 
BRANCH  12  13
ATOM      5  N   UNL     1      12.255   4.419  -1.424  0.00  0.00    -0.349 N 
ATOM     13  C   UNL     1      11.582   4.122   0.670  0.00  0.00    -0.008 A 
ATOM     15  C   UNL     1      12.999   4.000   0.637  0.00  0.00    +0.004 A 
ATOM     16  C   UNL     1      11.154   4.380  -0.612  0.00  0.00    +0.091 A 
ATOM     17  C   UNL     1      13.396   4.190  -0.689  0.00  0.00    +0.049 A 
ATOM     18  C   UNL     1      13.987   3.745   1.609  0.00  0.00    +0.010 A 
ATOM     19  C   UNL     1      14.735   4.139  -1.092  0.00  0.00    +0.026 A 
ATOM     20  C   UNL     1      12.208   4.667  -2.848  0.00  0.00    +0.149 C 
ATOM     21  C   UNL     1      15.330   3.689   1.221  0.00  0.00    +0.001 A 
ATOM     22  C   UNL     1      15.696   3.885  -0.110  0.00  0.00    +0.002 A 
ENDBRANCH  12  13
ENDBRANCH   3  12
TORSDOF 2
ENDMDL
MODEL 6
REMARK VINA RESULT:      -5.8      3.854      5.833
REMARK  Name = 75537103
REMARK  4 active torsions:
REMARK  status: ('A' for Active; 'I' for Inactive)
REMARK    1  A    between atoms: N_3  and  C_12
REMARK    2  A    between atoms: N_4  and  C_14
REMARK    3  A    between atoms: N_5  and  C_20
REMARK    4  A    between atoms: C_12  and  C_13
REMARK                            x       y       z     vdW  Elec       q    Type
REMARK                         _______ _______ _______ _____ _____    ______ ____
ROOT
ATOM      1  O   UNL     1      10.952  10.991  25.412  0.00  0.00    -0.252 OA
ATOM      2  N   UNL     1      11.131  10.843  23.074  0.00  0.00    -0.278 N 
ATOM      3  N   UNL     1      12.093  10.023  20.561  0.00  0.00    -0.295 NA
ATOM      4  N   UNL     1      10.872  12.875  23.995  0.00  0.00    -0.287 N 
ATOM      6  C   UNL     1      10.998  11.739  21.944  0.00  0.00    +0.109 C 
ATOM      7  C   UNL     1      12.088  11.458  20.911  0.00  0.00    +0.109 C 
ATOM      8  C   UNL     1      11.054  13.129  22.575  0.00  0.00    +0.132 C 
ATOM      9  C   UNL     1      11.292   9.423  22.837  0.00  0.00    +0.125 C 
ATOM     10  C   UNL     1      12.350   9.191  21.754  0.00  0.00    +0.104 C 
ATOM     11  C   UNL     1      10.977  11.503  24.300  0.00  0.00    +0.305 C 
ATOM     14  C   UNL     1      10.752  13.948  24.956  0.00  0.00    +0.133 C 
ENDROOT
BRANCH   3  12
ATOM     12  C   UNL     1      13.093   9.754  19.529  0.00  0.00    +0.121 C 
BRANCH  12  13
ATOM      5  N   UNL     1      16.370   9.975  21.188  0.00  0.00    -0.349 N 
ATOM     13  C   UNL     1      14.470   9.576  20.114  0.00  0.00    -0.008 A 
ATOM     15  C   UNL     1      15.282   8.411  20.026  0.00  0.00    +0.004 A 
ATOM     16  C   UNL     1      15.166  10.520  20.834  0.00  0.00    +0.091 A 
ATOM     17  C   UNL     1      16.470   8.688  20.709  0.00  0.00    +0.049 A 
ATOM     18  C   UNL     1      15.123   7.144  19.431  0.00  0.00    +0.010 A 
ATOM     19  C   UNL     1      17.508   7.759  20.825  0.00  0.00    +0.026 A 
ATOM     20  C   UNL     1      17.383  10.666  21.956  0.00  0.00    +0.149 C 
ATOM     21  C   UNL     1      16.153   6.204  19.540  0.00  0.00    +0.001 A 
ATOM     22  C   UNL     1      17.327   6.508  20.227  0.00  0.00    +0.002 A 
ENDBRANCH  12  13
ENDBRANCH   3  12
TORSDOF 2
ENDMDL
MODEL 7
REMARK VINA RESULT:      -5.8     29.329     31.298
REMARK  Name = 75537103
REMARK  4 active torsions:
REMARK  status: ('A' for Active; 'I' for Inactive)
REMARK    1  A    between atoms: N_3  and  C_12
REMARK    2  A    between atoms: N_4  and  C_14
REMARK    3  A    between atoms: N_5  and  C_20
REMARK    4  A    between atoms: C_12  and  C_13
REMARK                            x       y       z     vdW  Elec       q    Type
REMARK                         _______ _______ _______ _____ _____    ______ ____
ROOT
ATOM      1  O   UNL     1     -13.650  -8.725  13.706  0.00  0.00    -0.252 OA
ATOM      2  N   UNL     1     -11.514  -8.342  14.606  0.00  0.00    -0.278 N 
ATOM      3  N   UNL     1      -9.209  -8.756  16.165  0.00  0.00    -0.295 NA
ATOM      4  N   UNL     1     -12.926  -6.604  14.442  0.00  0.00    -0.287 N 
ATOM      6  C   UNL     1     -10.728  -7.197  15.016  0.00  0.00    +0.109 C 
ATOM      7  C   UNL     1      -9.978  -7.503  16.311  0.00  0.00    +0.109 C 
ATOM      8  C   UNL     1     -11.756  -6.072  15.120  0.00  0.00    +0.132 C 
ATOM      9  C   UNL     1     -10.893  -9.651  14.570  0.00  0.00    +0.125 C 
ATOM     10  C   UNL     1     -10.105  -9.891  15.860  0.00  0.00    +0.104 C 
ATOM     11  C   UNL     1     -12.802  -7.985  14.186  0.00  0.00    +0.305 C 
ATOM     14  C   UNL     1     -14.110  -5.805  14.216  0.00  0.00    +0.133 C 
ENDROOT
BRANCH   3  12
ATOM     12  C   UNL     1      -8.440  -9.027  17.379  0.00  0.00    +0.121 C 
BRANCH  12  13
ATOM      5  N   UNL     1      -5.312 -10.369  15.980  0.00  0.00    -0.349 N 
ATOM     13  C   UNL     1      -7.117  -9.677  17.071  0.00  0.00    -0.008 A 
ATOM     15  C   UNL     1      -6.296 -10.399  17.982  0.00  0.00    +0.004 A 
ATOM     16  C   UNL     1      -6.485  -9.676  15.848  0.00  0.00    +0.091 A 
ATOM     17  C   UNL     1      -5.170 -10.822  17.272  0.00  0.00    +0.049 A 
ATOM     18  C   UNL     1      -6.402 -10.734  19.346  0.00  0.00    +0.010 A 
ATOM     19  C   UNL     1      -4.142 -11.566  17.860  0.00  0.00    +0.026 A 
ATOM     20  C   UNL     1      -4.368 -10.585  14.905  0.00  0.00    +0.149 C 
ATOM     21  C   UNL     1      -5.382 -11.478  19.948  0.00  0.00    +0.001 A 
ATOM     22  C   UNL     1      -4.269 -11.887  19.215  0.00  0.00    +0.002 A 
ENDBRANCH  12  13
ENDBRANCH   3  12
TORSDOF 2
ENDMDL
MODEL 8
REMARK VINA RESULT:      -5.8     16.918     20.145
REMARK  Name = 75537103
REMARK  4 active torsions:
REMARK  status: ('A' for Active; 'I' for Inactive)
REMARK    1  A    between atoms: N_3  and  C_12
REMARK    2  A    between atoms: N_4  and  C_14
REMARK    3  A    between atoms: N_5  and  C_20
REMARK    4  A    between atoms: C_12  and  C_13
REMARK                            x       y       z     vdW  Elec       q    Type
REMARK                         _______ _______ _______ _____ _____    ______ ____
ROOT
ATOM      1  O   UNL     1      16.503   3.616  -0.199  0.00  0.00    -0.252 OA
ATOM      2  N   UNL     1      14.767   4.520   1.102  0.00  0.00    -0.278 N 
ATOM      3  N   UNL     1      12.208   4.800   2.235  0.00  0.00    -0.295 NA
ATOM      4  N   UNL     1      16.045   5.927  -0.093  0.00  0.00    -0.287 N 
ATOM      6  C   UNL     1      14.309   5.839   1.485  0.00  0.00    +0.109 C 
ATOM      7  C   UNL     1      12.783   5.905   1.442  0.00  0.00    +0.109 C 
ATOM      8  C   UNL     1      15.020   6.769   0.504  0.00  0.00    +0.132 C 
ATOM      9  C   UNL     1      14.162   3.354   1.714  0.00  0.00    +0.125 C 
ATOM     10  C   UNL     1      12.637   3.491   1.702  0.00  0.00    +0.104 C 
ATOM     11  C   UNL     1      15.856   4.566   0.222  0.00  0.00    +0.305 C 
ATOM     14  C   UNL     1      17.028   6.454  -1.013  0.00  0.00    +0.133 C 
ENDROOT
BRANCH   3  12
ATOM     12  C   UNL     1      10.748   4.890   2.250  0.00  0.00    +0.121 C 
BRANCH  12  13
ATOM      5  N   UNL     1       9.804   5.430   5.765  0.00  0.00    -0.349 N 
ATOM     13  C   UNL     1      10.228   5.343   3.588  0.00  0.00    -0.008 A 
ATOM     15  C   UNL     1       9.437   6.499   3.841  0.00  0.00    +0.004 A 
ATOM     16  C   UNL     1      10.437   4.707   4.790  0.00  0.00    +0.091 A 
ATOM     17  C   UNL     1       9.185   6.530   5.215  0.00  0.00    +0.049 A 
ATOM     18  C   UNL     1       8.909   7.524   3.032  0.00  0.00    +0.010 A 
ATOM     19  C   UNL     1       8.429   7.539   5.822  0.00  0.00    +0.026 A 
ATOM     20  C   UNL     1       9.798   5.076   7.167  0.00  0.00    +0.149 C 
ATOM     21  C   UNL     1       8.151   8.540   3.625  0.00  0.00    +0.001 A 
ATOM     22  C   UNL     1       7.916   8.545   4.999  0.00  0.00    +0.002 A 
ENDBRANCH  12  13
ENDBRANCH   3  12
TORSDOF 2
ENDMDL
MODEL 9
REMARK VINA RESULT:      -5.7      4.437      6.487
REMARK  Name = 75537103
REMARK  4 active torsions:
REMARK  status: ('A' for Active; 'I' for Inactive)
REMARK    1  A    between atoms: N_3  and  C_12
REMARK    2  A    between atoms: N_4  and  C_14
REMARK    3  A    between atoms: N_5  and  C_20
REMARK    4  A    between atoms: C_12  and  C_13
REMARK                            x       y       z     vdW  Elec       q    Type
REMARK                         _______ _______ _______ _____ _____    ______ ____
ROOT
ATOM      1  O   UNL     1      13.285  12.878  26.600  0.00  0.00    -0.252 OA
ATOM      2  N   UNL     1      13.340  11.814  24.506  0.00  0.00    -0.278 N 
ATOM      3  N   UNL     1      14.329  10.991  22.004  0.00  0.00    -0.295 NA
ATOM      4  N   UNL     1      11.466  12.900  25.099  0.00  0.00    -0.287 N 
ATOM      6  C   UNL     1      12.403  11.529  23.440  0.00  0.00    +0.109 C 
ATOM      7  C   UNL     1      13.062  11.748  22.079  0.00  0.00    +0.109 C 
ATOM      8  C   UNL     1      11.223  12.453  23.737  0.00  0.00    +0.132 C 
ATOM      9  C   UNL     1      14.668  11.238  24.454  0.00  0.00    +0.125 C 
ATOM     10  C   UNL     1      15.266  11.429  23.058  0.00  0.00    +0.104 C 
ATOM     11  C   UNL     1      12.763  12.566  25.538  0.00  0.00    +0.305 C 
ATOM     14  C   UNL     1      10.515  13.719  25.817  0.00  0.00    +0.133 C 
ENDROOT
BRANCH   3  12
ATOM     12  C   UNL     1      14.938  11.146  20.684  0.00  0.00    +0.121 C 
BRANCH  12  13
ATOM      5  N   UNL     1      14.607   8.228  18.467  0.00  0.00    -0.349 N 
ATOM     13  C   UNL     1      15.007   9.838  19.941  0.00  0.00    -0.008 A 
ATOM     15  C   UNL     1      15.865   8.742  20.237  0.00  0.00    +0.004 A 
ATOM     16  C   UNL     1      14.246   9.492  18.849  0.00  0.00    +0.091 A 
ATOM     17  C   UNL     1      15.593   7.745  19.297  0.00  0.00    +0.049 A 
ATOM     18  C   UNL     1      16.850   8.500  21.215  0.00  0.00    +0.010 A 
ATOM     19  C   UNL     1      16.259   6.514  19.287  0.00  0.00    +0.026 A 
ATOM     20  C   UNL     1      14.024   7.517  17.350  0.00  0.00    +0.149 C 
ATOM     21  C   UNL     1      17.524   7.274  21.218  0.00  0.00    +0.001 A 
ATOM     22  C   UNL     1      17.232   6.298  20.267  0.00  0.00    +0.002 A 
ENDBRANCH  12  13
ENDBRANCH   3  12
TORSDOF 2
ENDMDL
MODEL 10
REMARK VINA RESULT:      -5.7     29.213     30.525
REMARK  Name = 75537103
REMARK  4 active torsions:
REMARK  status: ('A' for Active; 'I' for Inactive)
REMARK    1  A    between atoms: N_3  and  C_12
REMARK    2  A    between atoms: N_4  and  C_14
REMARK    3  A    between atoms: N_5  and  C_20
REMARK    4  A    between atoms: C_12  and  C_13
REMARK                            x       y       z     vdW  Elec       q    Type
REMARK                         _______ _______ _______ _____ _____    ______ ____
ROOT
ATOM      1  O   UNL     1      -3.628 -16.289  11.459  0.00  0.00    -0.252 OA
ATOM      2  N   UNL     1      -3.406 -14.743  13.214  0.00  0.00    -0.278 N 
ATOM      3  N   UNL     1      -3.784 -12.382  14.697  0.00  0.00    -0.295 NA
ATOM      4  N   UNL     1      -1.555 -15.760  12.452  0.00  0.00    -0.287 N 
ATOM      6  C   UNL     1      -2.355 -14.297  14.104  0.00  0.00    +0.109 C 
ATOM      7  C   UNL     1      -2.421 -12.782  14.288  0.00  0.00    +0.109 C 
ATOM      8  C   UNL     1      -1.077 -14.807  13.441  0.00  0.00    +0.132 C 
ATOM      9  C   UNL     1      -4.764 -14.289  13.437  0.00  0.00    +0.125 C 
ATOM     10  C   UNL     1      -4.776 -12.776  13.675  0.00  0.00    +0.104 C 
ATOM     11  C   UNL     1      -2.951 -15.678  12.275  0.00  0.00    +0.305 C 
ATOM     14  C   UNL     1      -0.649 -16.565  11.663  0.00  0.00    +0.133 C 
ENDROOT
BRANCH   3  12
ATOM     12  C   UNL     1      -3.843 -10.941  14.934  0.00  0.00    +0.121 C 
BRANCH  12  13
ATOM      5  N   UNL     1      -6.794  -9.730  16.769  0.00  0.00    -0.349 N 
ATOM     13  C   UNL     1      -4.931 -10.577  15.909  0.00  0.00    -0.008 A 
ATOM     15  C   UNL     1      -4.984 -10.928  17.287  0.00  0.00    +0.004 A 
ATOM     16  C   UNL     1      -6.057  -9.841  15.620  0.00  0.00    +0.091 A 
ATOM     17  C   UNL     1      -6.163 -10.384  17.803  0.00  0.00    +0.049 A 
ATOM     18  C   UNL     1      -4.141 -11.657  18.149  0.00  0.00    +0.010 A 
ATOM     19  C   UNL     1      -6.542 -10.534  19.141  0.00  0.00    +0.026 A 
ATOM     20  C   UNL     1      -8.053  -9.024  16.864  0.00  0.00    +0.149 C 
ATOM     21  C   UNL     1      -4.506 -11.815  19.490  0.00  0.00    +0.001 A 
ATOM     22  C   UNL     1      -5.690 -11.262  19.976  0.00  0.00    +0.002 A 
ENDBRANCH  12  13
ENDBRANCH   3  12
TORSDOF 2
ENDMDL
