MODEL 1
REMARK VINA RESULT:      -6.9      0.000      0.000
REMARK  Name = 45360953
REMARK  8 active torsions:
REMARK  status: ('A' for Active; 'I' for Inactive)
REMARK    1  A    between atoms: N_4  and  C_17
REMARK    2  A    between atoms: N_5  and  C_15
REMARK    3  A    between atoms: N_7  and  C_24
REMARK    4  A    between atoms: C_12  and  C_16
REMARK    5  A    between atoms: C_15  and  C_19
REMARK    6  A    between atoms: C_16  and  C_18
REMARK    7  A    between atoms: C_18  and  C_20
REMARK    8  A    between atoms: C_24  and  C_25
REMARK                            x       y       z     vdW  Elec       q    Type
REMARK                         _______ _______ _______ _____ _____    ______ ____
ROOT
ATOM      2  O   UNL     1     -12.861   5.015  22.373  0.00  0.00    -0.274 OA
ATOM      4  N   UNL     1     -16.673   4.445  22.005  0.00  0.00    -0.296 NA
ATOM      5  N   UNL     1     -14.231   7.074  21.286  0.00  0.00    -0.285 NA
ATOM      6  N   UNL     1     -14.487   4.468  23.887  0.00  0.00    -0.312 N 
ATOM      8  C   UNL     1     -16.268   5.851  21.782  0.00  0.00    +0.084 C 
ATOM      9  C   UNL     1     -14.908   6.332  22.367  0.00  0.00    +0.161 C 
ATOM     10  C   UNL     1     -16.131   6.233  20.296  0.00  0.00    +0.036 C 
ATOM     11  C   UNL     1     -15.258   7.469  20.330  0.00  0.00    +0.087 C 
ATOM     12  C   UNL     1     -16.893   4.087  23.434  0.00  0.00    +0.074 C 
ATOM     13  C   UNL     1     -13.980   5.218  22.844  0.00  0.00    +0.232 C 
ATOM     14  C   UNL     1     -15.830   4.630  24.410  0.00  0.00    +0.123 C 
ATOM     17  C   UNL     1     -17.865   4.110  21.207  0.00  0.00    +0.105 C 
ATOM     31  H   UNL     1     -13.909   3.725  24.267  0.00  0.00    +0.149 HD
ENDROOT
BRANCH   5  15
ATOM     15  C   UNL     1     -13.459   8.213  21.764  0.00  0.00    +0.127 C 
BRANCH  15  19
ATOM      1  S   UNL     1     -12.037  10.264  20.544  0.00  0.00    -0.100 S 
ATOM     19  C   UNL     1     -12.379   8.606  20.798  0.00  0.00    +0.004 A 
ATOM     21  C   UNL     1     -11.571   7.789  20.038  0.00  0.00    +0.012 A 
ATOM     22  C   UNL     1     -10.659   8.534  19.237  0.00  0.00    +0.008 A 
ATOM     23  C   UNL     1     -10.805   9.892  19.414  0.00  0.00    +0.045 A 
ENDBRANCH  15  19
ENDBRANCH   5  15
BRANCH  12  16
ATOM     16  C   UNL     1     -16.939   2.553  23.605  0.00  0.00    +0.029 C 
BRANCH  16  18
ATOM     18  C   UNL     1     -17.921   2.165  24.694  0.00  0.00    +0.097 C 
BRANCH  18  20
ATOM      3  O   UNL     1     -16.560   0.282  25.377  0.00  0.00    -0.276 OA
ATOM      7  N   UNL     1     -17.665   1.525  26.998  0.00  0.00    -0.311 N 
ATOM     20  C   UNL     1     -17.296   1.211  25.697  0.00  0.00    +0.213 C 
ATOM     32  H   UNL     1     -18.281   2.317  27.158  0.00  0.00    +0.149 HD
BRANCH   7  24
ATOM     24  C   UNL     1     -17.201   0.765  28.134  0.00  0.00    +0.139 C 
BRANCH  24  25
ATOM     25  C   UNL     1     -16.094   1.468  28.867  0.00  0.00    -0.030 A 
ATOM     26  C   UNL     1     -15.144   0.729  29.570  0.00  0.00    +0.005 A 
ATOM     27  C   UNL     1     -16.016   2.861  28.842  0.00  0.00    +0.005 A 
ATOM     28  C   UNL     1     -14.116   1.382  30.250  0.00  0.00    +0.000 A 
ATOM     29  C   UNL     1     -14.988   3.513  29.522  0.00  0.00    +0.000 A 
ATOM     30  C   UNL     1     -14.037   2.774  30.227  0.00  0.00    +0.000 A 
ENDBRANCH  24  25
ENDBRANCH   7  24
ENDBRANCH  18  20
ENDBRANCH  16  18
ENDBRANCH  12  16
TORSDOF 7
ENDMDL
MODEL 2
REMARK VINA RESULT:      -6.7     18.856     21.174
REMARK  Name = 45360953
REMARK  8 active torsions:
REMARK  status: ('A' for Active; 'I' for Inactive)
REMARK    1  A    between atoms: N_4  and  C_17
REMARK    2  A    between atoms: N_5  and  C_15
REMARK    3  A    between atoms: N_7  and  C_24
REMARK    4  A    between atoms: C_12  and  C_16
REMARK    5  A    between atoms: C_15  and  C_19
REMARK    6  A    between atoms: C_16  and  C_18
REMARK    7  A    between atoms: C_18  and  C_20
REMARK    8  A    between atoms: C_24  and  C_25
REMARK                            x       y       z     vdW  Elec       q    Type
REMARK                         _______ _______ _______ _____ _____    ______ ____
ROOT
ATOM      2  O   UNL     1      -8.688 -11.196  15.632  0.00  0.00    -0.274 OA
ATOM      4  N   UNL     1      -5.572 -11.465  17.914  0.00  0.00    -0.296 NA
ATOM      5  N   UNL     1      -9.131 -10.682  18.246  0.00  0.00    -0.285 NA
ATOM      6  N   UNL     1      -6.643 -10.171  15.569  0.00  0.00    -0.312 N 
ATOM      8  C   UNL     1      -6.731 -10.832  18.581  0.00  0.00    +0.084 C 
ATOM      9  C   UNL     1      -7.848 -10.209  17.693  0.00  0.00    +0.161 C 
ATOM     10  C   UNL     1      -7.535 -11.790  19.480  0.00  0.00    +0.036 C 
ATOM     11  C   UNL     1      -8.876 -11.102  19.619  0.00  0.00    +0.087 C 
ATOM     12  C   UNL     1      -4.737 -10.528  17.110  0.00  0.00    +0.074 C 
ATOM     13  C   UNL     1      -7.789 -10.593  16.216  0.00  0.00    +0.232 C 
ATOM     14  C   UNL     1      -5.532  -9.530  16.245  0.00  0.00    +0.123 C 
ATOM     17  C   UNL     1      -4.734 -12.184  18.890  0.00  0.00    +0.105 C 
ATOM     31  H   UNL     1      -6.552 -10.374  14.579  0.00  0.00    +0.149 HD
ENDROOT
BRANCH   5  15
ATOM     15  C   UNL     1     -10.195  -9.690  18.166  0.00  0.00    +0.127 C 
BRANCH  15  19
ATOM      1  S   UNL     1     -12.304 -11.479  17.898  0.00  0.00    -0.100 S 
ATOM     19  C   UNL     1     -11.492 -10.211  18.714  0.00  0.00    +0.004 A 
ATOM     21  C   UNL     1     -12.172  -9.802  19.840  0.00  0.00    +0.012 A 
ATOM     22  C   UNL     1     -13.376 -10.539  20.035  0.00  0.00    +0.008 A 
ATOM     23  C   UNL     1     -13.569 -11.484  19.051  0.00  0.00    +0.045 A 
ENDBRANCH  15  19
ENDBRANCH   5  15
BRANCH  12  16
ATOM     16  C   UNL     1      -3.799 -11.313  16.169  0.00  0.00    +0.029 C 
BRANCH  16  18
ATOM     18  C   UNL     1      -2.396 -10.740  16.209  0.00  0.00    +0.097 C 
BRANCH  18  20
ATOM      3  O   UNL     1      -1.053  -9.538  14.591  0.00  0.00    -0.276 OA
ATOM      7  N   UNL     1      -2.470 -11.223  13.855  0.00  0.00    -0.311 N 
ATOM     20  C   UNL     1      -1.883 -10.414  14.817  0.00  0.00    +0.213 C 
ATOM     32  H   UNL     1      -3.149 -11.922  14.145  0.00  0.00    +0.149 HD
BRANCH   7  24
ATOM     24  C   UNL     1      -2.148 -11.109  12.452  0.00  0.00    +0.139 C 
BRANCH  24  25
ATOM     25  C   UNL     1      -3.151 -10.270  11.712  0.00  0.00    -0.030 A 
ATOM     26  C   UNL     1      -2.794  -9.655  10.513  0.00  0.00    +0.005 A 
ATOM     27  C   UNL     1      -4.439 -10.109  12.223  0.00  0.00    +0.005 A 
ATOM     28  C   UNL     1      -3.726  -8.876   9.825  0.00  0.00    +0.000 A 
ATOM     29  C   UNL     1      -5.369  -9.331  11.535  0.00  0.00    +0.000 A 
ATOM     30  C   UNL     1      -5.013  -8.714  10.335  0.00  0.00    +0.000 A 
ENDBRANCH  24  25
ENDBRANCH   7  24
ENDBRANCH  18  20
ENDBRANCH  16  18
ENDBRANCH  12  16
TORSDOF 7
ENDMDL
MODEL 3
REMARK VINA RESULT:      -6.7     19.399     20.351
REMARK  Name = 45360953
REMARK  8 active torsions:
REMARK  status: ('A' for Active; 'I' for Inactive)
REMARK    1  A    between atoms: N_4  and  C_17
REMARK    2  A    between atoms: N_5  and  C_15
REMARK    3  A    between atoms: N_7  and  C_24
REMARK    4  A    between atoms: C_12  and  C_16
REMARK    5  A    between atoms: C_15  and  C_19
REMARK    6  A    between atoms: C_16  and  C_18
REMARK    7  A    between atoms: C_18  and  C_20
REMARK    8  A    between atoms: C_24  and  C_25
REMARK                            x       y       z     vdW  Elec       q    Type
REMARK                         _______ _______ _______ _____ _____    ______ ____
ROOT
ATOM      2  O   UNL     1      -5.994  -9.472  13.481  0.00  0.00    -0.274 OA
ATOM      4  N   UNL     1      -3.099 -10.836  15.659  0.00  0.00    -0.296 NA
ATOM      5  N   UNL     1      -3.938 -10.560  12.108  0.00  0.00    -0.285 NA
ATOM      6  N   UNL     1      -5.938 -11.006  15.178  0.00  0.00    -0.312 N 
ATOM      8  C   UNL     1      -3.008 -11.250  14.241  0.00  0.00    +0.084 C 
ATOM      9  C   UNL     1      -4.302 -11.219  13.376  0.00  0.00    +0.161 C 
ATOM     10  C   UNL     1      -2.041 -10.396  13.401  0.00  0.00    +0.036 C 
ATOM     11  C   UNL     1      -2.489 -10.653  11.978  0.00  0.00    +0.087 C 
ATOM     12  C   UNL     1      -3.965 -11.707  16.502  0.00  0.00    +0.074 C 
ATOM     13  C   UNL     1      -5.475 -10.461  13.995  0.00  0.00    +0.232 C 
ATOM     14  C   UNL     1      -5.298 -12.121  15.849  0.00  0.00    +0.123 C 
ATOM     17  C   UNL     1      -1.757 -10.720  16.257  0.00  0.00    +0.105 C 
ATOM     31  H   UNL     1      -6.732 -10.563  15.629  0.00  0.00    +0.149 HD
ENDROOT
BRANCH   5  15
ATOM     15  C   UNL     1      -4.629 -11.113  10.951  0.00  0.00    +0.127 C 
BRANCH  15  19
ATOM      1  S   UNL     1      -7.194 -10.401  10.154  0.00  0.00    -0.100 S 
ATOM     19  C   UNL     1      -5.514 -10.098  10.286  0.00  0.00    +0.004 A 
ATOM     21  C   UNL     1      -5.162  -8.887   9.732  0.00  0.00    +0.012 A 
ATOM     22  C   UNL     1      -6.287  -8.199   9.191  0.00  0.00    +0.008 A 
ATOM     23  C   UNL     1      -7.455  -8.911   9.353  0.00  0.00    +0.045 A 
ENDBRANCH  15  19
ENDBRANCH   5  15
BRANCH  12  16
ATOM     16  C   UNL     1      -4.299 -11.008  17.836  0.00  0.00    +0.029 C 
BRANCH  16  18
ATOM     18  C   UNL     1      -4.607 -12.029  18.915  0.00  0.00    +0.097 C 
BRANCH  18  20
ATOM      3  O   UNL     1      -5.896 -11.270  20.819  0.00  0.00    -0.276 OA
ATOM      7  N   UNL     1      -7.008 -11.901  18.880  0.00  0.00    -0.311 N 
ATOM     20  C   UNL     1      -5.883 -11.685  19.663  0.00  0.00    +0.213 C 
ATOM     32  H   UNL     1      -6.890 -12.247  17.933  0.00  0.00    +0.149 HD
BRANCH   7  24
ATOM     24  C   UNL     1      -8.344 -11.649  19.366  0.00  0.00    +0.139 C 
BRANCH  24  25
ATOM     25  C   UNL     1      -9.004 -10.516  18.634  0.00  0.00    -0.030 A 
ATOM     26  C   UNL     1      -8.282  -9.776  17.699  0.00  0.00    +0.005 A 
ATOM     27  C   UNL     1     -10.341 -10.206  18.887  0.00  0.00    +0.005 A 
ATOM     28  C   UNL     1      -8.896  -8.724  17.017  0.00  0.00    +0.000 A 
ATOM     29  C   UNL     1     -10.954  -9.155  18.207  0.00  0.00    +0.000 A 
ATOM     30  C   UNL     1     -10.231  -8.413  17.271  0.00  0.00    +0.000 A 
ENDBRANCH  24  25
ENDBRANCH   7  24
ENDBRANCH  18  20
ENDBRANCH  16  18
ENDBRANCH  12  16
TORSDOF 7
ENDMDL
MODEL 4
REMARK VINA RESULT:      -6.7     27.619     31.714
REMARK  Name = 45360953
REMARK  8 active torsions:
REMARK  status: ('A' for Active; 'I' for Inactive)
REMARK    1  A    between atoms: N_4  and  C_17
REMARK    2  A    between atoms: N_5  and  C_15
REMARK    3  A    between atoms: N_7  and  C_24
REMARK    4  A    between atoms: C_12  and  C_16
REMARK    5  A    between atoms: C_15  and  C_19
REMARK    6  A    between atoms: C_16  and  C_18
REMARK    7  A    between atoms: C_18  and  C_20
REMARK    8  A    between atoms: C_24  and  C_25
REMARK                            x       y       z     vdW  Elec       q    Type
REMARK                         _______ _______ _______ _____ _____    ______ ____
ROOT
ATOM      2  O   UNL     1      14.104  10.849  22.258  0.00  0.00    -0.274 OA
ATOM      4  N   UNL     1      13.849   7.876  19.791  0.00  0.00    -0.296 NA
ATOM      5  N   UNL     1      11.644   9.759  22.023  0.00  0.00    -0.285 NA
ATOM      6  N   UNL     1      15.220   8.856  22.133  0.00  0.00    -0.312 N 
ATOM      8  C   UNL     1      12.648   8.035  20.640  0.00  0.00    +0.084 C 
ATOM      9  C   UNL     1      12.783   8.824  21.976  0.00  0.00    +0.161 C 
ATOM     10  C   UNL     1      11.487   8.774  19.949  0.00  0.00    +0.036 C 
ATOM     11  C   UNL     1      10.633   9.249  21.105  0.00  0.00    +0.087 C 
ATOM     12  C   UNL     1      14.947   7.088  20.419  0.00  0.00    +0.074 C 
ATOM     13  C   UNL     1      14.074   9.627  22.124  0.00  0.00    +0.232 C 
ATOM     14  C   UNL     1      15.224   7.425  21.897  0.00  0.00    +0.123 C 
ATOM     17  C   UNL     1      13.493   7.302  18.482  0.00  0.00    +0.105 C 
ATOM     31  H   UNL     1      16.111   9.326  22.252  0.00  0.00    +0.149 HD
ENDROOT
BRANCH   5  15
ATOM     15  C   UNL     1      11.114   9.957  23.366  0.00  0.00    +0.127 C 
BRANCH  15  19
ATOM      1  S   UNL     1      11.100  12.592  22.484  0.00  0.00    -0.100 S 
ATOM     19  C   UNL     1      11.014  11.412  23.722  0.00  0.00    +0.004 A 
ATOM     21  C   UNL     1      10.855  11.980  24.967  0.00  0.00    +0.012 A 
ATOM     22  C   UNL     1      10.803  13.403  24.903  0.00  0.00    +0.008 A 
ATOM     23  C   UNL     1      10.924  13.867  23.612  0.00  0.00    +0.045 A 
ENDBRANCH  15  19
ENDBRANCH   5  15
BRANCH  12  16
ATOM     16  C   UNL     1      16.266   7.288  19.642  0.00  0.00    +0.029 C 
BRANCH  16  18
ATOM     18  C   UNL     1      17.259   6.193  19.982  0.00  0.00    +0.097 C 
BRANCH  18  20
ATOM      3  O   UNL     1      18.599   7.759  21.253  0.00  0.00    -0.276 OA
ATOM      7  N   UNL     1      19.653   6.021  20.131  0.00  0.00    -0.311 N 
ATOM     20  C   UNL     1      18.553   6.762  20.537  0.00  0.00    +0.213 C 
ATOM     32  H   UNL     1      19.509   5.210  19.536  0.00  0.00    +0.149 HD
BRANCH   7  24
ATOM     24  C   UNL     1      20.999   6.361  20.527  0.00  0.00    +0.139 C 
BRANCH  24  25
ATOM     25  C   UNL     1      21.563   5.375  21.509  0.00  0.00    -0.030 A 
ATOM     26  C   UNL     1      21.948   5.800  22.780  0.00  0.00    +0.005 A 
ATOM     27  C   UNL     1      21.699   4.033  21.152  0.00  0.00    +0.005 A 
ATOM     28  C   UNL     1      22.470   4.884  23.694  0.00  0.00    +0.000 A 
ATOM     29  C   UNL     1      22.221   3.118  22.065  0.00  0.00    +0.000 A 
ATOM     30  C   UNL     1      22.607   3.544  23.337  0.00  0.00    +0.000 A 
ENDBRANCH  24  25
ENDBRANCH   7  24
ENDBRANCH  18  20
ENDBRANCH  16  18
ENDBRANCH  12  16
TORSDOF 7
ENDMDL
MODEL 5
REMARK VINA RESULT:      -6.7     18.505     20.474
REMARK  Name = 45360953
REMARK  8 active torsions:
REMARK  status: ('A' for Active; 'I' for Inactive)
REMARK    1  A    between atoms: N_4  and  C_17
REMARK    2  A    between atoms: N_5  and  C_15
REMARK    3  A    between atoms: N_7  and  C_24
REMARK    4  A    between atoms: C_12  and  C_16
REMARK    5  A    between atoms: C_15  and  C_19
REMARK    6  A    between atoms: C_16  and  C_18
REMARK    7  A    between atoms: C_18  and  C_20
REMARK    8  A    between atoms: C_24  and  C_25
REMARK                            x       y       z     vdW  Elec       q    Type
REMARK                         _______ _______ _______ _____ _____    ______ ____
ROOT
ATOM      2  O   UNL     1      -8.538  -9.564  14.905  0.00  0.00    -0.274 OA
ATOM      4  N   UNL     1      -6.679 -11.510  17.689  0.00  0.00    -0.296 NA
ATOM      5  N   UNL     1      -9.542  -9.250  17.393  0.00  0.00    -0.285 NA
ATOM      6  N   UNL     1      -6.349  -9.578  15.572  0.00  0.00    -0.312 N 
ATOM      8  C   UNL     1      -7.639 -10.513  18.214  0.00  0.00    +0.084 C 
ATOM      9  C   UNL     1      -8.074  -9.342  17.284  0.00  0.00    +0.161 C 
ATOM     10  C   UNL     1      -8.995 -11.111  18.631  0.00  0.00    +0.036 C 
ATOM     11  C   UNL     1      -9.922  -9.914  18.634  0.00  0.00    +0.087 C 
ATOM     12  C   UNL     1      -5.335 -10.957  17.362  0.00  0.00    +0.074 C 
ATOM     13  C   UNL     1      -7.708  -9.516  15.812  0.00  0.00    +0.232 C 
ATOM     14  C   UNL     1      -5.351  -9.605  16.624  0.00  0.00    +0.123 C 
ATOM     17  C   UNL     1      -6.551 -12.650  18.613  0.00  0.00    +0.105 C 
ATOM     31  H   UNL     1      -6.038  -9.670  14.610  0.00  0.00    +0.149 HD
ENDROOT
BRANCH   5  15
ATOM     15  C   UNL     1     -10.041  -7.882  17.328  0.00  0.00    +0.127 C 
BRANCH  15  19
ATOM      1  S   UNL     1     -11.382  -6.167  15.603  0.00  0.00    -0.100 S 
ATOM     19  C   UNL     1     -11.093  -7.717  16.270  0.00  0.00    +0.004 A 
ATOM     21  C   UNL     1     -11.912  -8.678  15.719  0.00  0.00    +0.012 A 
ATOM     22  C   UNL     1     -12.789  -8.133  14.736  0.00  0.00    +0.008 A 
ATOM     23  C   UNL     1     -12.606  -6.778  14.574  0.00  0.00    +0.045 A 
ENDBRANCH  15  19
ENDBRANCH   5  15
BRANCH  12  16
ATOM     16  C   UNL     1      -4.540 -11.953  16.490  0.00  0.00    +0.029 C 
BRANCH  16  18
ATOM     18  C   UNL     1      -3.199 -11.366  16.093  0.00  0.00    +0.097 C 
BRANCH  18  20
ATOM      3  O   UNL     1      -2.648 -12.900  14.302  0.00  0.00    -0.276 OA
ATOM      7  N   UNL     1      -2.706 -10.620  13.860  0.00  0.00    -0.311 N 
ATOM     20  C   UNL     1      -2.823 -11.741  14.670  0.00  0.00    +0.213 C 
ATOM     32  H   UNL     1      -2.872  -9.702  14.262  0.00  0.00    +0.149 HD
BRANCH   7  24
ATOM     24  C   UNL     1      -2.356 -10.714  12.463  0.00  0.00    +0.139 C 
BRANCH  24  25
ATOM     25  C   UNL     1      -3.369 -10.039  11.583  0.00  0.00    -0.030 A 
ATOM     26  C   UNL     1      -4.700  -9.953  11.992  0.00  0.00    +0.005 A 
ATOM     27  C   UNL     1      -2.979  -9.496  10.358  0.00  0.00    +0.005 A 
ATOM     28  C   UNL     1      -5.641  -9.325  11.175  0.00  0.00    +0.000 A 
ATOM     29  C   UNL     1      -3.920  -8.870   9.542  0.00  0.00    +0.000 A 
ATOM     30  C   UNL     1      -5.252  -8.784   9.950  0.00  0.00    +0.000 A 
ENDBRANCH  24  25
ENDBRANCH   7  24
ENDBRANCH  18  20
ENDBRANCH  16  18
ENDBRANCH  12  16
TORSDOF 7
ENDMDL
MODEL 6
REMARK VINA RESULT:      -6.6     20.697     21.638
REMARK  Name = 45360953
REMARK  8 active torsions:
REMARK  status: ('A' for Active; 'I' for Inactive)
REMARK    1  A    between atoms: N_4  and  C_17
REMARK    2  A    between atoms: N_5  and  C_15
REMARK    3  A    between atoms: N_7  and  C_24
REMARK    4  A    between atoms: C_12  and  C_16
REMARK    5  A    between atoms: C_15  and  C_19
REMARK    6  A    between atoms: C_16  and  C_18
REMARK    7  A    between atoms: C_18  and  C_20
REMARK    8  A    between atoms: C_24  and  C_25
REMARK                            x       y       z     vdW  Elec       q    Type
REMARK                         _______ _______ _______ _____ _____    ______ ____
ROOT
ATOM      2  O   UNL     1      -5.646  -9.553   7.503  0.00  0.00    -0.274 OA
ATOM      4  N   UNL     1      -5.826 -10.264  11.304  0.00  0.00    -0.296 NA
ATOM      5  N   UNL     1      -7.673  -8.332   8.805  0.00  0.00    -0.285 NA
ATOM      6  N   UNL     1      -4.127  -9.277   9.192  0.00  0.00    -0.312 N 
ATOM      8  C   UNL     1      -6.710  -9.158  10.874  0.00  0.00    +0.084 C 
ATOM      9  C   UNL     1      -6.394  -8.435   9.532  0.00  0.00    +0.161 C 
ATOM     10  C   UNL     1      -8.179  -9.573  10.676  0.00  0.00    +0.036 C 
ATOM     11  C   UNL     1      -8.738  -8.480   9.790  0.00  0.00    +0.087 C 
ATOM     12  C   UNL     1      -4.420  -9.856  11.582  0.00  0.00    +0.074 C 
ATOM     13  C   UNL     1      -5.385  -9.150   8.636  0.00  0.00    +0.232 C 
ATOM     14  C   UNL     1      -3.810  -8.887  10.552  0.00  0.00    +0.123 C 
ATOM     17  C   UNL     1      -6.393 -10.965  12.469  0.00  0.00    +0.105 C 
ATOM     31  H   UNL     1      -3.403  -9.723   8.638  0.00  0.00    +0.149 HD
ENDROOT
BRANCH   5  15
ATOM     15  C   UNL     1      -7.804  -7.100   8.038  0.00  0.00    +0.127 C 
BRANCH  15  19
ATOM      1  S   UNL     1     -10.140  -6.920   6.545  0.00  0.00    -0.100 S 
ATOM     19  C   UNL     1      -8.486  -7.327   6.720  0.00  0.00    +0.004 A 
ATOM     21  C   UNL     1      -7.955  -7.845   5.559  0.00  0.00    +0.012 A 
ATOM     22  C   UNL     1      -8.920  -7.907   4.512  0.00  0.00    +0.008 A 
ATOM     23  C   UNL     1     -10.150  -7.435   4.913  0.00  0.00    +0.045 A 
ENDBRANCH  15  19
ENDBRANCH   5  15
BRANCH  12  16
ATOM     16  C   UNL     1      -3.503 -11.095  11.654  0.00  0.00    +0.029 C 
BRANCH  16  18
ATOM     18  C   UNL     1      -2.196 -10.756  12.345  0.00  0.00    +0.097 C 
BRANCH  18  20
ATOM      3  O   UNL     1      -1.909 -12.496  14.005  0.00  0.00    -0.276 OA
ATOM      7  N   UNL     1      -2.404 -10.338  14.704  0.00  0.00    -0.311 N 
ATOM     20  C   UNL     1      -2.147 -11.317  13.756  0.00  0.00    +0.213 C 
ATOM     32  H   UNL     1      -2.591  -9.388  14.393  0.00  0.00    +0.149 HD
BRANCH   7  24
ATOM     24  C   UNL     1      -2.416 -10.620  16.120  0.00  0.00    +0.139 C 
BRANCH  24  25
ATOM     25  C   UNL     1      -3.811 -10.663  16.673  0.00  0.00    -0.030 A 
ATOM     26  C   UNL     1      -4.089 -11.433  17.802  0.00  0.00    +0.005 A 
ATOM     27  C   UNL     1      -4.828  -9.931  16.060  0.00  0.00    +0.005 A 
ATOM     28  C   UNL     1      -5.385 -11.472  18.317  0.00  0.00    +0.000 A 
ATOM     29  C   UNL     1      -6.123  -9.971  16.575  0.00  0.00    +0.000 A 
ATOM     30  C   UNL     1      -6.402 -10.742  17.704  0.00  0.00    +0.000 A 
ENDBRANCH  24  25
ENDBRANCH   7  24
ENDBRANCH  18  20
ENDBRANCH  16  18
ENDBRANCH  12  16
TORSDOF 7
ENDMDL
MODEL 7
REMARK VINA RESULT:      -6.3     28.140     31.149
REMARK  Name = 45360953
REMARK  8 active torsions:
REMARK  status: ('A' for Active; 'I' for Inactive)
REMARK    1  A    between atoms: N_4  and  C_17
REMARK    2  A    between atoms: N_5  and  C_15
REMARK    3  A    between atoms: N_7  and  C_24
REMARK    4  A    between atoms: C_12  and  C_16
REMARK    5  A    between atoms: C_15  and  C_19
REMARK    6  A    between atoms: C_16  and  C_18
REMARK    7  A    between atoms: C_18  and  C_20
REMARK    8  A    between atoms: C_24  and  C_25
REMARK                            x       y       z     vdW  Elec       q    Type
REMARK                         _______ _______ _______ _____ _____    ______ ____
ROOT
ATOM      2  O   UNL     1      14.647  11.034  23.706  0.00  0.00    -0.274 OA
ATOM      4  N   UNL     1      13.374  10.343  20.116  0.00  0.00    -0.296 NA
ATOM      5  N   UNL     1      12.209  12.047  23.138  0.00  0.00    -0.285 NA
ATOM      6  N   UNL     1      14.339   9.095  22.530  0.00  0.00    -0.312 N 
ATOM      8  C   UNL     1      12.326  10.875  21.015  0.00  0.00    +0.084 C 
ATOM      9  C   UNL     1      12.525  10.730  22.552  0.00  0.00    +0.161 C 
ATOM     10  C   UNL     1      12.082  12.388  20.865  0.00  0.00    +0.036 C 
ATOM     11  C   UNL     1      11.398  12.765  22.161  0.00  0.00    +0.087 C 
ATOM     12  C   UNL     1      13.559   8.867  20.190  0.00  0.00    +0.074 C 
ATOM     13  C   UNL     1      13.935  10.335  22.986  0.00  0.00    +0.232 C 
ATOM     14  C   UNL     1      13.557   8.284  21.617  0.00  0.00    +0.123 C 
ATOM     17  C   UNL     1      13.128  10.756  18.723  0.00  0.00    +0.105 C 
ATOM     31  H   UNL     1      15.258   8.762  22.803  0.00  0.00    +0.149 HD
ENDROOT
BRANCH   5  15
ATOM     15  C   UNL     1      11.553  11.958  24.436  0.00  0.00    +0.127 C 
BRANCH  15  19
ATOM      1  S   UNL     1      13.173  14.001  25.398  0.00  0.00    -0.100 S 
ATOM     19  C   UNL     1      11.648  13.246  25.202  0.00  0.00    +0.004 A 
ATOM     21  C   UNL     1      10.637  13.958  25.810  0.00  0.00    +0.012 A 
ATOM     22  C   UNL     1      11.121  15.138  26.444  0.00  0.00    +0.008 A 
ATOM     23  C   UNL     1      12.483  15.283  26.298  0.00  0.00    +0.045 A 
ENDBRANCH  15  19
ENDBRANCH   5  15
BRANCH  12  16
ATOM     16  C   UNL     1      14.889   8.456  19.523  0.00  0.00    +0.029 C 
BRANCH  16  18
ATOM     18  C   UNL     1      14.909   6.965  19.241  0.00  0.00    +0.097 C 
BRANCH  18  20
ATOM      3  O   UNL     1      16.797   5.578  18.629  0.00  0.00    -0.276 OA
ATOM      7  N   UNL     1      16.919   6.867  20.556  0.00  0.00    -0.311 N 
ATOM     20  C   UNL     1      16.300   6.381  19.414  0.00  0.00    +0.213 C 
ATOM     32  H   UNL     1      16.421   7.531  21.143  0.00  0.00    +0.149 HD
BRANCH   7  24
ATOM     24  C   UNL     1      18.250   6.461  20.942  0.00  0.00    +0.139 C 
BRANCH  24  25
ATOM     25  C   UNL     1      19.168   7.637  21.115  0.00  0.00    -0.030 A 
ATOM     26  C   UNL     1      20.550   7.451  21.090  0.00  0.00    +0.005 A 
ATOM     27  C   UNL     1      18.639   8.915  21.299  0.00  0.00    +0.005 A 
ATOM     28  C   UNL     1      21.403   8.544  21.250  0.00  0.00    +0.000 A 
ATOM     29  C   UNL     1      19.492  10.006  21.459  0.00  0.00    +0.000 A 
ATOM     30  C   UNL     1      20.875   9.821  21.435  0.00  0.00    +0.000 A 
ENDBRANCH  24  25
ENDBRANCH   7  24
ENDBRANCH  18  20
ENDBRANCH  16  18
ENDBRANCH  12  16
TORSDOF 7
ENDMDL
MODEL 8
REMARK VINA RESULT:      -6.3      1.679      2.039
REMARK  Name = 45360953
REMARK  8 active torsions:
REMARK  status: ('A' for Active; 'I' for Inactive)
REMARK    1  A    between atoms: N_4  and  C_17
REMARK    2  A    between atoms: N_5  and  C_15
REMARK    3  A    between atoms: N_7  and  C_24
REMARK    4  A    between atoms: C_12  and  C_16
REMARK    5  A    between atoms: C_15  and  C_19
REMARK    6  A    between atoms: C_16  and  C_18
REMARK    7  A    between atoms: C_18  and  C_20
REMARK    8  A    between atoms: C_24  and  C_25
REMARK                            x       y       z     vdW  Elec       q    Type
REMARK                         _______ _______ _______ _____ _____    ______ ____
ROOT
ATOM      2  O   UNL     1     -14.543   4.609  21.612  0.00  0.00    -0.274 OA
ATOM      4  N   UNL     1     -17.738   4.559  23.798  0.00  0.00    -0.296 NA
ATOM      5  N   UNL     1     -15.518   7.039  22.277  0.00  0.00    -0.285 NA
ATOM      6  N   UNL     1     -15.006   3.646  23.635  0.00  0.00    -0.312 N 
ATOM      8  C   UNL     1     -17.113   5.898  23.707  0.00  0.00    +0.084 C 
ATOM      9  C   UNL     1     -15.611   5.989  23.309  0.00  0.00    +0.161 C 
ATOM     10  C   UNL     1     -17.775   6.827  22.671  0.00  0.00    +0.036 C 
ATOM     11  C   UNL     1     -16.711   7.868  22.401  0.00  0.00    +0.087 C 
ATOM     12  C   UNL     1     -17.161   3.682  24.856  0.00  0.00    +0.074 C 
ATOM     13  C   UNL     1     -15.012   4.703  22.745  0.00  0.00    +0.232 C 
ATOM     14  C   UNL     1     -15.623   3.700  24.946  0.00  0.00    +0.123 C 
ATOM     17  C   UNL     1     -19.197   4.673  23.969  0.00  0.00    +0.105 C 
ATOM     31  H   UNL     1     -14.601   2.767  23.330  0.00  0.00    +0.149 HD
ENDROOT
BRANCH   5  15
ATOM     15  C   UNL     1     -14.293   7.824  22.361  0.00  0.00    +0.127 C 
BRANCH  15  19
ATOM      1  S   UNL     1     -14.195   8.068  19.595  0.00  0.00    -0.100 S 
ATOM     19  C   UNL     1     -13.472   7.722  21.108  0.00  0.00    +0.004 A 
ATOM     21  C   UNL     1     -12.146   7.370  20.980  0.00  0.00    +0.012 A 
ATOM     22  C   UNL     1     -11.719   7.386  19.621  0.00  0.00    +0.008 A 
ATOM     23  C   UNL     1     -12.733   7.749  18.763  0.00  0.00    +0.045 A 
ENDBRANCH  15  19
ENDBRANCH   5  15
BRANCH  12  16
ATOM     16  C   UNL     1     -17.597   2.217  24.638  0.00  0.00    +0.029 C 
BRANCH  16  18
ATOM     18  C   UNL     1     -16.682   1.269  25.389  0.00  0.00    +0.097 C 
BRANCH  18  20
ATOM      3  O   UNL     1     -18.372   0.498  26.942  0.00  0.00    -0.276 OA
ATOM      7  N   UNL     1     -16.302   1.160  27.761  0.00  0.00    -0.311 N 
ATOM     20  C   UNL     1     -17.235   0.926  26.761  0.00  0.00    +0.213 C 
ATOM     32  H   UNL     1     -15.386   1.516  27.506  0.00  0.00    +0.149 HD
BRANCH   7  24
ATOM     24  C   UNL     1     -16.589   0.912  29.154  0.00  0.00    +0.139 C 
BRANCH  24  25
ATOM     25  C   UNL     1     -15.743   1.759  30.061  0.00  0.00    -0.030 A 
ATOM     26  C   UNL     1     -15.725   3.144  29.904  0.00  0.00    +0.005 A 
ATOM     27  C   UNL     1     -14.978   1.161  31.063  0.00  0.00    +0.005 A 
ATOM     28  C   UNL     1     -14.940   3.932  30.747  0.00  0.00    +0.000 A 
ATOM     29  C   UNL     1     -14.195   1.948  31.906  0.00  0.00    +0.000 A 
ATOM     30  C   UNL     1     -14.175   3.334  31.748  0.00  0.00    +0.000 A 
ENDBRANCH  24  25
ENDBRANCH   7  24
ENDBRANCH  18  20
ENDBRANCH  16  18
ENDBRANCH  12  16
TORSDOF 7
ENDMDL
MODEL 9
REMARK VINA RESULT:      -6.1     29.494     33.487
REMARK  Name = 45360953
REMARK  8 active torsions:
REMARK  status: ('A' for Active; 'I' for Inactive)
REMARK    1  A    between atoms: N_4  and  C_17
REMARK    2  A    between atoms: N_5  and  C_15
REMARK    3  A    between atoms: N_7  and  C_24
REMARK    4  A    between atoms: C_12  and  C_16
REMARK    5  A    between atoms: C_15  and  C_19
REMARK    6  A    between atoms: C_16  and  C_18
REMARK    7  A    between atoms: C_18  and  C_20
REMARK    8  A    between atoms: C_24  and  C_25
REMARK                            x       y       z     vdW  Elec       q    Type
REMARK                         _______ _______ _______ _____ _____    ______ ____
ROOT
ATOM      2  O   UNL     1      13.355   7.343  21.957  0.00  0.00    -0.274 OA
ATOM      4  N   UNL     1      17.012   8.447  21.330  0.00  0.00    -0.296 NA
ATOM      5  N   UNL     1      13.650   9.853  21.003  0.00  0.00    -0.285 NA
ATOM      6  N   UNL     1      15.036   6.447  20.688  0.00  0.00    -0.312 N 
ATOM      8  C   UNL     1      16.015   9.372  20.747  0.00  0.00    +0.084 C 
ATOM      9  C   UNL     1      14.579   8.836  20.474  0.00  0.00    +0.161 C 
ATOM     10  C   UNL     1      15.735  10.615  21.612  0.00  0.00    +0.036 C 
ATOM     11  C   UNL     1      14.395  11.102  21.103  0.00  0.00    +0.087 C 
ATOM     12  C   UNL     1      17.356   7.284  20.464  0.00  0.00    +0.074 C 
ATOM     13  C   UNL     1      14.253   7.497  21.130  0.00  0.00    +0.232 C 
ATOM     14  C   UNL     1      16.152   6.609  19.778  0.00  0.00    +0.123 C 
ATOM     17  C   UNL     1      18.235   9.172  21.718  0.00  0.00    +0.105 C 
ATOM     31  H   UNL     1      14.854   5.523  21.068  0.00  0.00    +0.149 HD
ENDROOT
BRANCH   5  15
ATOM     15  C   UNL     1      12.439   9.999  20.206  0.00  0.00    +0.127 C 
BRANCH  15  19
ATOM      1  S   UNL     1      13.582  10.914  17.844  0.00  0.00    -0.100 S 
ATOM     19  C   UNL     1      12.696   9.760  18.745  0.00  0.00    +0.004 A 
ATOM     21  C   UNL     1      12.304   8.690  17.971  0.00  0.00    +0.012 A 
ATOM     22  C   UNL     1      12.737   8.820  16.621  0.00  0.00    +0.008 A 
ATOM     23  C   UNL     1      13.444   9.984  16.414  0.00  0.00    +0.045 A 
ENDBRANCH  15  19
ENDBRANCH   5  15
BRANCH  12  16
ATOM     16  C   UNL     1      18.092   6.202  21.280  0.00  0.00    +0.029 C 
BRANCH  16  18
ATOM     18  C   UNL     1      19.540   6.093  20.843  0.00  0.00    +0.097 C 
BRANCH  18  20
ATOM      3  O   UNL     1      20.251   6.279  23.151  0.00  0.00    -0.276 OA
ATOM      7  N   UNL     1      21.560   5.073  21.659  0.00  0.00    -0.311 N 
ATOM     20  C   UNL     1      20.464   5.843  22.022  0.00  0.00    +0.213 C 
ATOM     32  H   UNL     1      21.645   4.760  20.696  0.00  0.00    +0.149 HD
BRANCH   7  24
ATOM     24  C   UNL     1      22.585   4.699  22.604  0.00  0.00    +0.139 C 
BRANCH  24  25
ATOM     25  C   UNL     1      23.227   3.388  22.248  0.00  0.00    -0.030 A 
ATOM     26  C   UNL     1      23.481   2.444  23.242  0.00  0.00    +0.005 A 
ATOM     27  C   UNL     1      23.566   3.114  20.923  0.00  0.00    +0.005 A 
ATOM     28  C   UNL     1      24.077   1.226  22.912  0.00  0.00    +0.000 A 
ATOM     29  C   UNL     1      24.161   1.898  20.593  0.00  0.00    +0.000 A 
ATOM     30  C   UNL     1      24.416   0.953  21.587  0.00  0.00    +0.000 A 
ENDBRANCH  24  25
ENDBRANCH   7  24
ENDBRANCH  18  20
ENDBRANCH  16  18
ENDBRANCH  12  16
TORSDOF 7
ENDMDL
MODEL 10
REMARK VINA RESULT:      -5.9      6.545     10.579
REMARK  Name = 45360953
REMARK  8 active torsions:
REMARK  status: ('A' for Active; 'I' for Inactive)
REMARK    1  A    between atoms: N_4  and  C_17
REMARK    2  A    between atoms: N_5  and  C_15
REMARK    3  A    between atoms: N_7  and  C_24
REMARK    4  A    between atoms: C_12  and  C_16
REMARK    5  A    between atoms: C_15  and  C_19
REMARK    6  A    between atoms: C_16  and  C_18
REMARK    7  A    between atoms: C_18  and  C_20
REMARK    8  A    between atoms: C_24  and  C_25
REMARK                            x       y       z     vdW  Elec       q    Type
REMARK                         _______ _______ _______ _____ _____    ______ ____
ROOT
ATOM      2  O   UNL     1     -16.302   4.081  28.294  0.00  0.00    -0.274 OA
ATOM      4  N   UNL     1     -14.034   3.637  31.400  0.00  0.00    -0.296 NA
ATOM      5  N   UNL     1     -15.958   1.529  29.110  0.00  0.00    -0.285 NA
ATOM      6  N   UNL     1     -16.399   4.956  30.406  0.00  0.00    -0.312 N 
ATOM      8  C   UNL     1     -14.777   2.409  31.040  0.00  0.00    +0.084 C 
ATOM      9  C   UNL     1     -16.062   2.549  30.171  0.00  0.00    +0.161 C 
ATOM     10  C   UNL     1     -13.951   1.394  30.229  0.00  0.00    +0.036 C 
ATOM     11  C   UNL     1     -15.004   0.527  29.572  0.00  0.00    +0.087 C 
ATOM     12  C   UNL     1     -14.795   4.589  32.258  0.00  0.00    +0.074 C 
ATOM     13  C   UNL     1     -16.250   3.913  29.512  0.00  0.00    +0.232 C 
ATOM     14  C   UNL     1     -16.263   4.805  31.841  0.00  0.00    +0.123 C 
ATOM     17  C   UNL     1     -12.745   3.303  32.030  0.00  0.00    +0.105 C 
ATOM     31  H   UNL     1     -16.551   5.888  30.032  0.00  0.00    +0.149 HD
ENDROOT
BRANCH   5  15
ATOM     15  C   UNL     1     -17.241   0.939  28.750  0.00  0.00    +0.127 C 
BRANCH  15  19
ATOM      1  S   UNL     1     -18.959   0.415  26.631  0.00  0.00    -0.100 S 
ATOM     19  C   UNL     1     -17.445   0.902  27.263  0.00  0.00    +0.004 A 
ATOM     21  C   UNL     1     -16.547   1.220  26.267  0.00  0.00    +0.012 A 
ATOM     22  C   UNL     1     -17.111   1.060  24.968  0.00  0.00    +0.008 A 
ATOM     23  C   UNL     1     -18.417   0.627  25.021  0.00  0.00    +0.045 A 
ENDBRANCH  15  19
ENDBRANCH   5  15
BRANCH  12  16
ATOM     16  C   UNL     1     -14.108   5.971  32.271  0.00  0.00    +0.029 C 
BRANCH  16  18
ATOM     18  C   UNL     1     -14.165   6.584  33.657  0.00  0.00    +0.097 C 
BRANCH  18  20
ATOM      3  O   UNL     1     -12.630   8.261  32.822  0.00  0.00    -0.276 OA
ATOM      7  N   UNL     1     -13.210   8.279  35.071  0.00  0.00    -0.311 N 
ATOM     20  C   UNL     1     -13.250   7.791  33.773  0.00  0.00    +0.213 C 
ATOM     32  H   UNL     1     -13.762   7.817  35.788  0.00  0.00    +0.149 HD
BRANCH   7  24
ATOM     24  C   UNL     1     -12.410   9.423  35.439  0.00  0.00    +0.139 C 
BRANCH  24  25
ATOM     25  C   UNL     1     -11.061   9.021  35.962  0.00  0.00    -0.030 A 
ATOM     26  C   UNL     1     -10.959   8.029  36.937  0.00  0.00    +0.005 A 
ATOM     27  C   UNL     1      -9.909   9.638  35.472  0.00  0.00    +0.005 A 
ATOM     28  C   UNL     1      -9.705   7.654  37.423  0.00  0.00    +0.000 A 
ATOM     29  C   UNL     1      -8.657   9.264  35.958  0.00  0.00    +0.000 A 
ATOM     30  C   UNL     1      -8.555   8.272  36.934  0.00  0.00    +0.000 A 
ENDBRANCH  24  25
ENDBRANCH   7  24
ENDBRANCH  18  20
ENDBRANCH  16  18
ENDBRANCH  12  16
TORSDOF 7
ENDMDL
