MODEL 1
REMARK VINA RESULT:      -6.9      0.000      0.000
REMARK  Name = 7673828
REMARK  5 active torsions:
REMARK  status: ('A' for Active; 'I' for Inactive)
REMARK    1  A    between atoms: N_5  and  C_20
REMARK    2  A    between atoms: C_17  and  C_19
REMARK    3  A    between atoms: C_20  and  C_23
REMARK    4  A    between atoms: C_20  and  C_24
REMARK    5  A    between atoms: C_25  and  C_28
REMARK                            x       y       z     vdW  Elec       q    Type
REMARK                         _______ _______ _______ _____ _____    ______ ____
ROOT
ATOM      1  O   UNL     1      12.377   7.582   2.837  0.00  0.00    -0.267 OA
ATOM      2  O   UNL     1      12.726   6.368  -2.168  0.00  0.00    -0.253 OA
ATOM      3  N   UNL     1      13.411   4.517  -0.951  0.00  0.00    -0.285 N 
ATOM      4  N   UNL     1      12.958   5.474   2.025  0.00  0.00    -0.311 N 
ATOM      5  N   UNL     1      11.241   4.644  -1.885  0.00  0.00    -0.297 N 
ATOM      7  C   UNL     1      15.143   5.040   0.761  0.00  0.00    +0.027 C 
ATOM      8  C   UNL     1      13.561   3.193   1.141  0.00  0.00    +0.054 C 
ATOM      9  C   UNL     1      15.017   3.625   1.314  0.00  0.00    +0.018 C 
ATOM     10  C   UNL     1      14.747   5.075  -0.728  0.00  0.00    +0.114 C 
ATOM     11  C   UNL     1      14.276   5.977   1.610  0.00  0.00    +0.130 C 
ATOM     12  C   UNL     1      13.208   3.184  -0.359  0.00  0.00    +0.119 C 
ATOM     13  C   UNL     1      12.622   4.124   1.884  0.00  0.00    +0.027 A 
ATOM     14  C   UNL     1      11.461   3.665   2.375  0.00  0.00    +0.022 A 
ATOM     15  C   UNL     1      12.102   6.393   2.662  0.00  0.00    +0.259 A 
ATOM     16  C   UNL     1      12.478   5.250  -1.703  0.00  0.00    +0.302 C 
ATOM     17  C   UNL     1      10.789   5.855   3.167  0.00  0.00    +0.047 A 
ATOM     18  C   UNL     1      10.530   4.547   3.019  0.00  0.00    +0.015 A 
ATOM     29  H   UNL     1      11.001   3.786  -1.410  0.00  0.00    +0.150 HD
ENDROOT
BRANCH  17  19
ATOM     19  C   UNL     1       9.796   6.740   3.801  0.00  0.00    -0.011 A 
ATOM     21  C   UNL     1       9.700   6.800   5.192  0.00  0.00    +0.027 A 
ATOM     22  C   UNL     1       8.951   7.519   3.010  0.00  0.00    +0.009 A 
ATOM     25  C   UNL     1       8.759   7.639   5.790  0.00  0.00    +0.052 A 
ATOM     26  C   UNL     1       8.010   8.356   3.608  0.00  0.00    +0.002 A 
ATOM     27  C   UNL     1       7.914   8.416   4.998  0.00  0.00    +0.019 A 
BRANCH  25  28
ATOM      6  N   UNL     1       8.579   7.749   8.372  0.00  0.00    -0.191 NA
ATOM     28  C   UNL     1       8.659   7.699   7.214  0.00  0.00    +0.099 C 
ENDBRANCH  25  28
ENDBRANCH  17  19
BRANCH   5  20
ATOM     20  C   UNL     1      10.174   5.281  -2.626  0.00  0.00    +0.068 C 
ATOM     23  C   UNL     1       9.517   4.289  -3.577  0.00  0.00    +0.027 C 
ATOM     24  C   UNL     1       9.155   5.887  -1.671  0.00  0.00    +0.027 C 
ENDBRANCH   5  20
TORSDOF 3
ENDMDL
MODEL 2
REMARK VINA RESULT:      -6.9     15.011     18.446
REMARK  Name = 7673828
REMARK  5 active torsions:
REMARK  status: ('A' for Active; 'I' for Inactive)
REMARK    1  A    between atoms: N_5  and  C_20
REMARK    2  A    between atoms: C_17  and  C_19
REMARK    3  A    between atoms: C_20  and  C_23
REMARK    4  A    between atoms: C_20  and  C_24
REMARK    5  A    between atoms: C_25  and  C_28
REMARK                            x       y       z     vdW  Elec       q    Type
REMARK                         _______ _______ _______ _____ _____    ______ ____
ROOT
ATOM      1  O   UNL     1      13.705  11.924  18.254  0.00  0.00    -0.267 OA
ATOM      2  O   UNL     1      15.845   8.679  21.649  0.00  0.00    -0.253 OA
ATOM      3  N   UNL     1      13.720   7.886  21.170  0.00  0.00    -0.285 N 
ATOM      4  N   UNL     1      12.719   9.943  18.991  0.00  0.00    -0.311 N 
ATOM      5  N   UNL     1      15.644   6.944  20.165  0.00  0.00    -0.297 N 
ATOM      7  C   UNL     1      11.939   9.610  21.409  0.00  0.00    +0.027 C 
ATOM      8  C   UNL     1      11.672   7.789  19.774  0.00  0.00    +0.054 C 
ATOM      9  C   UNL     1      10.928   8.645  20.800  0.00  0.00    +0.018 C 
ATOM     10  C   UNL     1      13.086   8.836  22.087  0.00  0.00    +0.114 C 
ATOM     11  C   UNL     1      12.448  10.545  20.305  0.00  0.00    +0.130 C 
ATOM     12  C   UNL     1      12.775   6.985  20.487  0.00  0.00    +0.119 C 
ATOM     13  C   UNL     1      12.284   8.650  18.686  0.00  0.00    +0.027 A 
ATOM     14  C   UNL     1      12.440   8.163  17.445  0.00  0.00    +0.022 A 
ATOM     15  C   UNL     1      13.340  10.767  18.033  0.00  0.00    +0.259 A 
ATOM     16  C   UNL     1      15.119   7.887  21.040  0.00  0.00    +0.302 C 
ATOM     17  C   UNL     1      13.535  10.179  16.661  0.00  0.00    +0.047 A 
ATOM     18  C   UNL     1      13.081   8.940  16.422  0.00  0.00    +0.015 A 
ATOM     29  H   UNL     1      15.045   6.376  19.583  0.00  0.00    +0.150 HD
ENDROOT
BRANCH  17  19
ATOM     19  C   UNL     1      14.221  10.934  15.597  0.00  0.00    -0.011 A 
ATOM     21  C   UNL     1      15.615  10.987  15.565  0.00  0.00    +0.027 A 
ATOM     22  C   UNL     1      13.475  11.596  14.622  0.00  0.00    +0.009 A 
ATOM     25  C   UNL     1      16.262  11.702  14.557  0.00  0.00    +0.052 A 
ATOM     26  C   UNL     1      14.122  12.311  13.614  0.00  0.00    +0.002 A 
ATOM     27  C   UNL     1      15.516  12.365  13.582  0.00  0.00    +0.019 A 
BRANCH  25  28
ATOM      6  N   UNL     1      18.850  11.803  14.496  0.00  0.00    -0.191 NA
ATOM     28  C   UNL     1      17.689  11.758  14.524  0.00  0.00    +0.099 C 
ENDBRANCH  25  28
ENDBRANCH  17  19
BRANCH   5  20
ATOM     20  C   UNL     1      17.064   6.831  19.917  0.00  0.00    +0.068 C 
ATOM     23  C   UNL     1      17.807   6.498  21.204  0.00  0.00    +0.027 C 
ATOM     24  C   UNL     1      17.332   5.789  18.840  0.00  0.00    +0.027 C 
ENDBRANCH   5  20
TORSDOF 3
ENDMDL
MODEL 3
REMARK VINA RESULT:      -6.8     25.548     27.748
REMARK  Name = 7673828
REMARK  5 active torsions:
REMARK  status: ('A' for Active; 'I' for Inactive)
REMARK    1  A    between atoms: N_5  and  C_20
REMARK    2  A    between atoms: C_17  and  C_19
REMARK    3  A    between atoms: C_20  and  C_23
REMARK    4  A    between atoms: C_20  and  C_24
REMARK    5  A    between atoms: C_25  and  C_28
REMARK                            x       y       z     vdW  Elec       q    Type
REMARK                         _______ _______ _______ _____ _____    ______ ____
ROOT
ATOM      1  O   UNL     1      -6.760 -10.474  14.124  0.00  0.00    -0.267 OA
ATOM      2  O   UNL     1      -4.126 -14.775  13.024  0.00  0.00    -0.253 OA
ATOM      3  N   UNL     1      -2.581 -13.093  13.422  0.00  0.00    -0.285 N 
ATOM      4  N   UNL     1      -4.436 -10.659  14.206  0.00  0.00    -0.311 N 
ATOM      5  N   UNL     1      -3.099 -14.707  15.072  0.00  0.00    -0.297 N 
ATOM      7  C   UNL     1      -3.009 -11.020  12.109  0.00  0.00    +0.027 C 
ATOM      8  C   UNL     1      -1.928 -10.872  14.316  0.00  0.00    +0.054 C 
ATOM      9  C   UNL     1      -1.921 -10.300  12.898  0.00  0.00    +0.018 C 
ATOM     10  C   UNL     1      -2.740 -12.537  12.076  0.00  0.00    +0.114 C 
ATOM     11  C   UNL     1      -4.369 -10.690  12.737  0.00  0.00    +0.130 C 
ATOM     12  C   UNL     1      -1.601 -12.377  14.258  0.00  0.00    +0.119 C 
ATOM     13  C   UNL     1      -3.274 -10.664  14.982  0.00  0.00    +0.027 A 
ATOM     14  C   UNL     1      -3.355 -10.518  16.314  0.00  0.00    +0.022 A 
ATOM     15  C   UNL     1      -5.716 -10.519  14.777  0.00  0.00    +0.259 A 
ATOM     16  C   UNL     1      -3.320 -14.231  13.786  0.00  0.00    +0.302 C 
ATOM     17  C   UNL     1      -5.776 -10.397  16.277  0.00  0.00    +0.047 A 
ATOM     18  C   UNL     1      -4.626 -10.389  16.968  0.00  0.00    +0.015 A 
ATOM     29  H   UNL     1      -2.529 -14.196  15.731  0.00  0.00    +0.150 HD
ENDROOT
BRANCH  17  19
ATOM     19  C   UNL     1      -7.065 -10.299  16.984  0.00  0.00    -0.011 A 
ATOM     21  C   UNL     1      -7.905  -9.209  16.757  0.00  0.00    +0.027 A 
ATOM     22  C   UNL     1      -7.446 -11.299  17.880  0.00  0.00    +0.009 A 
ATOM     25  C   UNL     1      -9.126  -9.119  17.427  0.00  0.00    +0.052 A 
ATOM     26  C   UNL     1      -8.665 -11.208  18.549  0.00  0.00    +0.002 A 
ATOM     27  C   UNL     1      -9.506 -10.118  18.323  0.00  0.00    +0.019 A 
BRANCH  25  28
ATOM      6  N   UNL     1     -10.687  -7.093  17.010  0.00  0.00    -0.191 NA
ATOM     28  C   UNL     1      -9.987  -8.001  17.197  0.00  0.00    +0.099 C 
ENDBRANCH  25  28
ENDBRANCH  17  19
BRANCH   5  20
ATOM     20  C   UNL     1      -3.794 -15.862  15.595  0.00  0.00    +0.068 C 
ATOM     23  C   UNL     1      -2.801 -16.927  16.043  0.00  0.00    +0.027 C 
ATOM     24  C   UNL     1      -4.718 -15.454  16.735  0.00  0.00    +0.027 C 
ENDBRANCH   5  20
TORSDOF 3
ENDMDL
MODEL 4
REMARK VINA RESULT:      -6.5      2.374      7.507
REMARK  Name = 7673828
REMARK  5 active torsions:
REMARK  status: ('A' for Active; 'I' for Inactive)
REMARK    1  A    between atoms: N_5  and  C_20
REMARK    2  A    between atoms: C_17  and  C_19
REMARK    3  A    between atoms: C_20  and  C_23
REMARK    4  A    between atoms: C_20  and  C_24
REMARK    5  A    between atoms: C_25  and  C_28
REMARK                            x       y       z     vdW  Elec       q    Type
REMARK                         _______ _______ _______ _____ _____    ______ ____
ROOT
ATOM      1  O   UNL     1      10.038   6.741   0.839  0.00  0.00    -0.267 OA
ATOM      2  O   UNL     1      12.047   9.585   4.649  0.00  0.00    -0.253 OA
ATOM      3  N   UNL     1      10.653   8.006   5.617  0.00  0.00    -0.285 N 
ATOM      4  N   UNL     1       9.696   6.339   3.111  0.00  0.00    -0.311 N 
ATOM      5  N   UNL     1      13.000   7.720   5.580  0.00  0.00    -0.297 N 
ATOM      7  C   UNL     1       8.376   7.942   4.609  0.00  0.00    +0.027 C 
ATOM      8  C   UNL     1       9.352   5.895   5.566  0.00  0.00    +0.054 C 
ATOM      9  C   UNL     1       8.055   6.693   5.423  0.00  0.00    +0.018 C 
ATOM     10  C   UNL     1       9.450   8.789   5.319  0.00  0.00    +0.114 C 
ATOM     11  C   UNL     1       8.815   7.512   3.205  0.00  0.00    +0.130 C 
ATOM     12  C   UNL     1      10.389   6.743   6.327  0.00  0.00    +0.119 C 
ATOM     13  C   UNL     1       9.904   5.501   4.210  0.00  0.00    +0.027 A 
ATOM     14  C   UNL     1      10.618   4.373   4.072  0.00  0.00    +0.022 A 
ATOM     15  C   UNL     1      10.228   6.048   1.840  0.00  0.00    +0.259 A 
ATOM     16  C   UNL     1      11.909   8.512   5.246  0.00  0.00    +0.302 C 
ATOM     17  C   UNL     1      11.057   4.796   1.725  0.00  0.00    +0.047 A 
ATOM     18  C   UNL     1      11.207   4.021   2.810  0.00  0.00    +0.015 A 
ATOM     29  H   UNL     1      12.879   6.793   5.963  0.00  0.00    +0.150 HD
ENDROOT
BRANCH  17  19
ATOM     19  C   UNL     1      11.706   4.423   0.455  0.00  0.00    -0.011 A 
ATOM     21  C   UNL     1      13.095   4.472   0.339  0.00  0.00    +0.027 A 
ATOM     22  C   UNL     1      10.929   4.021  -0.632  0.00  0.00    +0.009 A 
ATOM     25  C   UNL     1      13.707   4.119  -0.864  0.00  0.00    +0.052 A 
ATOM     26  C   UNL     1      11.540   3.668  -1.834  0.00  0.00    +0.002 A 
ATOM     27  C   UNL     1      12.930   3.718  -1.951  0.00  0.00    +0.019 A 
BRANCH  25  28
ATOM      6  N   UNL     1      16.287   4.211  -1.083  0.00  0.00    -0.191 NA
ATOM     28  C   UNL     1      15.130   4.170  -0.984  0.00  0.00    +0.099 C 
ENDBRANCH  25  28
ENDBRANCH  17  19
BRANCH   5  20
ATOM     20  C   UNL     1      14.357   8.101   5.254  0.00  0.00    +0.068 C 
ATOM     23  C   UNL     1      15.290   7.811   6.422  0.00  0.00    +0.027 C 
ATOM     24  C   UNL     1      14.817   7.388   3.989  0.00  0.00    +0.027 C 
ENDBRANCH   5  20
TORSDOF 3
ENDMDL
MODEL 5
REMARK VINA RESULT:      -6.3      4.693      8.517
REMARK  Name = 7673828
REMARK  5 active torsions:
REMARK  status: ('A' for Active; 'I' for Inactive)
REMARK    1  A    between atoms: N_5  and  C_20
REMARK    2  A    between atoms: C_17  and  C_19
REMARK    3  A    between atoms: C_20  and  C_23
REMARK    4  A    between atoms: C_20  and  C_24
REMARK    5  A    between atoms: C_25  and  C_28
REMARK                            x       y       z     vdW  Elec       q    Type
REMARK                         _______ _______ _______ _____ _____    ______ ____
ROOT
ATOM      1  O   UNL     1      12.828   8.254   3.812  0.00  0.00    -0.267 OA
ATOM      2  O   UNL     1       8.785  10.325   6.265  0.00  0.00    -0.253 OA
ATOM      3  N   UNL     1       8.800   8.055   6.737  0.00  0.00    -0.285 N 
ATOM      4  N   UNL     1      11.418   7.086   5.259  0.00  0.00    -0.311 N 
ATOM      5  N   UNL     1       9.622   9.642   8.286  0.00  0.00    -0.297 N 
ATOM      7  C   UNL     1       8.961   6.620   4.708  0.00  0.00    +0.027 C 
ATOM      8  C   UNL     1       9.907   5.837   6.841  0.00  0.00    +0.054 C 
ATOM      9  C   UNL     1       9.141   5.393   5.594  0.00  0.00    +0.018 C 
ATOM     10  C   UNL     1       8.177   7.717   5.454  0.00  0.00    +0.114 C 
ATOM     11  C   UNL     1      10.343   7.105   4.256  0.00  0.00    +0.130 C 
ATOM     12  C   UNL     1       9.077   6.892   7.598  0.00  0.00    +0.119 C 
ATOM     13  C   UNL     1      11.261   6.415   6.474  0.00  0.00    +0.027 A 
ATOM     14  C   UNL     1      12.294   6.312   7.325  0.00  0.00    +0.022 A 
ATOM     15  C   UNL     1      12.639   7.684   4.889  0.00  0.00    +0.259 A 
ATOM     16  C   UNL     1       9.047   9.403   7.045  0.00  0.00    +0.302 C 
ATOM     17  C   UNL     1      13.767   7.585   5.881  0.00  0.00    +0.047 A 
ATOM     18  C   UNL     1      13.562   6.912   7.024  0.00  0.00    +0.015 A 
ATOM     29  H   UNL     1       9.941   8.884   8.873  0.00  0.00    +0.150 HD
ENDROOT
BRANCH  17  19
ATOM     19  C   UNL     1      15.071   8.221   5.620  0.00  0.00    -0.011 A 
ATOM     21  C   UNL     1      15.416   9.403   6.276  0.00  0.00    +0.027 A 
ATOM     22  C   UNL     1      15.961   7.639   4.717  0.00  0.00    +0.009 A 
ATOM     25  C   UNL     1      16.651  10.003   6.027  0.00  0.00    +0.052 A 
ATOM     26  C   UNL     1      17.195   8.238   4.469  0.00  0.00    +0.002 A 
ATOM     27  C   UNL     1      17.540   9.421   5.123  0.00  0.00    +0.019 A 
BRANCH  25  28
ATOM      6  N   UNL     1      17.292  12.200   7.241  0.00  0.00    -0.191 NA
ATOM     28  C   UNL     1      17.005  11.215   6.696  0.00  0.00    +0.099 C 
ENDBRANCH  25  28
ENDBRANCH  17  19
BRANCH   5  20
ATOM     20  C   UNL     1       9.947  10.977   8.740  0.00  0.00    +0.068 C 
ATOM     23  C   UNL     1       9.108  11.347   9.956  0.00  0.00    +0.027 C 
ATOM     24  C   UNL     1      11.436  11.085   9.043  0.00  0.00    +0.027 C 
ENDBRANCH   5  20
TORSDOF 3
ENDMDL
MODEL 6
REMARK VINA RESULT:      -6.2     26.540     29.529
REMARK  Name = 7673828
REMARK  5 active torsions:
REMARK  status: ('A' for Active; 'I' for Inactive)
REMARK    1  A    between atoms: N_5  and  C_20
REMARK    2  A    between atoms: C_17  and  C_19
REMARK    3  A    between atoms: C_20  and  C_23
REMARK    4  A    between atoms: C_20  and  C_24
REMARK    5  A    between atoms: C_25  and  C_28
REMARK                            x       y       z     vdW  Elec       q    Type
REMARK                         _______ _______ _______ _____ _____    ______ ____
ROOT
ATOM      1  O   UNL     1      -5.458 -13.203  15.880  0.00  0.00    -0.267 OA
ATOM      2  O   UNL     1     -10.391 -11.701  15.664  0.00  0.00    -0.253 OA
ATOM      3  N   UNL     1      -9.776 -11.756  17.899  0.00  0.00    -0.285 N 
ATOM      4  N   UNL     1      -6.722 -12.545  17.727  0.00  0.00    -0.311 N 
ATOM      5  N   UNL     1      -9.866  -9.722  16.695  0.00  0.00    -0.297 N 
ATOM      7  C   UNL     1      -8.717 -13.904  18.583  0.00  0.00    +0.027 C 
ATOM      8  C   UNL     1      -8.085 -11.811  19.714  0.00  0.00    +0.054 C 
ATOM      9  C   UNL     1      -8.369 -13.297  19.937  0.00  0.00    +0.018 C 
ATOM     10  C   UNL     1      -9.953 -13.209  17.979  0.00  0.00    +0.114 C 
ATOM     11  C   UNL     1      -7.491 -13.798  17.669  0.00  0.00    +0.130 C 
ATOM     12  C   UNL     1      -9.353 -11.129  19.163  0.00  0.00    +0.119 C 
ATOM     13  C   UNL     1      -6.934 -11.614  18.747  0.00  0.00    +0.027 A 
ATOM     14  C   UNL     1      -6.143 -10.534  18.847  0.00  0.00    +0.022 A 
ATOM     15  C   UNL     1      -5.699 -12.387  16.772  0.00  0.00    +0.259 A 
ATOM     16  C   UNL     1     -10.039 -11.100  16.685  0.00  0.00    +0.302 C 
ATOM     17  C   UNL     1      -4.854 -11.146  16.888  0.00  0.00    +0.047 A 
ATOM     18  C   UNL     1      -5.092 -10.297  17.899  0.00  0.00    +0.015 A 
ATOM     29  H   UNL     1      -9.469  -9.248  17.494  0.00  0.00    +0.150 HD
ENDROOT
BRANCH  17  19
ATOM     19  C   UNL     1      -3.790 -10.853  15.910  0.00  0.00    -0.011 A 
ATOM     21  C   UNL     1      -4.103 -10.714  14.558  0.00  0.00    +0.027 A 
ATOM     22  C   UNL     1      -2.470 -10.713  16.338  0.00  0.00    +0.009 A 
ATOM     25  C   UNL     1      -3.095 -10.437  13.634  0.00  0.00    +0.052 A 
ATOM     26  C   UNL     1      -1.462 -10.436  15.415  0.00  0.00    +0.002 A 
ATOM     27  C   UNL     1      -1.775 -10.298  14.063  0.00  0.00    +0.019 A 
BRANCH  25  28
ATOM      6  N   UNL     1      -3.674 -10.184  11.121  0.00  0.00    -0.191 NA
ATOM     28  C   UNL     1      -3.414 -10.297  12.248  0.00  0.00    +0.099 C 
ENDBRANCH  25  28
ENDBRANCH  17  19
BRANCH   5  20
ATOM     20  C   UNL     1     -10.087  -8.910  15.519  0.00  0.00    +0.068 C 
ATOM     23  C   UNL     1     -10.151  -7.434  15.892  0.00  0.00    +0.027 C 
ATOM     24  C   UNL     1      -9.002  -9.172  14.484  0.00  0.00    +0.027 C 
ENDBRANCH   5  20
TORSDOF 3
ENDMDL
MODEL 7
REMARK VINA RESULT:      -6.1     32.969     36.027
REMARK  Name = 7673828
REMARK  5 active torsions:
REMARK  status: ('A' for Active; 'I' for Inactive)
REMARK    1  A    between atoms: N_5  and  C_20
REMARK    2  A    between atoms: C_17  and  C_19
REMARK    3  A    between atoms: C_20  and  C_23
REMARK    4  A    between atoms: C_20  and  C_24
REMARK    5  A    between atoms: C_25  and  C_28
REMARK                            x       y       z     vdW  Elec       q    Type
REMARK                         _______ _______ _______ _____ _____    ______ ____
ROOT
ATOM      1  O   UNL     1       9.315  -9.634  33.405  0.00  0.00    -0.267 OA
ATOM      2  O   UNL     1       7.707  -7.796  37.953  0.00  0.00    -0.253 OA
ATOM      3  N   UNL     1       7.771  -6.019  36.465  0.00  0.00    -0.285 N 
ATOM      4  N   UNL     1       8.626  -7.437  33.774  0.00  0.00    -0.311 N 
ATOM      5  N   UNL     1       5.738  -7.098  37.009  0.00  0.00    -0.297 N 
ATOM      7  C   UNL     1       9.940  -5.813  35.258  0.00  0.00    +0.027 C 
ATOM      8  C   UNL     1       7.858  -5.071  34.174  0.00  0.00    +0.054 C 
ATOM      9  C   UNL     1       9.337  -4.733  34.367  0.00  0.00    +0.018 C 
ATOM     10  C   UNL     1       9.219  -5.856  36.619  0.00  0.00    +0.114 C 
ATOM     11  C   UNL     1       9.862  -7.156  34.521  0.00  0.00    +0.130 C 
ATOM     12  C   UNL     1       7.151  -5.052  35.543  0.00  0.00    +0.119 C 
ATOM     13  C   UNL     1       7.688  -6.431  33.526  0.00  0.00    +0.027 A 
ATOM     14  C   UNL     1       6.626  -6.680  32.744  0.00  0.00    +0.022 A 
ATOM     15  C   UNL     1       8.492  -8.732  33.239  0.00  0.00    +0.259 A 
ATOM     16  C   UNL     1       7.112  -7.020  37.197  0.00  0.00    +0.302 C 
ATOM     17  C   UNL     1       7.269  -8.992  32.398  0.00  0.00    +0.047 A 
ATOM     18  C   UNL     1       6.413  -7.982  32.179  0.00  0.00    +0.015 A 
ATOM     29  H   UNL     1       5.271  -6.542  36.307  0.00  0.00    +0.150 HD
ENDROOT
BRANCH  17  19
ATOM     19  C   UNL     1       7.002 -10.326  31.833  0.00  0.00    -0.011 A 
ATOM     21  C   UNL     1       7.476 -10.655  30.563  0.00  0.00    +0.027 A 
ATOM     22  C   UNL     1       6.274 -11.261  32.569  0.00  0.00    +0.009 A 
ATOM     25  C   UNL     1       7.222 -11.919  30.030  0.00  0.00    +0.052 A 
ATOM     26  C   UNL     1       6.019 -12.524  32.036  0.00  0.00    +0.002 A 
ATOM     27  C   UNL     1       6.493 -12.853  30.765  0.00  0.00    +0.019 A 
BRANCH  25  28
ATOM      6  N   UNL     1       8.099 -12.529  27.669  0.00  0.00    -0.191 NA
ATOM     28  C   UNL     1       7.706 -12.256  28.728  0.00  0.00    +0.099 C 
ENDBRANCH  25  28
ENDBRANCH  17  19
BRANCH   5  20
ATOM     20  C   UNL     1       4.924  -8.085  37.684  0.00  0.00    +0.068 C 
ATOM     23  C   UNL     1       3.813  -7.410  38.478  0.00  0.00    +0.027 C 
ATOM     24  C   UNL     1       4.358  -9.081  36.680  0.00  0.00    +0.027 C 
ENDBRANCH   5  20
TORSDOF 3
ENDMDL
MODEL 8
REMARK VINA RESULT:      -6.0      2.379      7.552
REMARK  Name = 7673828
REMARK  5 active torsions:
REMARK  status: ('A' for Active; 'I' for Inactive)
REMARK    1  A    between atoms: N_5  and  C_20
REMARK    2  A    between atoms: C_17  and  C_19
REMARK    3  A    between atoms: C_20  and  C_23
REMARK    4  A    between atoms: C_20  and  C_24
REMARK    5  A    between atoms: C_25  and  C_28
REMARK                            x       y       z     vdW  Elec       q    Type
REMARK                         _______ _______ _______ _____ _____    ______ ____
ROOT
ATOM      1  O   UNL     1      10.448   6.692   0.837  0.00  0.00    -0.267 OA
ATOM      2  O   UNL     1      12.557   9.005   4.941  0.00  0.00    -0.253 OA
ATOM      3  N   UNL     1      10.991   7.485   5.724  0.00  0.00    -0.285 N 
ATOM      4  N   UNL     1       9.986   6.131   3.053  0.00  0.00    -0.311 N 
ATOM      5  N   UNL     1      13.303   6.988   5.733  0.00  0.00    -0.297 N 
ATOM      7  C   UNL     1       8.757   7.717   4.646  0.00  0.00    +0.027 C 
ATOM      8  C   UNL     1       9.509   5.514   5.449  0.00  0.00    +0.054 C 
ATOM      9  C   UNL     1       8.296   6.438   5.337  0.00  0.00    +0.018 C 
ATOM     10  C   UNL     1       9.875   8.398   5.460  0.00  0.00    +0.114 C 
ATOM     11  C   UNL     1       9.210   7.369   3.224  0.00  0.00    +0.130 C 
ATOM     12  C   UNL     1      10.588   6.196   6.313  0.00  0.00    +0.119 C 
ATOM     13  C   UNL     1      10.076   5.188   4.081  0.00  0.00    +0.027 A 
ATOM     14  C   UNL     1      10.691   4.015   3.865  0.00  0.00    +0.022 A 
ATOM     15  C   UNL     1      10.538   5.901   1.778  0.00  0.00    +0.259 A 
ATOM     16  C   UNL     1      12.301   7.902   5.437  0.00  0.00    +0.302 C 
ATOM     17  C   UNL     1      11.255   4.592   1.579  0.00  0.00    +0.047 A 
ATOM     18  C   UNL     1      11.294   3.718   2.596  0.00  0.00    +0.015 A 
ATOM     29  H   UNL     1      13.086   6.047   6.030  0.00  0.00    +0.150 HD
ENDROOT
BRANCH  17  19
ATOM     19  C   UNL     1      11.916   4.271   0.301  0.00  0.00    -0.011 A 
ATOM     21  C   UNL     1      11.158   3.845  -0.789  0.00  0.00    +0.027 A 
ATOM     22  C   UNL     1      13.300   4.394   0.183  0.00  0.00    +0.009 A 
ATOM     25  C   UNL     1      11.786   3.541  -1.998  0.00  0.00    +0.052 A 
ATOM     26  C   UNL     1      13.928   4.091  -1.025  0.00  0.00    +0.002 A 
ATOM     27  C   UNL     1      13.170   3.664  -2.115  0.00  0.00    +0.019 A 
BRANCH  25  28
ATOM      6  N   UNL     1      10.380   2.746  -4.025  0.00  0.00    -0.191 NA
ATOM     28  C   UNL     1      11.010   3.102  -3.116  0.00  0.00    +0.099 C 
ENDBRANCH  25  28
ENDBRANCH  17  19
BRANCH   5  20
ATOM     20  C   UNL     1      14.700   7.269   5.483  0.00  0.00    +0.068 C 
ATOM     23  C   UNL     1      14.966   7.365   3.986  0.00  0.00    +0.027 C 
ATOM     24  C   UNL     1      15.121   8.544   6.201  0.00  0.00    +0.027 C 
ENDBRANCH   5  20
TORSDOF 3
ENDMDL
MODEL 9
REMARK VINA RESULT:      -6.0     33.119     35.645
REMARK  Name = 7673828
REMARK  5 active torsions:
REMARK  status: ('A' for Active; 'I' for Inactive)
REMARK    1  A    between atoms: N_5  and  C_20
REMARK    2  A    between atoms: C_17  and  C_19
REMARK    3  A    between atoms: C_20  and  C_23
REMARK    4  A    between atoms: C_20  and  C_24
REMARK    5  A    between atoms: C_25  and  C_28
REMARK                            x       y       z     vdW  Elec       q    Type
REMARK                         _______ _______ _______ _____ _____    ______ ____
ROOT
ATOM      1  O   UNL     1       9.306 -11.610  31.899  0.00  0.00    -0.267 OA
ATOM      2  O   UNL     1       6.886 -10.442  36.306  0.00  0.00    -0.253 OA
ATOM      3  N   UNL     1       7.268  -8.457  35.172  0.00  0.00    -0.285 N 
ATOM      4  N   UNL     1       8.599  -9.468  32.492  0.00  0.00    -0.311 N 
ATOM      5  N   UNL     1       5.149  -9.506  35.141  0.00  0.00    -0.297 N 
ATOM      7  C   UNL     1       9.632  -8.169  34.443  0.00  0.00    +0.027 C 
ATOM      8  C   UNL     1       7.812  -7.161  33.128  0.00  0.00    +0.054 C 
ATOM      9  C   UNL     1       9.232  -6.932  33.647  0.00  0.00    +0.018 C 
ATOM     10  C   UNL     1       8.662  -8.392  35.620  0.00  0.00    +0.114 C 
ATOM     11  C   UNL     1       9.673  -9.371  33.493  0.00  0.00    +0.130 C 
ATOM     12  C   UNL     1       6.854  -7.326  34.324  0.00  0.00    +0.119 C 
ATOM     13  C   UNL     1       7.745  -8.390  32.243  0.00  0.00    +0.027 A 
ATOM     14  C   UNL     1       6.848  -8.459  31.246  0.00  0.00    +0.022 A 
ATOM     15  C   UNL     1       8.547 -10.653  31.733  0.00  0.00    +0.259 A 
ATOM     16  C   UNL     1       6.462  -9.528  35.592  0.00  0.00    +0.302 C 
ATOM     17  C   UNL     1       7.505 -10.715  30.648  0.00  0.00    +0.047 A 
ATOM     18  C   UNL     1       6.725  -9.642  30.443  0.00  0.00    +0.015 A 
ATOM     29  H   UNL     1       4.836  -8.823  34.466  0.00  0.00    +0.150 HD
ENDROOT
BRANCH  17  19
ATOM     19  C   UNL     1       7.327 -11.927  29.829  0.00  0.00    -0.011 A 
ATOM     21  C   UNL     1       6.430 -12.917  30.232  0.00  0.00    +0.027 A 
ATOM     22  C   UNL     1       8.055 -12.083  28.650  0.00  0.00    +0.009 A 
ATOM     25  C   UNL     1       6.263 -14.064  29.454  0.00  0.00    +0.052 A 
ATOM     26  C   UNL     1       7.888 -13.229  27.873  0.00  0.00    +0.002 A 
ATOM     27  C   UNL     1       6.992 -14.220  28.276  0.00  0.00    +0.019 A 
BRANCH  25  28
ATOM      6  N   UNL     1       4.600 -15.905  30.202  0.00  0.00    -0.191 NA
ATOM     28  C   UNL     1       5.346 -15.079  29.867  0.00  0.00    +0.099 C 
ENDBRANCH  25  28
ENDBRANCH  17  19
BRANCH   5  20
ATOM     20  C   UNL     1       4.202 -10.546  35.478  0.00  0.00    +0.068 C 
ATOM     23  C   UNL     1       2.801  -9.967  35.628  0.00  0.00    +0.027 C 
ATOM     24  C   UNL     1       4.233 -11.651  34.430  0.00  0.00    +0.027 C 
ENDBRANCH   5  20
TORSDOF 3
ENDMDL
MODEL 10
REMARK VINA RESULT:      -5.8     28.577     31.556
REMARK  Name = 7673828
REMARK  5 active torsions:
REMARK  status: ('A' for Active; 'I' for Inactive)
REMARK    1  A    between atoms: N_5  and  C_20
REMARK    2  A    between atoms: C_17  and  C_19
REMARK    3  A    between atoms: C_20  and  C_23
REMARK    4  A    between atoms: C_20  and  C_24
REMARK    5  A    between atoms: C_25  and  C_28
REMARK                            x       y       z     vdW  Elec       q    Type
REMARK                         _______ _______ _______ _____ _____    ______ ____
ROOT
ATOM      1  O   UNL     1     -11.438  -9.556  19.125  0.00  0.00    -0.267 OA
ATOM      2  O   UNL     1      -6.672 -11.276  20.109  0.00  0.00    -0.253 OA
ATOM      3  N   UNL     1      -7.856 -13.016  19.137  0.00  0.00    -0.285 N 
ATOM      4  N   UNL     1     -10.640 -11.660  18.513  0.00  0.00    -0.311 N 
ATOM      5  N   UNL     1      -6.336 -11.708  17.883  0.00  0.00    -0.297 N 
ATOM      7  C   UNL     1     -10.047 -13.461  20.235  0.00  0.00    +0.027 C 
ATOM      8  C   UNL     1      -9.763 -13.922  17.833  0.00  0.00    +0.054 C 
ATOM      9  C   UNL     1     -10.401 -14.441  19.122  0.00  0.00    +0.018 C 
ATOM     10  C   UNL     1      -8.518 -13.358  20.399  0.00  0.00    +0.114 C 
ATOM     11  C   UNL     1     -10.685 -12.105  19.914  0.00  0.00    +0.130 C 
ATOM     12  C   UNL     1      -8.232 -13.881  18.006  0.00  0.00    +0.119 C 
ATOM     13  C   UNL     1     -10.278 -12.538  17.488  0.00  0.00    +0.027 A 
ATOM     14  C   UNL     1     -10.355 -12.145  16.207  0.00  0.00    +0.022 A 
ATOM     15  C   UNL     1     -11.077 -10.347  18.252  0.00  0.00    +0.259 A 
ATOM     16  C   UNL     1      -6.934 -11.957  19.111  0.00  0.00    +0.302 C 
ATOM     17  C   UNL     1     -11.116  -9.923  16.808  0.00  0.00    +0.047 A 
ATOM     18  C   UNL     1     -10.774 -10.815  15.866  0.00  0.00    +0.015 A 
ATOM     29  H   UNL     1      -6.634 -12.189  17.046  0.00  0.00    +0.150 HD
ENDROOT
BRANCH  17  19
ATOM     19  C   UNL     1     -11.507  -8.554  16.424  0.00  0.00    -0.011 A 
ATOM     21  C   UNL     1     -12.835  -8.270  16.107  0.00  0.00    +0.027 A 
ATOM     22  C   UNL     1     -10.547  -7.542  16.381  0.00  0.00    +0.009 A 
ATOM     25  C   UNL     1     -13.203  -6.974  15.744  0.00  0.00    +0.052 A 
ATOM     26  C   UNL     1     -10.915  -6.247  16.018  0.00  0.00    +0.002 A 
ATOM     27  C   UNL     1     -12.243  -5.963  15.700  0.00  0.00    +0.019 A 
BRANCH  25  28
ATOM      6  N   UNL     1     -15.669  -6.445  15.151  0.00  0.00    -0.191 NA
ATOM     28  C   UNL     1     -14.563  -6.682  15.416  0.00  0.00    +0.099 C 
ENDBRANCH  25  28
ENDBRANCH  17  19
BRANCH   5  20
ATOM     20  C   UNL     1      -5.375 -10.644  17.697  0.00  0.00    +0.068 C 
ATOM     23  C   UNL     1      -3.976 -11.213  17.503  0.00  0.00    +0.027 C 
ATOM     24  C   UNL     1      -5.781  -9.764  16.521  0.00  0.00    +0.027 C 
ENDBRANCH   5  20
TORSDOF 3
ENDMDL
