MODEL 1
REMARK VINA RESULT:      -6.5      0.000      0.000
REMARK  Name = 71693195
REMARK  14 active torsions:
REMARK  status: ('A' for Active; 'I' for Inactive)
REMARK    1  A    between atoms: O_2  and  C_28
REMARK    2  A    between atoms: O_2  and  C_31
REMARK    3  A    between atoms: O_3  and  C_30
REMARK    4  A    between atoms: N_5  and  C_15
REMARK    5  A    between atoms: C_8  and  C_12
REMARK    6  A    between atoms: C_9  and  C_15
REMARK    7  A    between atoms: C_11  and  C_16
REMARK    8  A    between atoms: C_12  and  C_17
REMARK    9  A    between atoms: C_12  and  C_18
REMARK   10  A    between atoms: C_13  and  C_19
REMARK   11  A    between atoms: C_16  and  C_20
REMARK   12  A    between atoms: C_21  and  C_24
REMARK   13  A    between atoms: C_24  and  C_27
REMARK   14  A    between atoms: C_27  and  C_30
REMARK                            x       y       z     vdW  Elec       q    Type
REMARK                         _______ _______ _______ _____ _____    ______ ____
ROOT
ATOM      8  C   UNL     1      11.761   8.057   4.903  0.00  0.00    +0.000 C 
ATOM      9  C   UNL     1      11.021   9.052   5.832  0.00  0.00    +0.032 C 
ATOM     10  C   UNL     1      11.290   8.227   3.451  0.00  0.00    +0.012 C 
ATOM     11  C   UNL     1       9.774   8.001   3.300  0.00  0.00    +0.022 C 
ATOM     13  C   UNL     1       8.985   8.743   4.359  0.00  0.00    -0.073 C 
ATOM     14  C   UNL     1       9.562   9.218   5.478  0.00  0.00    -0.022 C 
ATOM     19  C   UNL     1       7.525   8.969   4.082  0.00  0.00    +0.039 C 
ENDROOT
BRANCH   8  12
ATOM     12  C   UNL     1      13.281   8.232   4.978  0.00  0.00    -0.013 C 
ATOM     17  C   UNL     1      13.972   7.322   3.968  0.00  0.00    +0.007 C 
ATOM     18  C   UNL     1      13.661   9.690   4.743  0.00  0.00    +0.007 C 
ENDBRANCH   8  12
BRANCH   9  15
ATOM     15  C   UNL     1      11.145   8.633   7.301  0.00  0.00    +0.112 C 
BRANCH  15   5
ATOM      1  O   UNL     1      12.336   6.050   7.834  0.00  0.00    -0.276 OA
ATOM      5  N   UNL     1      10.464   7.399   7.537  0.00  0.00    -0.315 N 
ATOM     21  C   UNL     1      11.117   6.191   7.788  0.00  0.00    +0.214 C 
ATOM     32  H   UNL     1       9.448   7.414   7.578  0.00  0.00    +0.149 HD
BRANCH  21  24
ATOM     24  C   UNL     1      10.141   5.048   7.999  0.00  0.00    +0.107 C 
BRANCH  24  27
ATOM     27  C   UNL     1       9.012   5.416   8.958  0.00  0.00    +0.129 C 
BRANCH  27  30
ATOM      4  O   UNL     1      10.257   4.387  10.779  0.00  0.00    -0.251 OA
ATOM     30  C   UNL     1       9.195   4.778  10.315  0.00  0.00    +0.305 C 
BRANCH  30   3
ATOM      3  O   UNL     1       8.015   4.688  10.984  0.00  0.00    -0.481 OA
ATOM     34  H   UNL     1       7.793   3.759  11.209  0.00  0.00    +0.295 HD
ENDBRANCH  30   3
ENDBRANCH  27  30
ENDBRANCH  24  27
ENDBRANCH  21  24
ENDBRANCH  15   5
ENDBRANCH   9  15
BRANCH  11  16
ATOM     16  C   UNL     1       9.435   6.505   3.312  0.00  0.00    +0.082 C 
BRANCH  16  20
ATOM      6  N   UNL     1      10.290   5.756   1.084  0.00  0.00    -0.342 N 
ATOM      7  N   UNL     1      11.361   4.947   2.855  0.00  0.00    -0.232 NA
ATOM     20  C   UNL     1      10.381   5.722   2.447  0.00  0.00    +0.109 A 
ATOM     22  C   UNL     1      11.278   4.949   0.579  0.00  0.00    +0.070 A 
ATOM     23  C   UNL     1      11.931   4.456   1.704  0.00  0.00    +0.089 A 
ATOM     25  C   UNL     1      11.643   4.618  -0.727  0.00  0.00    +0.073 A 
ATOM     26  C   UNL     1      13.017   3.579   1.537  0.00  0.00    +0.033 A 
ATOM     28  C   UNL     1      12.725   3.745  -0.874  0.00  0.00    +0.122 A 
ATOM     29  C   UNL     1      13.402   3.233   0.235  0.00  0.00    +0.048 A 
ATOM     33  H   UNL     1       9.618   6.282   0.543  0.00  0.00    +0.167 HD
BRANCH  28   2
ATOM      2  O   UNL     1      13.127   3.387  -2.128  0.00  0.00    -0.495 OA
ATOM     31  C   UNL     1      12.218   2.604  -2.899  0.00  0.00    +0.277 C 
ENDBRANCH  28   2
ENDBRANCH  16  20
ENDBRANCH  11  16
TORSDOF 10
ENDMDL
MODEL 2
REMARK VINA RESULT:      -6.4     13.363     18.220
REMARK  Name = 71693195
REMARK  14 active torsions:
REMARK  status: ('A' for Active; 'I' for Inactive)
REMARK    1  A    between atoms: O_2  and  C_28
REMARK    2  A    between atoms: O_2  and  C_31
REMARK    3  A    between atoms: O_3  and  C_30
REMARK    4  A    between atoms: N_5  and  C_15
REMARK    5  A    between atoms: C_8  and  C_12
REMARK    6  A    between atoms: C_9  and  C_15
REMARK    7  A    between atoms: C_11  and  C_16
REMARK    8  A    between atoms: C_12  and  C_17
REMARK    9  A    between atoms: C_12  and  C_18
REMARK   10  A    between atoms: C_13  and  C_19
REMARK   11  A    between atoms: C_16  and  C_20
REMARK   12  A    between atoms: C_21  and  C_24
REMARK   13  A    between atoms: C_24  and  C_27
REMARK   14  A    between atoms: C_27  and  C_30
REMARK                            x       y       z     vdW  Elec       q    Type
REMARK                         _______ _______ _______ _____ _____    ______ ____
ROOT
ATOM      8  C   UNL     1      13.087   8.368  20.919  0.00  0.00    +0.000 C 
ATOM      9  C   UNL     1      13.066   9.895  21.182  0.00  0.00    +0.032 C 
ATOM     10  C   UNL     1      14.103   7.679  21.842  0.00  0.00    +0.012 C 
ATOM     11  C   UNL     1      15.530   8.227  21.650  0.00  0.00    +0.022 C 
ATOM     13  C   UNL     1      15.553   9.741  21.629  0.00  0.00    -0.073 C 
ATOM     14  C   UNL     1      14.440  10.471  21.432  0.00  0.00    -0.022 C 
ATOM     19  C   UNL     1      16.879  10.402  21.886  0.00  0.00    +0.039 C 
ENDROOT
BRANCH   8  12
ATOM     12  C   UNL     1      11.703   7.739  21.111  0.00  0.00    -0.013 C 
ATOM     17  C   UNL     1      11.814   6.219  21.177  0.00  0.00    +0.007 C 
ATOM     18  C   UNL     1      11.038   8.288  22.368  0.00  0.00    +0.007 C 
ENDBRANCH   8  12
BRANCH   9  15
ATOM     15  C   UNL     1      12.401  10.647  20.024  0.00  0.00    +0.112 C 
BRANCH  15   5
ATOM      1  O   UNL     1      13.845  12.312  18.149  0.00  0.00    -0.276 OA
ATOM      5  N   UNL     1      12.963  10.251  18.772  0.00  0.00    -0.315 N 
ATOM     21  C   UNL     1      13.648  11.121  17.921  0.00  0.00    +0.214 C 
ATOM     32  H   UNL     1      12.908   9.270  18.511  0.00  0.00    +0.149 HD
BRANCH  21  24
ATOM     24  C   UNL     1      14.132  10.426  16.662  0.00  0.00    +0.107 C 
BRANCH  24  27
ATOM     27  C   UNL     1      13.373   9.132  16.384  0.00  0.00    +0.129 C 
BRANCH  27  30
ATOM      4  O   UNL     1      11.025   8.779  15.848  0.00  0.00    -0.251 OA
ATOM     30  C   UNL     1      12.070   9.385  15.662  0.00  0.00    +0.305 C 
BRANCH  30   3
ATOM      3  O   UNL     1      12.193  10.394  14.758  0.00  0.00    -0.481 OA
ATOM     34  H   UNL     1      11.777  10.167  13.899  0.00  0.00    +0.295 HD
ENDBRANCH  30   3
ENDBRANCH  27  30
ENDBRANCH  24  27
ENDBRANCH  21  24
ENDBRANCH  15   5
ENDBRANCH   9  15
BRANCH  11  16
ATOM     16  C   UNL     1      16.177   7.651  20.385  0.00  0.00    +0.082 C 
BRANCH  16  20
ATOM      6  N   UNL     1      18.157   7.256  21.862  0.00  0.00    -0.342 N 
ATOM      7  N   UNL     1      18.160   6.168  19.924  0.00  0.00    -0.232 NA
ATOM     20  C   UNL     1      17.498   7.005  20.691  0.00  0.00    +0.109 A 
ATOM     22  C   UNL     1      19.321   6.531  21.851  0.00  0.00    +0.070 A 
ATOM     23  C   UNL     1      19.300   5.860  20.631  0.00  0.00    +0.089 A 
ATOM     25  C   UNL     1      20.360   6.408  22.775  0.00  0.00    +0.073 A 
ATOM     26  C   UNL     1      20.369   5.013  20.296  0.00  0.00    +0.033 A 
ATOM     28  C   UNL     1      21.415   5.560  22.425  0.00  0.00    +0.122 A 
ATOM     29  C   UNL     1      21.423   4.874  21.208  0.00  0.00    +0.048 A 
ATOM     33  H   UNL     1      17.844   7.865  22.605  0.00  0.00    +0.167 HD
BRANCH  28   2
ATOM      2  O   UNL     1      22.458   5.402  23.290  0.00  0.00    -0.495 OA
ATOM     31  C   UNL     1      23.771   5.506  22.746  0.00  0.00    +0.277 C 
ENDBRANCH  28   2
ENDBRANCH  16  20
ENDBRANCH  11  16
TORSDOF 10
ENDMDL
MODEL 3
REMARK VINA RESULT:      -6.3      2.511      4.275
REMARK  Name = 71693195
REMARK  14 active torsions:
REMARK  status: ('A' for Active; 'I' for Inactive)
REMARK    1  A    between atoms: O_2  and  C_28
REMARK    2  A    between atoms: O_2  and  C_31
REMARK    3  A    between atoms: O_3  and  C_30
REMARK    4  A    between atoms: N_5  and  C_15
REMARK    5  A    between atoms: C_8  and  C_12
REMARK    6  A    between atoms: C_9  and  C_15
REMARK    7  A    between atoms: C_11  and  C_16
REMARK    8  A    between atoms: C_12  and  C_17
REMARK    9  A    between atoms: C_12  and  C_18
REMARK   10  A    between atoms: C_13  and  C_19
REMARK   11  A    between atoms: C_16  and  C_20
REMARK   12  A    between atoms: C_21  and  C_24
REMARK   13  A    between atoms: C_24  and  C_27
REMARK   14  A    between atoms: C_27  and  C_30
REMARK                            x       y       z     vdW  Elec       q    Type
REMARK                         _______ _______ _______ _____ _____    ______ ____
ROOT
ATOM      8  C   UNL     1       9.112   8.180   5.053  0.00  0.00    +0.000 C 
ATOM      9  C   UNL     1       8.707   8.932   6.346  0.00  0.00    +0.032 C 
ATOM     10  C   UNL     1       8.583   6.738   5.083  0.00  0.00    +0.012 C 
ATOM     11  C   UNL     1       9.112   5.948   6.295  0.00  0.00    +0.022 C 
ATOM     13  C   UNL     1       8.992   6.740   7.580  0.00  0.00    -0.073 C 
ATOM     14  C   UNL     1       8.797   8.071   7.584  0.00  0.00    -0.022 C 
ATOM     19  C   UNL     1       9.054   5.961   8.864  0.00  0.00    +0.039 C 
ENDROOT
BRANCH   8  12
ATOM     12  C   UNL     1       8.602   8.893   3.797  0.00  0.00    -0.013 C 
ATOM     17  C   UNL     1       8.825   8.023   2.564  0.00  0.00    +0.007 C 
ATOM     18  C   UNL     1       7.128   9.250   3.948  0.00  0.00    +0.007 C 
ENDBRANCH   8  12
BRANCH   9  15
ATOM     15  C   UNL     1       9.553  10.195   6.539  0.00  0.00    +0.112 C 
BRANCH  15   5
ATOM      1  O   UNL     1      11.655  10.610   8.484  0.00  0.00    -0.276 OA
ATOM      5  N   UNL     1      10.944   9.903   6.386  0.00  0.00    -0.315 N 
ATOM     21  C   UNL     1      11.898  10.135   7.378  0.00  0.00    +0.214 C 
ATOM     32  H   UNL     1      11.245   9.452   5.526  0.00  0.00    +0.149 HD
BRANCH  21  24
ATOM     24  C   UNL     1      13.292   9.732   6.935  0.00  0.00    +0.107 C 
BRANCH  24  27
ATOM     27  C   UNL     1      13.282   8.503   6.031  0.00  0.00    +0.129 C 
BRANCH  27  30
ATOM      4  O   UNL     1      15.552   7.763   6.508  0.00  0.00    -0.251 OA
ATOM     30  C   UNL     1      14.359   7.513   6.414  0.00  0.00    +0.305 C 
BRANCH  30   3
ATOM      3  O   UNL     1      13.837   6.280   6.651  0.00  0.00    -0.481 OA
ATOM     34  H   UNL     1      12.871   6.318   6.813  0.00  0.00    +0.295 HD
ENDBRANCH  30   3
ENDBRANCH  27  30
ENDBRANCH  24  27
ENDBRANCH  21  24
ENDBRANCH  15   5
ENDBRANCH   9  15
BRANCH  11  16
ATOM     16  C   UNL     1      10.558   5.490   6.066  0.00  0.00    +0.082 C 
BRANCH  16  20
ATOM      6  N   UNL     1      11.889   5.956   4.000  0.00  0.00    -0.342 N 
ATOM      7  N   UNL     1      10.188   4.546   3.760  0.00  0.00    -0.232 NA
ATOM     20  C   UNL     1      10.850   5.306   4.604  0.00  0.00    +0.109 A 
ATOM     22  C   UNL     1      11.899   5.590   2.678  0.00  0.00    +0.070 A 
ATOM     23  C   UNL     1      10.827   4.710   2.554  0.00  0.00    +0.089 A 
ATOM     25  C   UNL     1      12.729   5.943   1.612  0.00  0.00    +0.073 A 
ATOM     26  C   UNL     1      10.552   4.139   1.300  0.00  0.00    +0.033 A 
ATOM     28  C   UNL     1      12.440   5.364   0.372  0.00  0.00    +0.122 A 
ATOM     29  C   UNL     1      11.371   4.479   0.216  0.00  0.00    +0.048 A 
ATOM     33  H   UNL     1      12.537   6.591   4.445  0.00  0.00    +0.167 HD
BRANCH  28   2
ATOM      2  O   UNL     1      13.217   5.674  -0.705  0.00  0.00    -0.495 OA
ATOM     31  C   UNL     1      13.736   6.999  -0.768  0.00  0.00    +0.277 C 
ENDBRANCH  28   2
ENDBRANCH  16  20
ENDBRANCH  11  16
TORSDOF 10
ENDMDL
MODEL 4
REMARK VINA RESULT:      -6.3     23.032     27.554
REMARK  Name = 71693195
REMARK  14 active torsions:
REMARK  status: ('A' for Active; 'I' for Inactive)
REMARK    1  A    between atoms: O_2  and  C_28
REMARK    2  A    between atoms: O_2  and  C_31
REMARK    3  A    between atoms: O_3  and  C_30
REMARK    4  A    between atoms: N_5  and  C_15
REMARK    5  A    between atoms: C_8  and  C_12
REMARK    6  A    between atoms: C_9  and  C_15
REMARK    7  A    between atoms: C_11  and  C_16
REMARK    8  A    between atoms: C_12  and  C_17
REMARK    9  A    between atoms: C_12  and  C_18
REMARK   10  A    between atoms: C_13  and  C_19
REMARK   11  A    between atoms: C_16  and  C_20
REMARK   12  A    between atoms: C_21  and  C_24
REMARK   13  A    between atoms: C_24  and  C_27
REMARK   14  A    between atoms: C_27  and  C_30
REMARK                            x       y       z     vdW  Elec       q    Type
REMARK                         _______ _______ _______ _____ _____    ______ ____
ROOT
ATOM      8  C   UNL     1      -5.740 -10.640  17.772  0.00  0.00    +0.000 C 
ATOM      9  C   UNL     1      -5.134 -10.995  16.391  0.00  0.00    +0.032 C 
ATOM     10  C   UNL     1      -7.248 -10.932  17.787  0.00  0.00    +0.012 C 
ATOM     11  C   UNL     1      -8.005 -10.141  16.704  0.00  0.00    +0.022 C 
ATOM     13  C   UNL     1      -7.314 -10.223  15.359  0.00  0.00    -0.073 C 
ATOM     14  C   UNL     1      -6.034 -10.620  15.237  0.00  0.00    -0.022 C 
ATOM     19  C   UNL     1      -8.140  -9.884  14.150  0.00  0.00    +0.039 C 
ENDROOT
BRANCH   8  12
ATOM     12  C   UNL     1      -5.053 -11.405  18.908  0.00  0.00    -0.013 C 
ATOM     17  C   UNL     1      -5.906 -11.359  20.172  0.00  0.00    +0.007 C 
ATOM     18  C   UNL     1      -4.780 -12.845  18.491  0.00  0.00    +0.007 C 
ENDBRANCH   8  12
BRANCH   9  15
ATOM     15  C   UNL     1      -3.763 -10.336  16.203  0.00  0.00    +0.112 C 
BRANCH  15   5
ATOM      1  O   UNL     1      -1.058 -10.420  15.179  0.00  0.00    -0.276 OA
ATOM      5  N   UNL     1      -3.358 -10.387  14.834  0.00  0.00    -0.315 N 
ATOM     21  C   UNL     1      -2.025 -10.425  14.422  0.00  0.00    +0.214 C 
ATOM     32  H   UNL     1      -4.083 -10.453  14.123  0.00  0.00    +0.149 HD
BRANCH  21  24
ATOM     24  C   UNL     1      -1.896 -10.472  12.910  0.00  0.00    +0.107 C 
BRANCH  24  27
ATOM     27  C   UNL     1      -3.245 -10.629  12.216  0.00  0.00    +0.129 C 
BRANCH  27  30
ATOM      4  O   UNL     1      -2.401  -9.202  10.434  0.00  0.00    -0.251 OA
ATOM     30  C   UNL     1      -3.333  -9.794  10.959  0.00  0.00    +0.305 C 
BRANCH  30   3
ATOM      3  O   UNL     1      -4.598  -9.777  10.462  0.00  0.00    -0.481 OA
ATOM     34  H   UNL     1      -5.203  -9.245  11.021  0.00  0.00    +0.295 HD
ENDBRANCH  30   3
ENDBRANCH  27  30
ENDBRANCH  24  27
ENDBRANCH  21  24
ENDBRANCH  15   5
ENDBRANCH   9  15
BRANCH  11  16
ATOM     16  C   UNL     1      -8.210  -8.681  17.127  0.00  0.00    +0.082 C 
BRANCH  16  20
ATOM      6  N   UNL     1      -9.619  -7.037  15.875  0.00  0.00    -0.342 N 
ATOM      7  N   UNL     1     -10.720  -8.661  16.918  0.00  0.00    -0.232 NA
ATOM     20  C   UNL     1      -9.535  -8.155  16.657  0.00  0.00    +0.109 A 
ATOM     22  C   UNL     1     -10.945  -6.808  15.612  0.00  0.00    +0.070 A 
ATOM     23  C   UNL     1     -11.612  -7.835  16.275  0.00  0.00    +0.089 A 
ATOM     25  C   UNL     1     -11.600  -5.820  14.875  0.00  0.00    +0.073 A 
ATOM     26  C   UNL     1     -13.014  -7.896  16.209  0.00  0.00    +0.033 A 
ATOM     28  C   UNL     1     -12.995  -5.897  14.820  0.00  0.00    +0.122 A 
ATOM     29  C   UNL     1     -13.692  -6.915  15.475  0.00  0.00    +0.048 A 
ATOM     33  H   UNL     1      -8.843  -6.479  15.545  0.00  0.00    +0.167 HD
BRANCH  28   2
ATOM      2  O   UNL     1     -13.687  -4.957  14.114  0.00  0.00    -0.495 OA
ATOM     31  C   UNL     1     -13.067  -4.447  12.937  0.00  0.00    +0.277 C 
ENDBRANCH  28   2
ENDBRANCH  16  20
ENDBRANCH  11  16
TORSDOF 10
ENDMDL
MODEL 5
REMARK VINA RESULT:      -6.2     25.191     30.140
REMARK  Name = 71693195
REMARK  14 active torsions:
REMARK  status: ('A' for Active; 'I' for Inactive)
REMARK    1  A    between atoms: O_2  and  C_28
REMARK    2  A    between atoms: O_2  and  C_31
REMARK    3  A    between atoms: O_3  and  C_30
REMARK    4  A    between atoms: N_5  and  C_15
REMARK    5  A    between atoms: C_8  and  C_12
REMARK    6  A    between atoms: C_9  and  C_15
REMARK    7  A    between atoms: C_11  and  C_16
REMARK    8  A    between atoms: C_12  and  C_17
REMARK    9  A    between atoms: C_12  and  C_18
REMARK   10  A    between atoms: C_13  and  C_19
REMARK   11  A    between atoms: C_16  and  C_20
REMARK   12  A    between atoms: C_21  and  C_24
REMARK   13  A    between atoms: C_24  and  C_27
REMARK   14  A    between atoms: C_27  and  C_30
REMARK                            x       y       z     vdW  Elec       q    Type
REMARK                         _______ _______ _______ _____ _____    ______ ____
ROOT
ATOM      8  C   UNL     1      -7.589 -10.044  16.694  0.00  0.00    +0.000 C 
ATOM      9  C   UNL     1      -6.127  -9.680  16.334  0.00  0.00    +0.032 C 
ATOM     10  C   UNL     1      -7.746 -10.196  18.214  0.00  0.00    +0.012 C 
ATOM     11  C   UNL     1      -6.817 -11.282  18.789  0.00  0.00    +0.022 C 
ATOM     13  C   UNL     1      -5.402 -11.149  18.264  0.00  0.00    -0.073 C 
ATOM     14  C   UNL     1      -5.110 -10.418  17.174  0.00  0.00    -0.022 C 
ATOM     19  C   UNL     1      -4.321 -11.839  19.049  0.00  0.00    +0.039 C 
ENDROOT
BRANCH   8  12
ATOM     12  C   UNL     1      -8.579  -8.997  16.174  0.00  0.00    -0.013 C 
ATOM     17  C   UNL     1      -9.526  -9.621  15.153  0.00  0.00    +0.007 C 
ATOM     18  C   UNL     1      -9.360  -8.381  17.329  0.00  0.00    +0.007 C 
ENDBRANCH   8  12
BRANCH   9  15
ATOM     15  C   UNL     1      -5.843  -9.933  14.850  0.00  0.00    +0.112 C 
BRANCH  15   5
ATOM      1  O   UNL     1      -4.472 -10.313  12.329  0.00  0.00    -0.276 OA
ATOM      5  N   UNL     1      -4.490 -10.352  14.655  0.00  0.00    -0.315 N 
ATOM     21  C   UNL     1      -3.903 -10.512  13.399  0.00  0.00    +0.214 C 
ATOM     32  H   UNL     1      -3.909 -10.489  15.478  0.00  0.00    +0.149 HD
BRANCH  21  24
ATOM     24  C   UNL     1      -2.458 -10.967  13.498  0.00  0.00    +0.107 C 
BRANCH  24  27
ATOM     27  C   UNL     1      -2.143 -11.613  14.844  0.00  0.00    +0.129 C 
BRANCH  27  30
ATOM      4  O   UNL     1      -0.792  -9.668  15.405  0.00  0.00    -0.251 OA
ATOM     30  C   UNL     1      -1.391 -10.674  15.758  0.00  0.00    +0.305 C 
BRANCH  30   3
ATOM      3  O   UNL     1      -1.460 -11.082  17.053  0.00  0.00    -0.481 OA
ATOM     34  H   UNL     1      -1.189 -12.019  17.155  0.00  0.00    +0.295 HD
ENDBRANCH  30   3
ENDBRANCH  27  30
ENDBRANCH  24  27
ENDBRANCH  21  24
ENDBRANCH  15   5
ENDBRANCH   9  15
BRANCH  11  16
ATOM     16  C   UNL     1      -7.373 -12.685  18.517  0.00  0.00    +0.082 C 
BRANCH  16  20
ATOM      6  N   UNL     1      -8.411 -14.008  20.370  0.00  0.00    -0.342 N 
ATOM      7  N   UNL     1      -9.687 -12.423  19.477  0.00  0.00    -0.232 NA
ATOM     20  C   UNL     1      -8.512 -13.011  19.440  0.00  0.00    +0.109 A 
ATOM     22  C   UNL     1      -9.598 -14.066  21.053  0.00  0.00    +0.070 A 
ATOM     23  C   UNL     1     -10.379 -13.067  20.477  0.00  0.00    +0.089 A 
ATOM     25  C   UNL     1     -10.044 -14.882  22.094  0.00  0.00    +0.073 A 
ATOM     26  C   UNL     1     -11.683 -12.856  20.954  0.00  0.00    +0.033 A 
ATOM     28  C   UNL     1     -11.344 -14.658  22.556  0.00  0.00    +0.122 A 
ATOM     29  C   UNL     1     -12.152 -13.664  21.998  0.00  0.00    +0.048 A 
ATOM     33  H   UNL     1      -7.604 -14.596  20.529  0.00  0.00    +0.167 HD
BRANCH  28   2
ATOM      2  O   UNL     1     -11.833 -15.426  23.572  0.00  0.00    -0.495 OA
ATOM     31  C   UNL     1     -11.261 -15.231  24.863  0.00  0.00    +0.277 C 
ENDBRANCH  28   2
ENDBRANCH  16  20
ENDBRANCH  11  16
TORSDOF 10
ENDMDL
MODEL 6
REMARK VINA RESULT:      -6.2     13.023     17.703
REMARK  Name = 71693195
REMARK  14 active torsions:
REMARK  status: ('A' for Active; 'I' for Inactive)
REMARK    1  A    between atoms: O_2  and  C_28
REMARK    2  A    between atoms: O_2  and  C_31
REMARK    3  A    between atoms: O_3  and  C_30
REMARK    4  A    between atoms: N_5  and  C_15
REMARK    5  A    between atoms: C_8  and  C_12
REMARK    6  A    between atoms: C_9  and  C_15
REMARK    7  A    between atoms: C_11  and  C_16
REMARK    8  A    between atoms: C_12  and  C_17
REMARK    9  A    between atoms: C_12  and  C_18
REMARK   10  A    between atoms: C_13  and  C_19
REMARK   11  A    between atoms: C_16  and  C_20
REMARK   12  A    between atoms: C_21  and  C_24
REMARK   13  A    between atoms: C_24  and  C_27
REMARK   14  A    between atoms: C_27  and  C_30
REMARK                            x       y       z     vdW  Elec       q    Type
REMARK                         _______ _______ _______ _____ _____    ______ ____
ROOT
ATOM      8  C   UNL     1      12.803   8.036  20.629  0.00  0.00    +0.000 C 
ATOM      9  C   UNL     1      12.692   9.568  20.424  0.00  0.00    +0.032 C 
ATOM     10  C   UNL     1      13.902   7.710  21.651  0.00  0.00    +0.012 C 
ATOM     11  C   UNL     1      15.279   8.244  21.216  0.00  0.00    +0.022 C 
ATOM     13  C   UNL     1      15.202   9.681  20.742  0.00  0.00    -0.073 C 
ATOM     14  C   UNL     1      14.035  10.260  20.405  0.00  0.00    -0.022 C 
ATOM     19  C   UNL     1      16.491  10.453  20.707  0.00  0.00    +0.039 C 
ENDROOT
BRANCH   8  12
ATOM     12  C   UNL     1      11.474   7.426  21.085  0.00  0.00    -0.013 C 
ATOM     17  C   UNL     1      11.648   5.943  21.398  0.00  0.00    +0.007 C 
ATOM     18  C   UNL     1      10.933   8.175  22.299  0.00  0.00    +0.007 C 
ENDBRANCH   8  12
BRANCH   9  15
ATOM     15  C   UNL     1      11.929   9.899  19.137  0.00  0.00    +0.112 C 
BRANCH  15   5
ATOM      1  O   UNL     1      11.712   7.734  17.231  0.00  0.00    -0.276 OA
ATOM      5  N   UNL     1      12.747   9.674  17.988  0.00  0.00    -0.315 N 
ATOM     21  C   UNL     1      12.576   8.598  17.114  0.00  0.00    +0.214 C 
ATOM     32  H   UNL     1      13.459  10.365  17.765  0.00  0.00    +0.149 HD
BRANCH  21  24
ATOM     24  C   UNL     1      13.590   8.613  15.986  0.00  0.00    +0.107 C 
BRANCH  24  27
ATOM     27  C   UNL     1      14.640   9.706  16.160  0.00  0.00    +0.129 C 
BRANCH  27  30
ATOM      4  O   UNL     1      13.925  11.717  14.990  0.00  0.00    -0.251 OA
ATOM     30  C   UNL     1      14.608  10.705  15.026  0.00  0.00    +0.305 C 
BRANCH  30   3
ATOM      3  O   UNL     1      15.451  10.342  14.023  0.00  0.00    -0.481 OA
ATOM     34  H   UNL     1      15.584  11.068  13.377  0.00  0.00    +0.295 HD
ENDBRANCH  30   3
ENDBRANCH  27  30
ENDBRANCH  24  27
ENDBRANCH  21  24
ENDBRANCH  15   5
ENDBRANCH   9  15
BRANCH  11  16
ATOM     16  C   UNL     1      15.907   7.346  20.144  0.00  0.00    +0.082 C 
BRANCH  16  20
ATOM      6  N   UNL     1      17.950   5.937  19.828  0.00  0.00    -0.342 N 
ATOM      7  N   UNL     1      17.962   7.278  21.600  0.00  0.00    -0.232 NA
ATOM     20  C   UNL     1      17.274   6.877  20.554  0.00  0.00    +0.109 A 
ATOM     22  C   UNL     1      19.155   5.718  20.445  0.00  0.00    +0.070 A 
ATOM     23  C   UNL     1      19.138   6.566  21.549  0.00  0.00    +0.089 A 
ATOM     25  C   UNL     1      20.226   4.875  20.143  0.00  0.00    +0.073 A 
ATOM     26  C   UNL     1      20.246   6.589  22.413  0.00  0.00    +0.033 A 
ATOM     28  C   UNL     1      21.319   4.911  21.013  0.00  0.00    +0.122 A 
ATOM     29  C   UNL     1      21.332   5.751  22.129  0.00  0.00    +0.048 A 
ATOM     33  H   UNL     1      17.624   5.485  18.985  0.00  0.00    +0.167 HD
BRANCH  28   2
ATOM      2  O   UNL     1      22.395   4.108  20.767  0.00  0.00    -0.495 OA
ATOM     31  C   UNL     1      23.680   4.634  21.086  0.00  0.00    +0.277 C 
ENDBRANCH  28   2
ENDBRANCH  16  20
ENDBRANCH  11  16
TORSDOF 10
ENDMDL
MODEL 7
REMARK VINA RESULT:      -6.2     26.373     29.404
REMARK  Name = 71693195
REMARK  14 active torsions:
REMARK  status: ('A' for Active; 'I' for Inactive)
REMARK    1  A    between atoms: O_2  and  C_28
REMARK    2  A    between atoms: O_2  and  C_31
REMARK    3  A    between atoms: O_3  and  C_30
REMARK    4  A    between atoms: N_5  and  C_15
REMARK    5  A    between atoms: C_8  and  C_12
REMARK    6  A    between atoms: C_9  and  C_15
REMARK    7  A    between atoms: C_11  and  C_16
REMARK    8  A    between atoms: C_12  and  C_17
REMARK    9  A    between atoms: C_12  and  C_18
REMARK   10  A    between atoms: C_13  and  C_19
REMARK   11  A    between atoms: C_16  and  C_20
REMARK   12  A    between atoms: C_21  and  C_24
REMARK   13  A    between atoms: C_24  and  C_27
REMARK   14  A    between atoms: C_27  and  C_30
REMARK                            x       y       z     vdW  Elec       q    Type
REMARK                         _______ _______ _______ _____ _____    ______ ____
ROOT
ATOM      8  C   UNL     1     -11.096  -9.844  18.885  0.00  0.00    +0.000 C 
ATOM      9  C   UNL     1      -9.895 -10.716  18.440  0.00  0.00    +0.032 C 
ATOM     10  C   UNL     1     -12.075  -9.645  17.719  0.00  0.00    +0.012 C 
ATOM     11  C   UNL     1     -11.407  -8.972  16.505  0.00  0.00    +0.022 C 
ATOM     13  C   UNL     1     -10.076  -9.611  16.169  0.00  0.00    -0.073 C 
ATOM     14  C   UNL     1      -9.421 -10.398  17.041  0.00  0.00    -0.022 C 
ATOM     19  C   UNL     1      -9.534  -9.363  14.789  0.00  0.00    +0.039 C 
ENDROOT
BRANCH   8  12
ATOM     12  C   UNL     1     -11.832 -10.458  20.080  0.00  0.00    -0.013 C 
ATOM     17  C   UNL     1     -13.097  -9.664  20.392  0.00  0.00    +0.007 C 
ATOM     18  C   UNL     1     -12.165 -11.920  19.806  0.00  0.00    +0.007 C 
ENDBRANCH   8  12
BRANCH   9  15
ATOM     15  C   UNL     1      -8.723 -10.583  19.419  0.00  0.00    +0.112 C 
BRANCH  15   5
ATOM      1  O   UNL     1      -6.099 -10.905  20.596  0.00  0.00    -0.276 OA
ATOM      5  N   UNL     1      -7.474 -10.686  18.733  0.00  0.00    -0.315 N 
ATOM     21  C   UNL     1      -6.246 -10.840  19.379  0.00  0.00    +0.214 C 
ATOM     32  H   UNL     1      -7.487 -10.702  17.716  0.00  0.00    +0.149 HD
BRANCH  21  24
ATOM     24  C   UNL     1      -5.090 -10.920  18.398  0.00  0.00    +0.107 C 
BRANCH  24  27
ATOM     27  C   UNL     1      -5.542 -11.327  16.999  0.00  0.00    +0.129 C 
BRANCH  27  30
ATOM      4  O   UNL     1      -4.324 -10.455  15.080  0.00  0.00    -0.251 OA
ATOM     30  C   UNL     1      -5.158 -10.298  15.960  0.00  0.00    +0.305 C 
BRANCH  30   3
ATOM      3  O   UNL     1      -5.865  -9.148  16.117  0.00  0.00    -0.481 OA
ATOM     34  H   UNL     1      -5.341  -8.457  16.577  0.00  0.00    +0.295 HD
ENDBRANCH  30   3
ENDBRANCH  27  30
ENDBRANCH  24  27
ENDBRANCH  21  24
ENDBRANCH  15   5
ENDBRANCH   9  15
BRANCH  11  16
ATOM     16  C   UNL     1     -11.251  -7.463  16.727  0.00  0.00    +0.082 C 
BRANCH  16  20
ATOM      6  N   UNL     1     -11.449  -5.773  14.893  0.00  0.00    -0.342 N 
ATOM      7  N   UNL     1     -13.346  -6.742  15.529  0.00  0.00    -0.232 NA
ATOM     20  C   UNL     1     -12.048  -6.676  15.727  0.00  0.00    +0.109 A 
ATOM     22  C   UNL     1     -12.426  -5.220  14.105  0.00  0.00    +0.070 A 
ATOM     23  C   UNL     1     -13.600  -5.841  14.522  0.00  0.00    +0.089 A 
ATOM     25  C   UNL     1     -12.384  -4.259  13.094  0.00  0.00    +0.073 A 
ATOM     26  C   UNL     1     -14.814  -5.495  13.905  0.00  0.00    +0.033 A 
ATOM     28  C   UNL     1     -13.601  -3.927  12.491  0.00  0.00    +0.122 A 
ATOM     29  C   UNL     1     -14.796  -4.532  12.887  0.00  0.00    +0.048 A 
ATOM     33  H   UNL     1     -10.463  -5.553  14.861  0.00  0.00    +0.167 HD
BRANCH  28   2
ATOM      2  O   UNL     1     -13.620  -2.993  11.497  0.00  0.00    -0.495 OA
ATOM     31  C   UNL     1     -14.758  -2.985  10.639  0.00  0.00    +0.277 C 
ENDBRANCH  28   2
ENDBRANCH  16  20
ENDBRANCH  11  16
TORSDOF 10
ENDMDL
MODEL 8
REMARK VINA RESULT:      -6.1     22.649     24.913
REMARK  Name = 71693195
REMARK  14 active torsions:
REMARK  status: ('A' for Active; 'I' for Inactive)
REMARK    1  A    between atoms: O_2  and  C_28
REMARK    2  A    between atoms: O_2  and  C_31
REMARK    3  A    between atoms: O_3  and  C_30
REMARK    4  A    between atoms: N_5  and  C_15
REMARK    5  A    between atoms: C_8  and  C_12
REMARK    6  A    between atoms: C_9  and  C_15
REMARK    7  A    between atoms: C_11  and  C_16
REMARK    8  A    between atoms: C_12  and  C_17
REMARK    9  A    between atoms: C_12  and  C_18
REMARK   10  A    between atoms: C_13  and  C_19
REMARK   11  A    between atoms: C_16  and  C_20
REMARK   12  A    between atoms: C_21  and  C_24
REMARK   13  A    between atoms: C_24  and  C_27
REMARK   14  A    between atoms: C_27  and  C_30
REMARK                            x       y       z     vdW  Elec       q    Type
REMARK                         _______ _______ _______ _____ _____    ______ ____
ROOT
ATOM      8  C   UNL     1      -3.144 -12.103  12.571  0.00  0.00    +0.000 C 
ATOM      9  C   UNL     1      -2.033 -11.033  12.426  0.00  0.00    +0.032 C 
ATOM     10  C   UNL     1      -3.750 -12.437  11.200  0.00  0.00    +0.012 C 
ATOM     11  C   UNL     1      -4.353 -11.197  10.512  0.00  0.00    +0.022 C 
ATOM     13  C   UNL     1      -3.414 -10.011  10.566  0.00  0.00    -0.073 C 
ATOM     14  C   UNL     1      -2.374  -9.960  11.418  0.00  0.00    -0.022 C 
ATOM     19  C   UNL     1      -3.668  -8.900   9.585  0.00  0.00    +0.039 C 
ENDROOT
BRANCH   8  12
ATOM     12  C   UNL     1      -2.619 -13.382  13.230  0.00  0.00    -0.013 C 
ATOM     17  C   UNL     1      -3.571 -13.844  14.329  0.00  0.00    +0.007 C 
ATOM     18  C   UNL     1      -2.424 -14.478  12.188  0.00  0.00    +0.007 C 
ENDBRANCH   8  12
BRANCH   9  15
ATOM     15  C   UNL     1      -1.712 -10.382  13.775  0.00  0.00    +0.112 C 
BRANCH  15   5
ATOM      1  O   UNL     1      -1.720 -10.871  16.628  0.00  0.00    -0.276 OA
ATOM      5  N   UNL     1      -2.847 -10.425  14.643  0.00  0.00    -0.315 N 
ATOM     21  C   UNL     1      -2.764 -10.668  16.015  0.00  0.00    +0.214 C 
ATOM     32  H   UNL     1      -3.759 -10.212  14.247  0.00  0.00    +0.149 HD
BRANCH  21  24
ATOM     24  C   UNL     1      -4.129 -10.657  16.680  0.00  0.00    +0.107 C 
BRANCH  24  27
ATOM     27  C   UNL     1      -4.420 -11.951  17.433  0.00  0.00    +0.129 C 
BRANCH  27  30
ATOM      4  O   UNL     1      -5.132 -11.496  19.716  0.00  0.00    -0.251 OA
ATOM     30  C   UNL     1      -4.245 -11.786  18.926  0.00  0.00    +0.305 C 
BRANCH  30   3
ATOM      3  O   UNL     1      -2.958 -12.007  19.302  0.00  0.00    -0.481 OA
ATOM     34  H   UNL     1      -2.351 -12.029  18.531  0.00  0.00    +0.295 HD
ENDBRANCH  30   3
ENDBRANCH  27  30
ENDBRANCH  24  27
ENDBRANCH  21  24
ENDBRANCH  15   5
ENDBRANCH   9  15
BRANCH  11  16
ATOM     16  C   UNL     1      -5.719 -10.843  11.111  0.00  0.00    +0.082 C 
BRANCH  16  20
ATOM      6  N   UNL     1      -6.737 -10.462   8.858  0.00  0.00    -0.342 N 
ATOM      7  N   UNL     1      -7.171  -8.914  10.393  0.00  0.00    -0.232 NA
ATOM     20  C   UNL     1      -6.551 -10.046  10.147  0.00  0.00    +0.109 A 
ATOM     22  C   UNL     1      -7.532  -9.536   8.231  0.00  0.00    +0.070 A 
ATOM     23  C   UNL     1      -7.788  -8.580   9.210  0.00  0.00    +0.089 A 
ATOM     25  C   UNL     1      -8.032  -9.455   6.931  0.00  0.00    +0.073 A 
ATOM     26  C   UNL     1      -8.589  -7.470   8.891  0.00  0.00    +0.033 A 
ATOM     28  C   UNL     1      -8.827  -8.345   6.632  0.00  0.00    +0.122 A 
ATOM     29  C   UNL     1      -9.102  -7.368   7.592  0.00  0.00    +0.048 A 
ATOM     33  H   UNL     1      -6.360 -11.301   8.441  0.00  0.00    +0.167 HD
BRANCH  28   2
ATOM      2  O   UNL     1      -9.344  -8.213   5.375  0.00  0.00    -0.495 OA
ATOM     31  C   UNL     1     -10.341  -7.213   5.188  0.00  0.00    +0.277 C 
ENDBRANCH  28   2
ENDBRANCH  16  20
ENDBRANCH  11  16
TORSDOF 10
ENDMDL
MODEL 9
REMARK VINA RESULT:      -6.1     23.433     27.311
REMARK  Name = 71693195
REMARK  14 active torsions:
REMARK  status: ('A' for Active; 'I' for Inactive)
REMARK    1  A    between atoms: O_2  and  C_28
REMARK    2  A    between atoms: O_2  and  C_31
REMARK    3  A    between atoms: O_3  and  C_30
REMARK    4  A    between atoms: N_5  and  C_15
REMARK    5  A    between atoms: C_8  and  C_12
REMARK    6  A    between atoms: C_9  and  C_15
REMARK    7  A    between atoms: C_11  and  C_16
REMARK    8  A    between atoms: C_12  and  C_17
REMARK    9  A    between atoms: C_12  and  C_18
REMARK   10  A    between atoms: C_13  and  C_19
REMARK   11  A    between atoms: C_16  and  C_20
REMARK   12  A    between atoms: C_21  and  C_24
REMARK   13  A    between atoms: C_24  and  C_27
REMARK   14  A    between atoms: C_27  and  C_30
REMARK                            x       y       z     vdW  Elec       q    Type
REMARK                         _______ _______ _______ _____ _____    ______ ____
ROOT
ATOM      8  C   UNL     1      -7.718 -11.745  17.036  0.00  0.00    +0.000 C 
ATOM      9  C   UNL     1      -7.849 -12.074  18.545  0.00  0.00    +0.032 C 
ATOM     10  C   UNL     1      -6.458 -12.400  16.452  0.00  0.00    +0.012 C 
ATOM     11  C   UNL     1      -5.175 -11.934  17.166  0.00  0.00    +0.022 C 
ATOM     13  C   UNL     1      -5.322 -11.975  18.673  0.00  0.00    -0.073 C 
ATOM     14  C   UNL     1      -6.525 -12.051  19.271  0.00  0.00    -0.022 C 
ATOM     19  C   UNL     1      -4.053 -11.973  19.478  0.00  0.00    +0.039 C 
ENDROOT
BRANCH   8  12
ATOM     12  C   UNL     1      -8.951 -12.199  16.247  0.00  0.00    -0.013 C 
ATOM     17  C   UNL     1      -9.155 -11.311  15.023  0.00  0.00    +0.007 C 
ATOM     18  C   UNL     1      -8.814 -13.661  15.839  0.00  0.00    +0.007 C 
ENDBRANCH   8  12
BRANCH   9  15
ATOM     15  C   UNL     1      -8.827 -11.118  19.236  0.00  0.00    +0.112 C 
BRANCH  15   5
ATOM      1  O   UNL     1     -11.216  -9.779  18.300  0.00  0.00    -0.276 OA
ATOM      5  N   UNL     1      -8.904  -9.875  18.536  0.00  0.00    -0.315 N 
ATOM     21  C   UNL     1     -10.103  -9.295  18.117  0.00  0.00    +0.214 C 
ATOM     32  H   UNL     1      -8.041  -9.359  18.382  0.00  0.00    +0.149 HD
BRANCH  21  24
ATOM     24  C   UNL     1      -9.878  -7.978  17.396  0.00  0.00    +0.107 C 
BRANCH  24  27
ATOM     27  C   UNL     1     -10.756  -7.837  16.156  0.00  0.00    +0.129 C 
BRANCH  27  30
ATOM      4  O   UNL     1     -11.968  -5.794  15.627  0.00  0.00    -0.251 OA
ATOM     30  C   UNL     1     -10.909  -6.393  15.735  0.00  0.00    +0.305 C 
BRANCH  30   3
ATOM      3  O   UNL     1      -9.702  -5.819  15.485  0.00  0.00    -0.481 OA
ATOM     34  H   UNL     1      -9.787  -5.019  14.924  0.00  0.00    +0.295 HD
ENDBRANCH  30   3
ENDBRANCH  27  30
ENDBRANCH  24  27
ENDBRANCH  21  24
ENDBRANCH  15   5
ENDBRANCH   9  15
BRANCH  11  16
ATOM     16  C   UNL     1      -4.758 -10.536  16.694  0.00  0.00    +0.082 C 
BRANCH  16  20
ATOM      6  N   UNL     1      -5.166 -10.189  14.250  0.00  0.00    -0.342 N 
ATOM      7  N   UNL     1      -3.133 -10.896  14.803  0.00  0.00    -0.232 NA
ATOM     20  C   UNL     1      -4.317 -10.551  15.258  0.00  0.00    +0.109 A 
ATOM     22  C   UNL     1      -4.483 -10.305  13.066  0.00  0.00    +0.070 A 
ATOM     23  C   UNL     1      -3.217 -10.749  13.438  0.00  0.00    +0.089 A 
ATOM     25  C   UNL     1      -4.854 -10.069  11.741  0.00  0.00    +0.073 A 
ATOM     26  C   UNL     1      -2.251 -10.975  12.443  0.00  0.00    +0.033 A 
ATOM     28  C   UNL     1      -3.880 -10.299  10.765  0.00  0.00    +0.122 A 
ATOM     29  C   UNL     1      -2.601 -10.744  11.106  0.00  0.00    +0.048 A 
ATOM     33  H   UNL     1      -6.124  -9.886  14.356  0.00  0.00    +0.167 HD
BRANCH  28   2
ATOM      2  O   UNL     1      -4.187 -10.084   9.453  0.00  0.00    -0.495 OA
ATOM     31  C   UNL     1      -5.273  -9.203   9.179  0.00  0.00    +0.277 C 
ENDBRANCH  28   2
ENDBRANCH  16  20
ENDBRANCH  11  16
TORSDOF 10
ENDMDL
MODEL 10
REMARK VINA RESULT:      -6.0     22.190     24.940
REMARK  Name = 71693195
REMARK  14 active torsions:
REMARK  status: ('A' for Active; 'I' for Inactive)
REMARK    1  A    between atoms: O_2  and  C_28
REMARK    2  A    between atoms: O_2  and  C_31
REMARK    3  A    between atoms: O_3  and  C_30
REMARK    4  A    between atoms: N_5  and  C_15
REMARK    5  A    between atoms: C_8  and  C_12
REMARK    6  A    between atoms: C_9  and  C_15
REMARK    7  A    between atoms: C_11  and  C_16
REMARK    8  A    between atoms: C_12  and  C_17
REMARK    9  A    between atoms: C_12  and  C_18
REMARK   10  A    between atoms: C_13  and  C_19
REMARK   11  A    between atoms: C_16  and  C_20
REMARK   12  A    between atoms: C_21  and  C_24
REMARK   13  A    between atoms: C_24  and  C_27
REMARK   14  A    between atoms: C_27  and  C_30
REMARK                            x       y       z     vdW  Elec       q    Type
REMARK                         _______ _______ _______ _____ _____    ______ ____
ROOT
ATOM      8  C   UNL     1      -3.332 -11.998  14.035  0.00  0.00    +0.000 C 
ATOM      9  C   UNL     1      -1.980 -11.350  14.428  0.00  0.00    +0.032 C 
ATOM     10  C   UNL     1      -3.370 -12.290  12.528  0.00  0.00    +0.012 C 
ATOM     11  C   UNL     1      -3.176 -11.016  11.683  0.00  0.00    +0.022 C 
ATOM     13  C   UNL     1      -2.015 -10.181  12.182  0.00  0.00    -0.073 C 
ATOM     14  C   UNL     1      -1.485 -10.353  13.406  0.00  0.00    -0.022 C 
ATOM     19  C   UNL     1      -1.445  -9.172  11.224  0.00  0.00    +0.039 C 
ENDROOT
BRANCH   8  12
ATOM     12  C   UNL     1      -3.592 -13.289  14.819  0.00  0.00    -0.013 C 
ATOM     17  C   UNL     1      -5.091 -13.516  14.987  0.00  0.00    +0.007 C 
ATOM     18  C   UNL     1      -2.939 -14.476  14.121  0.00  0.00    +0.007 C 
ENDBRANCH   8  12
BRANCH   9  15
ATOM     15  C   UNL     1      -2.069 -10.674  15.800  0.00  0.00    +0.112 C 
BRANCH  15   5
ATOM      1  O   UNL     1      -3.609 -11.446  18.125  0.00  0.00    -0.276 OA
ATOM      5  N   UNL     1      -3.418 -10.313  16.103  0.00  0.00    -0.315 N 
ATOM     21  C   UNL     1      -4.092 -10.731  17.252  0.00  0.00    +0.214 C 
ATOM     32  H   UNL     1      -3.895  -9.673  15.472  0.00  0.00    +0.149 HD
BRANCH  21  24
ATOM     24  C   UNL     1      -5.511 -10.197  17.307  0.00  0.00    +0.107 C 
BRANCH  24  27
ATOM     27  C   UNL     1      -6.466 -11.153  18.015  0.00  0.00    +0.129 C 
BRANCH  27  30
ATOM      4  O   UNL     1      -5.958 -10.719  20.355  0.00  0.00    -0.251 OA
ATOM     30  C   UNL     1      -6.758 -10.713  19.432  0.00  0.00    +0.305 C 
BRANCH  30   3
ATOM      3  O   UNL     1      -8.045 -10.297  19.566  0.00  0.00    -0.481 OA
ATOM     34  H   UNL     1      -8.213  -9.913  20.453  0.00  0.00    +0.295 HD
ENDBRANCH  30   3
ENDBRANCH  27  30
ENDBRANCH  24  27
ENDBRANCH  21  24
ENDBRANCH  15   5
ENDBRANCH   9  15
BRANCH  11  16
ATOM     16  C   UNL     1      -4.465 -10.188  11.630  0.00  0.00    +0.082 C 
BRANCH  16  20
ATOM      6  N   UNL     1      -6.079  -9.306   9.934  0.00  0.00    -0.342 N 
ATOM      7  N   UNL     1      -4.480 -10.637   9.152  0.00  0.00    -0.232 NA
ATOM     20  C   UNL     1      -4.980 -10.066  10.225  0.00  0.00    +0.109 A 
ATOM     22  C   UNL     1      -6.301  -9.391   8.583  0.00  0.00    +0.070 A 
ATOM     23  C   UNL     1      -5.291 -10.228   8.118  0.00  0.00    +0.089 A 
ATOM     25  C   UNL     1      -7.271  -8.827   7.754  0.00  0.00    +0.073 A 
ATOM     26  C   UNL     1      -5.228 -10.530   6.747  0.00  0.00    +0.033 A 
ATOM     28  C   UNL     1      -7.193  -9.138   6.393  0.00  0.00    +0.122 A 
ATOM     29  C   UNL     1      -6.192  -9.974   5.896  0.00  0.00    +0.048 A 
ATOM     33  H   UNL     1      -6.629  -8.774  10.594  0.00  0.00    +0.167 HD
BRANCH  28   2
ATOM      2  O   UNL     1      -8.116  -8.614   5.535  0.00  0.00    -0.495 OA
ATOM     31  C   UNL     1      -8.584  -7.297   5.816  0.00  0.00    +0.277 C 
ENDBRANCH  28   2
ENDBRANCH  16  20
ENDBRANCH  11  16
TORSDOF 10
ENDMDL
