MODEL 1
REMARK VINA RESULT:      -7.9      0.000      0.000
REMARK  Name = 26745389
REMARK  6 active torsions:
REMARK  status: ('A' for Active; 'I' for Inactive)
REMARK    1  A    between atoms: N_3  and  C_13
REMARK    2  A    between atoms: N_6  and  C_18
REMARK    3  A    between atoms: C_8  and  C_14
REMARK    4  A    between atoms: C_13  and  C_15
REMARK    5  A    between atoms: C_18  and  C_21
REMARK    6  A    between atoms: C_30  and  C_31
REMARK                            x       y       z     vdW  Elec       q    Type
REMARK                         _______ _______ _______ _____ _____    ______ ____
ROOT
ATOM      3  N   UNL     1      15.814   7.706  20.510  0.00  0.00    -0.278 NA
ATOM      4  N   UNL     1      12.472   6.774  21.877  0.00  0.00    -0.347 N 
ATOM      5  N   UNL     1      11.884   6.589  19.726  0.00  0.00    -0.240 NA
ATOM      8  C   UNL     1      15.292   8.224  19.220  0.00  0.00    +0.150 C 
ATOM      9  C   UNL     1      14.049   7.441  18.708  0.00  0.00    +0.085 C 
ATOM     10  C   UNL     1      14.839   7.719  21.625  0.00  0.00    +0.140 C 
ATOM     11  C   UNL     1      13.538   7.202  21.147  0.00  0.00    +0.053 A 
ATOM     12  C   UNL     1      13.153   7.084  19.834  0.00  0.00    +0.065 A 
ATOM     16  C   UNL     1      11.499   6.414  20.977  0.00  0.00    +0.197 A 
ATOM     32  H   UNL     1      12.402   6.730  22.885  0.00  0.00    +0.167 HD
ENDROOT
BRANCH   8  14
ATOM      2  O   UNL     1      15.825  10.512  19.662  0.00  0.00    -0.274 OA
ATOM      6  N   UNL     1      13.644   9.959  19.068  0.00  0.00    -0.310 N 
ATOM     14  C   UNL     1      14.974   9.688  19.339  0.00  0.00    +0.231 C 
ATOM     33  H   UNL     1      13.021   9.204  18.792  0.00  0.00    +0.149 HD
BRANCH   6  18
ATOM     18  C   UNL     1      13.078  11.287  19.134  0.00  0.00    +0.139 C 
BRANCH  18  21
ATOM     21  C   UNL     1      12.477  11.576  20.479  0.00  0.00    -0.030 A 
ATOM     26  C   UNL     1      12.600  12.848  21.039  0.00  0.00    +0.006 A 
ATOM     27  C   UNL     1      11.796  10.573  21.169  0.00  0.00    +0.006 A 
ATOM     28  C   UNL     1      12.043  13.117  22.288  0.00  0.00    +0.019 A 
ATOM     29  C   UNL     1      11.238  10.842  22.419  0.00  0.00    +0.019 A 
ATOM     30  C   UNL     1      11.361  12.114  22.979  0.00  0.00    +0.052 A 
BRANCH  30  31
ATOM      7  N   UNL     1      10.325  12.612  25.299  0.00  0.00    -0.191 NA
ATOM     31  C   UNL     1      10.790  12.389  24.259  0.00  0.00    +0.099 C 
ENDBRANCH  30  31
ENDBRANCH  18  21
ENDBRANCH   6  18
ENDBRANCH   8  14
BRANCH   3  13
ATOM     13  C   UNL     1      17.083   8.310  20.906  0.00  0.00    +0.160 C 
BRANCH  13  15
ATOM      1  O   UNL     1      19.031   7.383  22.021  0.00  0.00    -0.458 OA
ATOM     15  C   UNL     1      18.195   7.302  20.954  0.00  0.00    +0.120 A 
ATOM     17  C   UNL     1      18.568   6.274  20.119  0.00  0.00    +0.054 A 
ATOM     19  C   UNL     1      19.713   5.676  20.708  0.00  0.00    +0.020 A 
ATOM     20  C   UNL     1      19.957   6.393  21.874  0.00  0.00    +0.135 A 
ATOM     22  C   UNL     1      20.569   4.609  20.384  0.00  0.00    +0.011 A 
ATOM     23  C   UNL     1      21.004   6.123  22.754  0.00  0.00    +0.047 A 
ATOM     24  C   UNL     1      21.631   4.313  21.249  0.00  0.00    +0.001 A 
ATOM     25  C   UNL     1      21.842   5.058  22.413  0.00  0.00    +0.004 A 
ENDBRANCH  13  15
ENDBRANCH   3  13
TORSDOF 6
ENDMDL
MODEL 2
REMARK VINA RESULT:      -7.5      2.645      7.510
REMARK  Name = 26745389
REMARK  6 active torsions:
REMARK  status: ('A' for Active; 'I' for Inactive)
REMARK    1  A    between atoms: N_3  and  C_13
REMARK    2  A    between atoms: N_6  and  C_18
REMARK    3  A    between atoms: C_8  and  C_14
REMARK    4  A    between atoms: C_13  and  C_15
REMARK    5  A    between atoms: C_18  and  C_21
REMARK    6  A    between atoms: C_30  and  C_31
REMARK                            x       y       z     vdW  Elec       q    Type
REMARK                         _______ _______ _______ _____ _____    ______ ____
ROOT
ATOM      3  N   UNL     1      13.750   9.685  19.194  0.00  0.00    -0.278 NA
ATOM      4  N   UNL     1      11.893   9.889  15.966  0.00  0.00    -0.347 N 
ATOM      5  N   UNL     1      10.764   8.124  16.752  0.00  0.00    -0.240 NA
ATOM      8  C   UNL     1      13.514   8.232  19.393  0.00  0.00    +0.150 C 
ATOM      9  C   UNL     1      12.129   7.762  18.864  0.00  0.00    +0.085 C 
ATOM     10  C   UNL     1      13.678  10.138  17.785  0.00  0.00    +0.140 C 
ATOM     11  C   UNL     1      12.496   9.533  17.133  0.00  0.00    +0.053 A 
ATOM     12  C   UNL     1      11.791   8.447  17.594  0.00  0.00    +0.065 A 
ATOM     16  C   UNL     1      10.853   9.011  15.779  0.00  0.00    +0.197 A 
ATOM     32  H   UNL     1      12.155  10.647  15.352  0.00  0.00    +0.167 HD
ENDROOT
BRANCH   8  14
ATOM      2  O   UNL     1      14.670   7.264  17.537  0.00  0.00    -0.274 OA
ATOM      6  N   UNL     1      15.504   6.925  19.683  0.00  0.00    -0.310 N 
ATOM     14  C   UNL     1      14.615   7.435  18.752  0.00  0.00    +0.231 C 
ATOM     33  H   UNL     1      15.379   7.138  20.669  0.00  0.00    +0.149 HD
BRANCH   6  18
ATOM     18  C   UNL     1      16.639   6.104  19.327  0.00  0.00    +0.139 C 
BRANCH  18  21
ATOM     21  C   UNL     1      17.849   6.428  20.155  0.00  0.00    -0.030 A 
ATOM     26  C   UNL     1      17.837   7.537  21.002  0.00  0.00    +0.006 A 
ATOM     27  C   UNL     1      18.983   5.621  20.077  0.00  0.00    +0.006 A 
ATOM     28  C   UNL     1      18.961   7.838  21.770  0.00  0.00    +0.019 A 
ATOM     29  C   UNL     1      20.108   5.922  20.846  0.00  0.00    +0.019 A 
ATOM     30  C   UNL     1      20.096   7.031  21.693  0.00  0.00    +0.052 A 
BRANCH  30  31
ATOM      7  N   UNL     1      22.184   7.589  23.121  0.00  0.00    -0.191 NA
ATOM     31  C   UNL     1      21.248   7.339  22.480  0.00  0.00    +0.099 C 
ENDBRANCH  30  31
ENDBRANCH  18  21
ENDBRANCH   6  18
ENDBRANCH   8  14
BRANCH   3  13
ATOM     13  C   UNL     1      14.961  10.170  19.848  0.00  0.00    +0.160 C 
BRANCH  13  15
ATOM      1  O   UNL     1      13.400  10.814  21.594  0.00  0.00    -0.458 OA
ATOM     15  C   UNL     1      14.701  10.608  21.260  0.00  0.00    +0.120 A 
ATOM     17  C   UNL     1      15.525  10.859  22.333  0.00  0.00    +0.054 A 
ATOM     19  C   UNL     1      14.678  11.246  23.405  0.00  0.00    +0.020 A 
ATOM     20  C   UNL     1      13.384  11.203  22.900  0.00  0.00    +0.135 A 
ATOM     22  C   UNL     1      14.864  11.628  24.746  0.00  0.00    +0.011 A 
ATOM     23  C   UNL     1      12.244  11.515  23.641  0.00  0.00    +0.047 A 
ATOM     24  C   UNL     1      13.738  11.949  25.516  0.00  0.00    +0.001 A 
ATOM     25  C   UNL     1      12.452  11.892  24.971  0.00  0.00    +0.004 A 
ENDBRANCH  13  15
ENDBRANCH   3  13
TORSDOF 6
ENDMDL
MODEL 3
REMARK VINA RESULT:      -7.5      2.819      4.792
REMARK  Name = 26745389
REMARK  6 active torsions:
REMARK  status: ('A' for Active; 'I' for Inactive)
REMARK    1  A    between atoms: N_3  and  C_13
REMARK    2  A    between atoms: N_6  and  C_18
REMARK    3  A    between atoms: C_8  and  C_14
REMARK    4  A    between atoms: C_13  and  C_15
REMARK    5  A    between atoms: C_18  and  C_21
REMARK    6  A    between atoms: C_30  and  C_31
REMARK                            x       y       z     vdW  Elec       q    Type
REMARK                         _______ _______ _______ _____ _____    ______ ____
ROOT
ATOM      3  N   UNL     1      14.266   7.589  20.212  0.00  0.00    -0.278 NA
ATOM      4  N   UNL     1      12.088   9.410  22.631  0.00  0.00    -0.347 N 
ATOM      5  N   UNL     1      10.667   7.714  22.298  0.00  0.00    -0.240 NA
ATOM      8  C   UNL     1      13.148   6.900  19.517  0.00  0.00    +0.150 C 
ATOM      9  C   UNL     1      11.974   6.531  20.469  0.00  0.00    +0.085 C 
ATOM     10  C   UNL     1      13.889   8.846  20.900  0.00  0.00    +0.140 C 
ATOM     11  C   UNL     1      12.630   8.639  21.649  0.00  0.00    +0.053 A 
ATOM     12  C   UNL     1      11.741   7.610  21.459  0.00  0.00    +0.065 A 
ATOM     16  C   UNL     1      10.905   8.812  22.991  0.00  0.00    +0.197 A 
ATOM     32  H   UNL     1      12.474  10.260  23.021  0.00  0.00    +0.167 HD
ENDROOT
BRANCH   8  14
ATOM      2  O   UNL     1      11.475   8.090  18.293  0.00  0.00    -0.274 OA
ATOM      6  N   UNL     1      13.649   8.035  17.465  0.00  0.00    -0.310 N 
ATOM     14  C   UNL     1      12.649   7.742  18.377  0.00  0.00    +0.231 C 
ATOM     33  H   UNL     1      14.597   7.711  17.634  0.00  0.00    +0.149 HD
BRANCH   6  18
ATOM     18  C   UNL     1      13.424   8.810  16.266  0.00  0.00    +0.139 C 
BRANCH  18  21
ATOM     21  C   UNL     1      14.355   9.984  16.173  0.00  0.00    -0.030 A 
ATOM     26  C   UNL     1      14.514  10.836  17.266  0.00  0.00    +0.006 A 
ATOM     27  C   UNL     1      15.062  10.222  14.995  0.00  0.00    +0.006 A 
ATOM     28  C   UNL     1      15.379  11.927  17.181  0.00  0.00    +0.019 A 
ATOM     29  C   UNL     1      15.928  11.313  14.909  0.00  0.00    +0.019 A 
ATOM     30  C   UNL     1      16.087  12.165  16.002  0.00  0.00    +0.052 A 
BRANCH  30  31
ATOM      7  N   UNL     1      17.693  14.189  15.841  0.00  0.00    -0.191 NA
ATOM     31  C   UNL     1      16.973  13.282  15.914  0.00  0.00    +0.099 C 
ENDBRANCH  30  31
ENDBRANCH  18  21
ENDBRANCH   6  18
ENDBRANCH   8  14
BRANCH   3  13
ATOM     13  C   UNL     1      15.444   7.774  19.371  0.00  0.00    +0.160 C 
BRANCH  13  15
ATOM      1  O   UNL     1      17.419   6.362  19.442  0.00  0.00    -0.458 OA
ATOM     15  C   UNL     1      16.703   7.335  20.062  0.00  0.00    +0.120 A 
ATOM     17  C   UNL     1      17.313   7.718  21.234  0.00  0.00    +0.054 A 
ATOM     19  C   UNL     1      18.488   6.929  21.349  0.00  0.00    +0.020 A 
ATOM     20  C   UNL     1      18.508   6.113  20.224  0.00  0.00    +0.135 A 
ATOM     22  C   UNL     1      19.537   6.816  22.279  0.00  0.00    +0.011 A 
ATOM     23  C   UNL     1      19.507   5.179  19.952  0.00  0.00    +0.047 A 
ATOM     24  C   UNL     1      20.556   5.886  22.034  0.00  0.00    +0.001 A 
ATOM     25  C   UNL     1      20.539   5.084  20.889  0.00  0.00    +0.004 A 
ENDBRANCH  13  15
ENDBRANCH   3  13
TORSDOF 6
ENDMDL
MODEL 4
REMARK VINA RESULT:      -7.3      2.571      7.977
REMARK  Name = 26745389
REMARK  6 active torsions:
REMARK  status: ('A' for Active; 'I' for Inactive)
REMARK    1  A    between atoms: N_3  and  C_13
REMARK    2  A    between atoms: N_6  and  C_18
REMARK    3  A    between atoms: C_8  and  C_14
REMARK    4  A    between atoms: C_13  and  C_15
REMARK    5  A    between atoms: C_18  and  C_21
REMARK    6  A    between atoms: C_30  and  C_31
REMARK                            x       y       z     vdW  Elec       q    Type
REMARK                         _______ _______ _______ _____ _____    ______ ____
ROOT
ATOM      3  N   UNL     1      12.725   9.436  19.659  0.00  0.00    -0.278 NA
ATOM      4  N   UNL     1      13.543  10.948  16.349  0.00  0.00    -0.347 N 
ATOM      5  N   UNL     1      12.417   9.203  15.516  0.00  0.00    -0.240 NA
ATOM      8  C   UNL     1      12.604   8.048  19.146  0.00  0.00    +0.150 C 
ATOM      9  C   UNL     1      12.020   7.980  17.706  0.00  0.00    +0.085 C 
ATOM     10  C   UNL     1      13.570  10.332  18.835  0.00  0.00    +0.140 C 
ATOM     11  C   UNL     1      13.234  10.148  17.406  0.00  0.00    +0.053 A 
ATOM     12  C   UNL     1      12.549   9.084  16.871  0.00  0.00    +0.065 A 
ATOM     16  C   UNL     1      13.029  10.338  15.232  0.00  0.00    +0.197 A 
ATOM     32  H   UNL     1      14.053  11.821  16.375  0.00  0.00    +0.167 HD
ENDROOT
BRANCH   8  14
ATOM      2  O   UNL     1      14.630   7.201  18.199  0.00  0.00    -0.274 OA
ATOM      6  N   UNL     1      14.248   6.918  20.477  0.00  0.00    -0.310 N 
ATOM     14  C   UNL     1      13.937   7.356  19.202  0.00  0.00    +0.231 C 
ATOM     33  H   UNL     1      13.612   7.111  21.246  0.00  0.00    +0.149 HD
BRANCH   6  18
ATOM     18  C   UNL     1      15.463   6.203  20.794  0.00  0.00    +0.139 C 
BRANCH  18  21
ATOM     21  C   UNL     1      16.613   7.134  21.048  0.00  0.00    -0.030 A 
ATOM     26  C   UNL     1      17.923   6.659  20.978  0.00  0.00    +0.006 A 
ATOM     27  C   UNL     1      16.372   8.473  21.353  0.00  0.00    +0.006 A 
ATOM     28  C   UNL     1      18.992   7.524  21.213  0.00  0.00    +0.019 A 
ATOM     29  C   UNL     1      17.441   9.339  21.588  0.00  0.00    +0.019 A 
ATOM     30  C   UNL     1      18.751   8.864  21.518  0.00  0.00    +0.052 A 
BRANCH  30  31
ATOM      7  N   UNL     1      20.734  10.471  21.956  0.00  0.00    -0.191 NA
ATOM     31  C   UNL     1      19.845   9.750  21.760  0.00  0.00    +0.099 C 
ENDBRANCH  30  31
ENDBRANCH  18  21
ENDBRANCH   6  18
ENDBRANCH   8  14
BRANCH   3  13
ATOM     13  C   UNL     1      13.096   9.502  21.069  0.00  0.00    +0.160 C 
BRANCH  13  15
ATOM      1  O   UNL     1      12.273  10.464  23.142  0.00  0.00    -0.458 OA
ATOM     15  C   UNL     1      12.365  10.595  21.793  0.00  0.00    +0.120 A 
ATOM     17  C   UNL     1      11.741  11.747  21.372  0.00  0.00    +0.054 A 
ATOM     19  C   UNL     1      11.226  12.373  22.538  0.00  0.00    +0.020 A 
ATOM     20  C   UNL     1      11.580  11.545  23.599  0.00  0.00    +0.135 A 
ATOM     22  C   UNL     1      10.503  13.546  22.814  0.00  0.00    +0.011 A 
ATOM     23  C   UNL     1      11.262  11.803  24.931  0.00  0.00    +0.047 A 
ATOM     24  C   UNL     1      10.168  13.832  24.144  0.00  0.00    +0.001 A 
ATOM     25  C   UNL     1      10.543  12.975  25.183  0.00  0.00    +0.004 A 
ENDBRANCH  13  15
ENDBRANCH   3  13
TORSDOF 6
ENDMDL
MODEL 5
REMARK VINA RESULT:      -7.0     13.156     15.492
REMARK  Name = 26745389
REMARK  6 active torsions:
REMARK  status: ('A' for Active; 'I' for Inactive)
REMARK    1  A    between atoms: N_3  and  C_13
REMARK    2  A    between atoms: N_6  and  C_18
REMARK    3  A    between atoms: C_8  and  C_14
REMARK    4  A    between atoms: C_13  and  C_15
REMARK    5  A    between atoms: C_18  and  C_21
REMARK    6  A    between atoms: C_30  and  C_31
REMARK                            x       y       z     vdW  Elec       q    Type
REMARK                         _______ _______ _______ _____ _____    ______ ____
ROOT
ATOM      3  N   UNL     1      10.008   6.883   5.553  0.00  0.00    -0.278 NA
ATOM      4  N   UNL     1      10.465   4.194   8.096  0.00  0.00    -0.347 N 
ATOM      5  N   UNL     1       8.920   5.325   9.254  0.00  0.00    -0.240 NA
ATOM      8  C   UNL     1       9.555   7.911   6.524  0.00  0.00    +0.150 C 
ATOM      9  C   UNL     1       8.717   7.317   7.692  0.00  0.00    +0.085 C 
ATOM     10  C   UNL     1      10.834   5.800   6.135  0.00  0.00    +0.140 C 
ATOM     11  C   UNL     1      10.217   5.336   7.398  0.00  0.00    +0.053 A 
ATOM     12  C   UNL     1       9.271   6.013   8.128  0.00  0.00    +0.065 A 
ATOM     16  C   UNL     1       9.658   4.232   9.207  0.00  0.00    +0.197 A 
ATOM     32  H   UNL     1      11.116   3.460   7.853  0.00  0.00    +0.167 HD
ENDROOT
BRANCH   8  14
ATOM      2  O   UNL     1      11.889   8.317   6.845  0.00  0.00    -0.274 OA
ATOM      6  N   UNL     1      10.350   9.765   7.820  0.00  0.00    -0.310 N 
ATOM     14  C   UNL     1      10.734   8.673   7.062  0.00  0.00    +0.231 C 
ATOM     33  H   UNL     1       9.363   9.984   7.927  0.00  0.00    +0.149 HD
BRANCH   6  18
ATOM     18  C   UNL     1      11.292  10.649   8.468  0.00  0.00    +0.139 C 
BRANCH  18  21
ATOM     21  C   UNL     1      10.703  11.305   9.683  0.00  0.00    -0.030 A 
ATOM     26  C   UNL     1       9.319  11.344   9.852  0.00  0.00    +0.006 A 
ATOM     27  C   UNL     1      11.540  11.874  10.643  0.00  0.00    +0.006 A 
ATOM     28  C   UNL     1       8.772  11.954  10.981  0.00  0.00    +0.019 A 
ATOM     29  C   UNL     1      10.993  12.484  11.773  0.00  0.00    +0.019 A 
ATOM     30  C   UNL     1       9.609  12.523  11.942  0.00  0.00    +0.052 A 
BRANCH  30  31
ATOM      7  N   UNL     1       8.592  13.655  14.037  0.00  0.00    -0.191 NA
ATOM     31  C   UNL     1       9.049  13.148  13.098  0.00  0.00    +0.099 C 
ENDBRANCH  30  31
ENDBRANCH  18  21
ENDBRANCH   6  18
ENDBRANCH   8  14
BRANCH   3  13
ATOM     13  C   UNL     1      10.634   7.448   4.362  0.00  0.00    +0.160 C 
BRANCH  13  15
ATOM      1  O   UNL     1      12.598   6.645   3.178  0.00  0.00    -0.458 OA
ATOM     15  C   UNL     1      11.309   6.397   3.528  0.00  0.00    +0.120 A 
ATOM     17  C   UNL     1      10.890   5.189   3.020  0.00  0.00    +0.054 A 
ATOM     19  C   UNL     1      11.994   4.652   2.305  0.00  0.00    +0.020 A 
ATOM     20  C   UNL     1      13.018   5.584   2.433  0.00  0.00    +0.135 A 
ATOM     22  C   UNL     1      12.240   3.481   1.567  0.00  0.00    +0.011 A 
ATOM     23  C   UNL     1      14.285   5.435   1.873  0.00  0.00    +0.047 A 
ATOM     24  C   UNL     1      13.504   3.303   0.991  0.00  0.00    +0.001 A 
ATOM     25  C   UNL     1      14.508   4.264   1.143  0.00  0.00    +0.004 A 
ENDBRANCH  13  15
ENDBRANCH   3  13
TORSDOF 6
ENDMDL
MODEL 6
REMARK VINA RESULT:      -6.8     15.626     18.704
REMARK  Name = 26745389
REMARK  6 active torsions:
REMARK  status: ('A' for Active; 'I' for Inactive)
REMARK    1  A    between atoms: N_3  and  C_13
REMARK    2  A    between atoms: N_6  and  C_18
REMARK    3  A    between atoms: C_8  and  C_14
REMARK    4  A    between atoms: C_13  and  C_15
REMARK    5  A    between atoms: C_18  and  C_21
REMARK    6  A    between atoms: C_30  and  C_31
REMARK                            x       y       z     vdW  Elec       q    Type
REMARK                         _______ _______ _______ _____ _____    ______ ____
ROOT
ATOM      3  N   UNL     1       9.166   6.635   5.213  0.00  0.00    -0.278 NA
ATOM      4  N   UNL     1       9.893   3.827   7.557  0.00  0.00    -0.347 N 
ATOM      5  N   UNL     1       9.440   5.328   9.154  0.00  0.00    -0.240 NA
ATOM      8  C   UNL     1       9.522   7.709   6.175  0.00  0.00    +0.150 C 
ATOM      9  C   UNL     1       9.161   7.353   7.646  0.00  0.00    +0.085 C 
ATOM     10  C   UNL     1       9.802   5.325   5.481  0.00  0.00    +0.140 C 
ATOM     11  C   UNL     1       9.709   5.019   6.926  0.00  0.00    +0.053 A 
ATOM     12  C   UNL     1       9.438   5.923   7.924  0.00  0.00    +0.065 A 
ATOM     16  C   UNL     1       9.719   4.064   8.899  0.00  0.00    +0.197 A 
ATOM     32  H   UNL     1      10.116   2.939   7.129  0.00  0.00    +0.167 HD
ENDROOT
BRANCH   8  14
ATOM      2  O   UNL     1      11.816   7.577   6.836  0.00  0.00    -0.274 OA
ATOM      6  N   UNL     1      11.241   8.927   5.030  0.00  0.00    -0.310 N 
ATOM     14  C   UNL     1      10.983   8.043   6.063  0.00  0.00    +0.231 C 
ATOM     33  H   UNL     1      10.480   9.244   4.435  0.00  0.00    +0.149 HD
BRANCH   6  18
ATOM     18  C   UNL     1      12.563   9.424   4.725  0.00  0.00    +0.139 C 
BRANCH  18  21
ATOM     21  C   UNL     1      13.272   8.559   3.723  0.00  0.00    -0.030 A 
ATOM     26  C   UNL     1      14.309   7.723   4.135  0.00  0.00    +0.006 A 
ATOM     27  C   UNL     1      12.892   8.592   2.382  0.00  0.00    +0.006 A 
ATOM     28  C   UNL     1      14.968   6.919   3.205  0.00  0.00    +0.019 A 
ATOM     29  C   UNL     1      13.551   7.787   1.451  0.00  0.00    +0.019 A 
ATOM     30  C   UNL     1      14.588   6.951   1.863  0.00  0.00    +0.052 A 
BRANCH  30  31
ATOM      7  N   UNL     1      15.811   5.458   0.135  0.00  0.00    -0.191 NA
ATOM     31  C   UNL     1      15.263   6.128   0.910  0.00  0.00    +0.099 C 
ENDBRANCH  30  31
ENDBRANCH  18  21
ENDBRANCH   6  18
ENDBRANCH   8  14
BRANCH   3  13
ATOM     13  C   UNL     1       9.329   7.030   3.818  0.00  0.00    +0.160 C 
BRANCH  13  15
ATOM      1  O   UNL     1       9.970   5.938   1.745  0.00  0.00    -0.458 OA
ATOM     15  C   UNL     1      10.232   6.093   3.069  0.00  0.00    +0.120 A 
ATOM     17  C   UNL     1      11.310   5.325   3.446  0.00  0.00    +0.054 A 
ATOM     19  C   UNL     1      11.746   4.647   2.277  0.00  0.00    +0.020 A 
ATOM     20  C   UNL     1      10.891   5.058   1.260  0.00  0.00    +0.135 A 
ATOM     22  C   UNL     1      12.769   3.734   1.967  0.00  0.00    +0.011 A 
ATOM     23  C   UNL     1      10.980   4.620  -0.061  0.00  0.00    +0.047 A 
ATOM     24  C   UNL     1      12.884   3.275   0.648  0.00  0.00    +0.001 A 
ATOM     25  C   UNL     1      12.004   3.713  -0.346  0.00  0.00    +0.004 A 
ENDBRANCH  13  15
ENDBRANCH   3  13
TORSDOF 6
ENDMDL
MODEL 7
REMARK VINA RESULT:      -6.8      2.349      8.235
REMARK  Name = 26745389
REMARK  6 active torsions:
REMARK  status: ('A' for Active; 'I' for Inactive)
REMARK    1  A    between atoms: N_3  and  C_13
REMARK    2  A    between atoms: N_6  and  C_18
REMARK    3  A    between atoms: C_8  and  C_14
REMARK    4  A    between atoms: C_13  and  C_15
REMARK    5  A    between atoms: C_18  and  C_21
REMARK    6  A    between atoms: C_30  and  C_31
REMARK                            x       y       z     vdW  Elec       q    Type
REMARK                         _______ _______ _______ _____ _____    ______ ____
ROOT
ATOM      3  N   UNL     1      12.836   7.634  19.669  0.00  0.00    -0.278 NA
ATOM      4  N   UNL     1      12.147   9.922  16.806  0.00  0.00    -0.347 N 
ATOM      5  N   UNL     1      13.520   8.567  15.672  0.00  0.00    -0.240 NA
ATOM      8  C   UNL     1      14.163   7.191  19.171  0.00  0.00    +0.150 C 
ATOM      9  C   UNL     1      14.232   7.100  17.620  0.00  0.00    +0.085 C 
ATOM     10  C   UNL     1      12.392   8.954  19.165  0.00  0.00    +0.140 C 
ATOM     11  C   UNL     1      12.648   9.036  17.709  0.00  0.00    +0.053 A 
ATOM     12  C   UNL     1      13.489   8.219  16.993  0.00  0.00    +0.065 A 
ATOM     16  C   UNL     1      12.701   9.598  15.591  0.00  0.00    +0.197 A 
ATOM     32  H   UNL     1      11.497  10.675  16.987  0.00  0.00    +0.167 HD
ENDROOT
BRANCH   8  14
ATOM      2  O   UNL     1      15.450   9.206  19.193  0.00  0.00    -0.274 OA
ATOM      6  N   UNL     1      15.949   7.535  20.734  0.00  0.00    -0.310 N 
ATOM     14  C   UNL     1      15.242   8.101  19.688  0.00  0.00    +0.231 C 
ATOM     33  H   UNL     1      15.687   6.616  21.082  0.00  0.00    +0.149 HD
BRANCH   6  18
ATOM     18  C   UNL     1      17.052   8.196  21.393  0.00  0.00    +0.139 C 
BRANCH  18  21
ATOM     21  C   UNL     1      18.353   7.481  21.166  0.00  0.00    -0.030 A 
ATOM     26  C   UNL     1      18.364   6.241  20.528  0.00  0.00    +0.006 A 
ATOM     27  C   UNL     1      19.549   8.058  21.591  0.00  0.00    +0.006 A 
ATOM     28  C   UNL     1      19.572   5.577  20.316  0.00  0.00    +0.019 A 
ATOM     29  C   UNL     1      20.758   7.394  21.379  0.00  0.00    +0.019 A 
ATOM     30  C   UNL     1      20.769   6.154  20.741  0.00  0.00    +0.052 A 
BRANCH  30  31
ATOM      7  N   UNL     1      23.013   4.921  20.349  0.00  0.00    -0.191 NA
ATOM     31  C   UNL     1      22.007   5.474  20.525  0.00  0.00    +0.099 C 
ENDBRANCH  30  31
ENDBRANCH  18  21
ENDBRANCH   6  18
ENDBRANCH   8  14
BRANCH   3  13
ATOM     13  C   UNL     1      12.704   7.546  21.120  0.00  0.00    +0.160 C 
BRANCH  13  15
ATOM      1  O   UNL     1      11.466   9.177  22.428  0.00  0.00    -0.458 OA
ATOM     15  C   UNL     1      12.617   8.901  21.760  0.00  0.00    +0.120 A 
ATOM     17  C   UNL     1      13.482   9.969  21.820  0.00  0.00    +0.054 A 
ATOM     19  C   UNL     1      12.824  10.976  22.575  0.00  0.00    +0.020 A 
ATOM     20  C   UNL     1      11.590  10.440  22.926  0.00  0.00    +0.135 A 
ATOM     22  C   UNL     1      13.136  12.278  23.002  0.00  0.00    +0.011 A 
ATOM     23  C   UNL     1      10.630  11.114  23.679  0.00  0.00    +0.047 A 
ATOM     24  C   UNL     1      12.192  12.982  23.761  0.00  0.00    +0.001 A 
ATOM     25  C   UNL     1      10.961  12.407  24.093  0.00  0.00    +0.004 A 
ENDBRANCH  13  15
ENDBRANCH   3  13
TORSDOF 6
ENDMDL
MODEL 8
REMARK VINA RESULT:      -6.8     26.282     28.766
REMARK  Name = 26745389
REMARK  6 active torsions:
REMARK  status: ('A' for Active; 'I' for Inactive)
REMARK    1  A    between atoms: N_3  and  C_13
REMARK    2  A    between atoms: N_6  and  C_18
REMARK    3  A    between atoms: C_8  and  C_14
REMARK    4  A    between atoms: C_13  and  C_15
REMARK    5  A    between atoms: C_18  and  C_21
REMARK    6  A    between atoms: C_30  and  C_31
REMARK                            x       y       z     vdW  Elec       q    Type
REMARK                         _______ _______ _______ _____ _____    ______ ____
ROOT
ATOM      3  N   UNL     1     -13.622   6.389  21.148  0.00  0.00    -0.278 NA
ATOM      4  N   UNL     1     -15.971   3.945  22.705  0.00  0.00    -0.347 N 
ATOM      5  N   UNL     1     -17.390   4.623  21.114  0.00  0.00    -0.240 NA
ATOM      8  C   UNL     1     -14.687   7.263  20.593  0.00  0.00    +0.150 C 
ATOM      9  C   UNL     1     -15.948   6.474  20.140  0.00  0.00    +0.085 C 
ATOM     10  C   UNL     1     -14.033   5.575  22.315  0.00  0.00    +0.140 C 
ATOM     11  C   UNL     1     -15.358   4.971  22.052  0.00  0.00    +0.053 A 
ATOM     12  C   UNL     1     -16.248   5.372  21.086  0.00  0.00    +0.065 A 
ATOM     16  C   UNL     1     -17.193   3.772  22.102  0.00  0.00    +0.197 A 
ATOM     32  H   UNL     1     -15.604   3.414  23.483  0.00  0.00    +0.167 HD
ENDROOT
BRANCH   8  14
ATOM      2  O   UNL     1     -15.876   8.105  22.488  0.00  0.00    -0.274 OA
ATOM      6  N   UNL     1     -14.415   9.520  21.356  0.00  0.00    -0.310 N 
ATOM     14  C   UNL     1     -15.064   8.320  21.592  0.00  0.00    +0.231 C 
ATOM     33  H   UNL     1     -13.747   9.591  20.594  0.00  0.00    +0.149 HD
BRANCH   6  18
ATOM     18  C   UNL     1     -14.621  10.702  22.162  0.00  0.00    +0.139 C 
BRANCH  18  21
ATOM     21  C   UNL     1     -13.731  10.721  23.370  0.00  0.00    -0.030 A 
ATOM     26  C   UNL     1     -12.400  11.123  23.249  0.00  0.00    +0.006 A 
ATOM     27  C   UNL     1     -14.235  10.339  24.613  0.00  0.00    +0.006 A 
ATOM     28  C   UNL     1     -11.573  11.141  24.372  0.00  0.00    +0.019 A 
ATOM     29  C   UNL     1     -13.407  10.358  25.737  0.00  0.00    +0.019 A 
ATOM     30  C   UNL     1     -12.076  10.759  25.616  0.00  0.00    +0.052 A 
BRANCH  30  31
ATOM      7  N   UNL     1     -10.541  10.793  27.701  0.00  0.00    -0.191 NA
ATOM     31  C   UNL     1     -11.229  10.778  26.765  0.00  0.00    +0.099 C 
ENDBRANCH  30  31
ENDBRANCH  18  21
ENDBRANCH   6  18
ENDBRANCH   8  14
BRANCH   3  13
ATOM     13  C   UNL     1     -12.370   7.093  21.403  0.00  0.00    +0.160 C 
BRANCH  13  15
ATOM      1  O   UNL     1     -11.519   9.037  20.223  0.00  0.00    -0.458 OA
ATOM     15  C   UNL     1     -11.807   7.712  20.157  0.00  0.00    +0.120 A 
ATOM     17  C   UNL     1     -11.510   7.210  18.911  0.00  0.00    +0.054 A 
ATOM     19  C   UNL     1     -11.002   8.298  18.152  0.00  0.00    +0.020 A 
ATOM     20  C   UNL     1     -11.028   9.397  19.003  0.00  0.00    +0.135 A 
ATOM     22  C   UNL     1     -10.523   8.474  16.842  0.00  0.00    +0.011 A 
ATOM     23  C   UNL     1     -10.607  10.676  18.642  0.00  0.00    +0.047 A 
ATOM     24  C   UNL     1     -10.093   9.748  16.449  0.00  0.00    +0.001 A 
ATOM     25  C   UNL     1     -10.135  10.828  17.335  0.00  0.00    +0.004 A 
ENDBRANCH  13  15
ENDBRANCH   3  13
TORSDOF 6
ENDMDL
MODEL 9
REMARK VINA RESULT:      -6.7     23.840     27.433
REMARK  Name = 26745389
REMARK  6 active torsions:
REMARK  status: ('A' for Active; 'I' for Inactive)
REMARK    1  A    between atoms: N_3  and  C_13
REMARK    2  A    between atoms: N_6  and  C_18
REMARK    3  A    between atoms: C_8  and  C_14
REMARK    4  A    between atoms: C_13  and  C_15
REMARK    5  A    between atoms: C_18  and  C_21
REMARK    6  A    between atoms: C_30  and  C_31
REMARK                            x       y       z     vdW  Elec       q    Type
REMARK                         _______ _______ _______ _____ _____    ______ ____
ROOT
ATOM      3  N   UNL     1     -11.668   8.818  19.009  0.00  0.00    -0.278 NA
ATOM      4  N   UNL     1     -12.866   8.336  15.510  0.00  0.00    -0.347 N 
ATOM      5  N   UNL     1     -10.691   8.387  14.987  0.00  0.00    -0.240 NA
ATOM      8  C   UNL     1     -10.403   9.494  18.626  0.00  0.00    +0.150 C 
ATOM      9  C   UNL     1      -9.800   8.952  17.298  0.00  0.00    +0.085 C 
ATOM     10  C   UNL     1     -12.752   8.911  18.003  0.00  0.00    +0.140 C 
ATOM     11  C   UNL     1     -12.199   8.637  16.658  0.00  0.00    +0.053 A 
ATOM     12  C   UNL     1     -10.870   8.667  16.312  0.00  0.00    +0.065 A 
ATOM     16  C   UNL     1     -11.914   8.193  14.530  0.00  0.00    +0.197 A 
ATOM     32  H   UNL     1     -13.865   8.238  15.394  0.00  0.00    +0.167 HD
ENDROOT
BRANCH   8  14
ATOM      2  O   UNL     1     -11.515  11.544  19.149  0.00  0.00    -0.274 OA
ATOM      6  N   UNL     1      -9.709  11.586  17.681  0.00  0.00    -0.310 N 
ATOM     14  C   UNL     1     -10.615  10.979  18.534  0.00  0.00    +0.231 C 
ATOM     33  H   UNL     1      -8.988  11.029  17.230  0.00  0.00    +0.149 HD
BRANCH   6  18
ATOM     18  C   UNL     1      -9.713  13.004  17.402  0.00  0.00    +0.139 C 
BRANCH  18  21
ATOM     21  C   UNL     1      -8.785  13.359  16.277  0.00  0.00    -0.030 A 
ATOM     26  C   UNL     1      -7.404  13.316  16.473  0.00  0.00    +0.006 A 
ATOM     27  C   UNL     1      -9.303  13.729  15.036  0.00  0.00    +0.006 A 
ATOM     28  C   UNL     1      -6.542  13.645  15.427  0.00  0.00    +0.019 A 
ATOM     29  C   UNL     1      -8.440  14.058  13.990  0.00  0.00    +0.019 A 
ATOM     30  C   UNL     1      -7.059  14.016  14.186  0.00  0.00    +0.052 A 
BRANCH  30  31
ATOM      7  N   UNL     1      -5.457  14.627  12.246  0.00  0.00    -0.191 NA
ATOM     31  C   UNL     1      -6.176  14.353  13.115  0.00  0.00    +0.099 C 
ENDBRANCH  30  31
ENDBRANCH  18  21
ENDBRANCH   6  18
ENDBRANCH   8  14
BRANCH   3  13
ATOM     13  C   UNL     1     -12.142   9.187  20.339  0.00  0.00    +0.160 C 
BRANCH  13  15
ATOM      1  O   UNL     1     -13.953   8.364  21.732  0.00  0.00    -0.458 OA
ATOM     15  C   UNL     1     -12.838   8.047  21.025  0.00  0.00    +0.120 A 
ATOM     17  C   UNL     1     -12.581   6.697  21.098  0.00  0.00    +0.054 A 
ATOM     19  C   UNL     1     -13.607   6.139  21.906  0.00  0.00    +0.020 A 
ATOM     20  C   UNL     1     -14.424   7.203  22.270  0.00  0.00    +0.135 A 
ATOM     22  C   UNL     1     -13.935   4.852  22.367  0.00  0.00    +0.011 A 
ATOM     23  C   UNL     1     -15.559   7.080  23.071  0.00  0.00    +0.047 A 
ATOM     24  C   UNL     1     -15.069   4.696  23.175  0.00  0.00    +0.001 A 
ATOM     25  C   UNL     1     -15.866   5.792  23.518  0.00  0.00    +0.004 A 
ENDBRANCH  13  15
ENDBRANCH   3  13
TORSDOF 6
ENDMDL
MODEL 10
REMARK VINA RESULT:      -6.7     15.089     18.451
REMARK  Name = 26745389
REMARK  6 active torsions:
REMARK  status: ('A' for Active; 'I' for Inactive)
REMARK    1  A    between atoms: N_3  and  C_13
REMARK    2  A    between atoms: N_6  and  C_18
REMARK    3  A    between atoms: C_8  and  C_14
REMARK    4  A    between atoms: C_13  and  C_15
REMARK    5  A    between atoms: C_18  and  C_21
REMARK    6  A    between atoms: C_30  and  C_31
REMARK                            x       y       z     vdW  Elec       q    Type
REMARK                         _______ _______ _______ _____ _____    ______ ____
ROOT
ATOM      3  N   UNL     1       7.623  11.746   3.519  0.00  0.00    -0.278 NA
ATOM      4  N   UNL     1       5.955  12.182   0.212  0.00  0.00    -0.347 N 
ATOM      5  N   UNL     1       4.161  11.336   1.248  0.00  0.00    -0.240 NA
ATOM      8  C   UNL     1       6.741  10.640   3.970  0.00  0.00    +0.150 C 
ATOM      9  C   UNL     1       5.277  10.783   3.461  0.00  0.00    +0.085 C 
ATOM     10  C   UNL     1       7.718  11.905   2.049  0.00  0.00    +0.140 C 
ATOM     11  C   UNL     1       6.365  11.813   1.457  0.00  0.00    +0.053 A 
ATOM     12  C   UNL     1       5.252  11.293   2.070  0.00  0.00    +0.065 A 
ATOM     16  C   UNL     1       4.618  11.876   0.134  0.00  0.00    +0.197 A 
ATOM     32  H   UNL     1       6.519  12.599  -0.516  0.00  0.00    +0.167 HD
ENDROOT
BRANCH   8  14
ATOM      2  O   UNL     1       7.371   8.980   2.369  0.00  0.00    -0.274 OA
ATOM      6  N   UNL     1       7.720   8.554   4.631  0.00  0.00    -0.310 N 
ATOM     14  C   UNL     1       7.312   9.316   3.549  0.00  0.00    +0.231 C 
ATOM     33  H   UNL     1       7.643   8.930   5.572  0.00  0.00    +0.149 HD
BRANCH   6  18
ATOM     18  C   UNL     1       8.284   7.230   4.497  0.00  0.00    +0.139 C 
BRANCH  18  21
ATOM     21  C   UNL     1       8.705   6.662   5.822  0.00  0.00    -0.030 A 
ATOM     26  C   UNL     1       9.317   5.410   5.881  0.00  0.00    +0.006 A 
ATOM     27  C   UNL     1       8.485   7.386   6.993  0.00  0.00    +0.006 A 
ATOM     28  C   UNL     1       9.709   4.882   7.111  0.00  0.00    +0.019 A 
ATOM     29  C   UNL     1       8.876   6.858   8.224  0.00  0.00    +0.019 A 
ATOM     30  C   UNL     1       9.488   5.606   8.283  0.00  0.00    +0.052 A 
BRANCH  30  31
ATOM      7  N   UNL     1      10.214   4.627  10.568  0.00  0.00    -0.191 NA
ATOM     31  C   UNL     1       9.889   5.066   9.543  0.00  0.00    +0.099 C 
ENDBRANCH  30  31
ENDBRANCH  18  21
ENDBRANCH   6  18
ENDBRANCH   8  14
BRANCH   3  13
ATOM     13  C   UNL     1       8.944  11.721   4.138  0.00  0.00    +0.160 C 
BRANCH  13  15
ATOM      1  O   UNL     1       9.267  10.906   6.403  0.00  0.00    -0.458 OA
ATOM     15  C   UNL     1       8.875  11.945   5.621  0.00  0.00    +0.120 A 
ATOM     17  C   UNL     1       8.485  13.015   6.393  0.00  0.00    +0.054 A 
ATOM     19  C   UNL     1       8.645  12.612   7.745  0.00  0.00    +0.020 A 
ATOM     20  C   UNL     1       9.128  11.309   7.698  0.00  0.00    +0.135 A 
ATOM     22  C   UNL     1       8.436  13.206   9.003  0.00  0.00    +0.011 A 
ATOM     23  C   UNL     1       9.423  10.543   8.824  0.00  0.00    +0.047 A 
ATOM     24  C   UNL     1       8.722  12.460  10.154  0.00  0.00    +0.001 A 
ATOM     25  C   UNL     1       9.207  11.152  10.064  0.00  0.00    +0.004 A 
ENDBRANCH  13  15
ENDBRANCH   3  13
TORSDOF 6
ENDMDL
