MODEL 1
REMARK VINA RESULT:      -6.1      0.000      0.000
REMARK  Name = 38031153
REMARK  15 active torsions:
REMARK  status: ('A' for Active; 'I' for Inactive)
REMARK    1  A    between atoms: N_3  and  C_14
REMARK    2  A    between atoms: N_3  and  C_20
REMARK    3  A    between atoms: N_4  and  C_21
REMARK    4  A    between atoms: C_7  and  C_11
REMARK    5  A    between atoms: C_8  and  C_14
REMARK    6  A    between atoms: C_10  and  C_15
REMARK    7  A    between atoms: C_11  and  C_16
REMARK    8  A    between atoms: C_11  and  C_17
REMARK    9  A    between atoms: C_12  and  C_18
REMARK   10  A    between atoms: C_15  and  C_19
REMARK   11  A    between atoms: C_20  and  C_21
REMARK   12  A    between atoms: C_22  and  C_23
REMARK   13  A    between atoms: C_23  and  C_28
REMARK   14  A    between atoms: C_23  and  C_29
REMARK   15  A    between atoms: C_23  and  C_30
REMARK                            x       y       z     vdW  Elec       q    Type
REMARK                         _______ _______ _______ _____ _____    ______ ____
ROOT
ATOM      7  C   UNL     1      -6.613 -10.937  16.197  0.00  0.00    +0.000 C 
ATOM      8  C   UNL     1      -7.082 -10.988  17.672  0.00  0.00    +0.029 C 
ATOM      9  C   UNL     1      -5.586 -12.048  15.922  0.00  0.00    +0.012 C 
ATOM     10  C   UNL     1      -4.348 -11.934  16.833  0.00  0.00    +0.024 C 
ATOM     12  C   UNL     1      -4.733 -11.712  18.280  0.00  0.00    -0.073 C 
ATOM     13  C   UNL     1      -5.963 -11.301  18.638  0.00  0.00    -0.023 C 
ATOM     18  C   UNL     1      -3.685 -12.015  19.314  0.00  0.00    +0.039 C 
ENDROOT
BRANCH   7  11
ATOM     11  C   UNL     1      -7.786 -11.064  15.221  0.00  0.00    -0.013 C 
ATOM     16  C   UNL     1      -7.277 -11.208  13.790  0.00  0.00    +0.007 C 
ATOM     17  C   UNL     1      -8.670 -12.248  15.603  0.00  0.00    +0.007 C 
ENDBRANCH   7  11
BRANCH   8  14
ATOM     14  C   UNL     1      -7.758  -9.675  18.083  0.00  0.00    +0.088 C 
BRANCH  14   3
ATOM      3  N   UNL     1      -9.132  -9.911  18.493  0.00  0.00    -0.314 NA
ATOM     31  H   UNL     1      -9.365 -10.901  18.411  0.00  0.00    +0.122 HD
BRANCH   3  20
ATOM     20  C   UNL     1     -10.062  -9.129  17.688  0.00  0.00    +0.096 C 
BRANCH  20  21
ATOM     21  C   UNL     1      -9.326  -7.989  16.991  0.00  0.00    +0.099 C 
BRANCH  21   4
ATOM      2  O   UNL     1     -12.586  -7.040  14.526  0.00  0.00    -0.377 OA
ATOM      4  N   UNL     1     -10.118  -7.490  15.869  0.00  0.00    -0.297 NA
ATOM     24  C   UNL     1     -11.057  -6.451  16.314  0.00  0.00    +0.112 C 
ATOM     25  C   UNL     1     -10.851  -8.586  15.220  0.00  0.00    +0.112 C 
ATOM     26  C   UNL     1     -11.881  -5.955  15.129  0.00  0.00    +0.175 C 
ATOM     27  C   UNL     1     -11.679  -8.039  14.060  0.00  0.00    +0.175 C 
ENDBRANCH  21   4
ENDBRANCH  20  21
ENDBRANCH   3  20
ENDBRANCH  14   3
ENDBRANCH   8  14
BRANCH  10  15
ATOM     15  C   UNL     1      -3.400 -10.835  16.341  0.00  0.00    +0.105 C 
BRANCH  15  19
ATOM      1  O   UNL     1      -3.561 -10.488  13.931  0.00  0.00    -0.424 OA
ATOM      5  N   UNL     1      -1.927 -11.886  14.549  0.00  0.00    -0.112 NA
ATOM      6  N   UNL     1      -1.903 -11.782  13.170  0.00  0.00    -0.112 NA
ATOM     19  C   UNL     1      -2.910 -11.115  14.950  0.00  0.00    +0.218 A 
ATOM     22  C   UNL     1      -2.873 -10.956  12.855  0.00  0.00    +0.223 A 
BRANCH  22  23
ATOM     23  C   UNL     1      -3.303 -10.480  11.535  0.00  0.00    +0.040 C 
ATOM     28  C   UNL     1      -2.246  -9.521  10.881  0.00  0.00    +0.020 C 
ATOM     29  C   UNL     1      -4.652  -9.682  11.606  0.00  0.00    +0.020 C 
ATOM     30  C   UNL     1      -3.558 -11.588  10.445  0.00  0.00    +0.020 C 
ENDBRANCH  22  23
ENDBRANCH  15  19
ENDBRANCH  10  15
TORSDOF 9
ENDMDL
MODEL 2
REMARK VINA RESULT:      -6.0     27.726     29.827
REMARK  Name = 38031153
REMARK  15 active torsions:
REMARK  status: ('A' for Active; 'I' for Inactive)
REMARK    1  A    between atoms: N_3  and  C_14
REMARK    2  A    between atoms: N_3  and  C_20
REMARK    3  A    between atoms: N_4  and  C_21
REMARK    4  A    between atoms: C_7  and  C_11
REMARK    5  A    between atoms: C_8  and  C_14
REMARK    6  A    between atoms: C_10  and  C_15
REMARK    7  A    between atoms: C_11  and  C_16
REMARK    8  A    between atoms: C_11  and  C_17
REMARK    9  A    between atoms: C_12  and  C_18
REMARK   10  A    between atoms: C_15  and  C_19
REMARK   11  A    between atoms: C_20  and  C_21
REMARK   12  A    between atoms: C_22  and  C_23
REMARK   13  A    between atoms: C_23  and  C_28
REMARK   14  A    between atoms: C_23  and  C_29
REMARK   15  A    between atoms: C_23  and  C_30
REMARK                            x       y       z     vdW  Elec       q    Type
REMARK                         _______ _______ _______ _____ _____    ______ ____
ROOT
ATOM      7  C   UNL     1      15.037  11.102  22.913  0.00  0.00    +0.000 C 
ATOM      8  C   UNL     1      13.982  11.692  21.945  0.00  0.00    +0.029 C 
ATOM      9  C   UNL     1      16.344  10.799  22.163  0.00  0.00    +0.012 C 
ATOM     10  C   UNL     1      16.133   9.805  21.005  0.00  0.00    +0.024 C 
ATOM     12  C   UNL     1      14.936  10.177  20.155  0.00  0.00    -0.073 C 
ATOM     13  C   UNL     1      13.991  11.032  20.586  0.00  0.00    -0.023 C 
ATOM     18  C   UNL     1      14.870   9.578  18.778  0.00  0.00    +0.039 C 
ENDROOT
BRANCH   7  11
ATOM     11  C   UNL     1      15.320  12.042  24.089  0.00  0.00    -0.013 C 
ATOM     16  C   UNL     1      14.841  13.454  23.770  0.00  0.00    +0.007 C 
ATOM     17  C   UNL     1      14.657  11.519  25.360  0.00  0.00    +0.007 C 
ENDBRANCH   7  11
BRANCH   8  14
ATOM     14  C   UNL     1      12.573  11.609  22.544  0.00  0.00    +0.088 C 
BRANCH  14   3
ATOM      3  N   UNL     1      12.337  10.296  23.119  0.00  0.00    -0.314 NA
ATOM     31  H   UNL     1      12.965   9.606  22.708  0.00  0.00    +0.122 HD
BRANCH   3  20
ATOM     20  C   UNL     1      10.957   9.874  22.915  0.00  0.00    +0.096 C 
BRANCH  20  21
ATOM     21  C   UNL     1      10.912   8.413  22.477  0.00  0.00    +0.099 C 
BRANCH  21   4
ATOM      2  O   UNL     1      12.129   7.013  18.713  0.00  0.00    -0.377 OA
ATOM      4  N   UNL     1      11.675   8.233  21.245  0.00  0.00    -0.297 NA
ATOM     24  C   UNL     1      10.857   8.570  20.071  0.00  0.00    +0.112 C 
ATOM     25  C   UNL     1      12.169   6.853  21.134  0.00  0.00    +0.112 C 
ATOM     26  C   UNL     1      11.670   8.362  18.795  0.00  0.00    +0.175 C 
ATOM     27  C   UNL     1      12.952   6.687  19.833  0.00  0.00    +0.175 C 
ENDBRANCH  21   4
ENDBRANCH  20  21
ENDBRANCH   3  20
ENDBRANCH  14   3
ENDBRANCH   8  14
BRANCH  10  15
ATOM     15  C   UNL     1      16.014   8.369  21.525  0.00  0.00    +0.105 C 
BRANCH  15  19
ATOM      1  O   UNL     1      18.264   7.425  21.507  0.00  0.00    -0.424 OA
ATOM      5  N   UNL     1      16.955   6.705  19.842  0.00  0.00    -0.112 NA
ATOM      6  N   UNL     1      18.189   6.095  19.711  0.00  0.00    -0.112 NA
ATOM     19  C   UNL     1      17.045   7.472  20.902  0.00  0.00    +0.218 A 
ATOM     22  C   UNL     1      18.920   6.545  20.704  0.00  0.00    +0.223 A 
BRANCH  22  23
ATOM     23  C   UNL     1      20.309   6.232  21.058  0.00  0.00    +0.040 C 
ATOM     28  C   UNL     1      21.315   7.296  20.493  0.00  0.00    +0.020 C 
ATOM     29  C   UNL     1      20.762   4.840  20.495  0.00  0.00    +0.020 C 
ATOM     30  C   UNL     1      20.635   6.160  22.597  0.00  0.00    +0.020 C 
ENDBRANCH  22  23
ENDBRANCH  15  19
ENDBRANCH  10  15
TORSDOF 9
ENDMDL
MODEL 3
REMARK VINA RESULT:      -6.0     26.958     29.484
REMARK  Name = 38031153
REMARK  15 active torsions:
REMARK  status: ('A' for Active; 'I' for Inactive)
REMARK    1  A    between atoms: N_3  and  C_14
REMARK    2  A    between atoms: N_3  and  C_20
REMARK    3  A    between atoms: N_4  and  C_21
REMARK    4  A    between atoms: C_7  and  C_11
REMARK    5  A    between atoms: C_8  and  C_14
REMARK    6  A    between atoms: C_10  and  C_15
REMARK    7  A    between atoms: C_11  and  C_16
REMARK    8  A    between atoms: C_11  and  C_17
REMARK    9  A    between atoms: C_12  and  C_18
REMARK   10  A    between atoms: C_15  and  C_19
REMARK   11  A    between atoms: C_20  and  C_21
REMARK   12  A    between atoms: C_22  and  C_23
REMARK   13  A    between atoms: C_23  and  C_28
REMARK   14  A    between atoms: C_23  and  C_29
REMARK   15  A    between atoms: C_23  and  C_30
REMARK                            x       y       z     vdW  Elec       q    Type
REMARK                         _______ _______ _______ _____ _____    ______ ____
ROOT
ATOM      7  C   UNL     1      12.974   9.510  19.872  0.00  0.00    +0.000 C 
ATOM      8  C   UNL     1      13.053   8.190  19.065  0.00  0.00    +0.029 C 
ATOM      9  C   UNL     1      13.128   9.230  21.375  0.00  0.00    +0.012 C 
ATOM     10  C   UNL     1      12.045   8.268  21.902  0.00  0.00    +0.024 C 
ATOM     12  C   UNL     1      11.878   7.061  21.003  0.00  0.00    -0.073 C 
ATOM     13  C   UNL     1      12.347   7.039  19.742  0.00  0.00    -0.023 C 
ATOM     18  C   UNL     1      11.199   5.860  21.600  0.00  0.00    +0.039 C 
ENDROOT
BRANCH   7  11
ATOM     11  C   UNL     1      14.034  10.518  19.421  0.00  0.00    -0.013 C 
ATOM     16  C   UNL     1      13.866  11.838  20.167  0.00  0.00    +0.007 C 
ATOM     17  C   UNL     1      15.434   9.949  19.635  0.00  0.00    +0.007 C 
ENDBRANCH   7  11
BRANCH   8  14
ATOM     14  C   UNL     1      12.493   8.372  17.650  0.00  0.00    +0.088 C 
BRANCH  14   3
ATOM      3  N   UNL     1      13.368   7.755  16.668  0.00  0.00    -0.314 NA
ATOM     31  H   UNL     1      13.990   7.082  17.114  0.00  0.00    +0.122 HD
BRANCH   3  20
ATOM     20  C   UNL     1      14.164   8.757  15.970  0.00  0.00    +0.096 C 
BRANCH  20  21
ATOM     21  C   UNL     1      13.338  10.019  15.740  0.00  0.00    +0.099 C 
BRANCH  21   4
ATOM      2  O   UNL     1      15.716  12.573  13.410  0.00  0.00    -0.377 OA
ATOM      4  N   UNL     1      14.206  11.123  15.339  0.00  0.00    -0.297 NA
ATOM     24  C   UNL     1      13.553  11.956  14.320  0.00  0.00    +0.112 C 
ATOM     25  C   UNL     1      15.489  10.618  14.829  0.00  0.00    +0.112 C 
ATOM     26  C   UNL     1      14.483  13.095  13.907  0.00  0.00    +0.175 C 
ATOM     27  C   UNL     1      16.374  11.789  14.405  0.00  0.00    +0.175 C 
ENDBRANCH  21   4
ENDBRANCH  20  21
ENDBRANCH   3  20
ENDBRANCH  14   3
ENDBRANCH   8  14
BRANCH  10  15
ATOM     15  C   UNL     1      10.711   8.995  22.101  0.00  0.00    +0.105 C 
BRANCH  15  19
ATOM      1  O   UNL     1      10.904  11.427  22.124  0.00  0.00    -0.424 OA
ATOM      5  N   UNL     1      11.043  10.478  24.144  0.00  0.00    -0.112 NA
ATOM      6  N   UNL     1      11.167  11.846  24.305  0.00  0.00    -0.112 NA
ATOM     19  C   UNL     1      10.892  10.280  22.857  0.00  0.00    +0.218 A 
ATOM     22  C   UNL     1      11.079  12.358  23.100  0.00  0.00    +0.223 A 
BRANCH  22  23
ATOM     23  C   UNL     1      11.139  13.762  22.675  0.00  0.00    +0.040 C 
ATOM     28  C   UNL     1      10.010  14.627  23.337  0.00  0.00    +0.020 C 
ATOM     29  C   UNL     1      10.972  13.915  21.122  0.00  0.00    +0.020 C 
ATOM     30  C   UNL     1      12.472  14.532  23.006  0.00  0.00    +0.020 C 
ENDBRANCH  22  23
ENDBRANCH  15  19
ENDBRANCH  10  15
TORSDOF 9
ENDMDL
MODEL 4
REMARK VINA RESULT:      -5.9     18.907     23.031
REMARK  Name = 38031153
REMARK  15 active torsions:
REMARK  status: ('A' for Active; 'I' for Inactive)
REMARK    1  A    between atoms: N_3  and  C_14
REMARK    2  A    between atoms: N_3  and  C_20
REMARK    3  A    between atoms: N_4  and  C_21
REMARK    4  A    between atoms: C_7  and  C_11
REMARK    5  A    between atoms: C_8  and  C_14
REMARK    6  A    between atoms: C_10  and  C_15
REMARK    7  A    between atoms: C_11  and  C_16
REMARK    8  A    between atoms: C_11  and  C_17
REMARK    9  A    between atoms: C_12  and  C_18
REMARK   10  A    between atoms: C_15  and  C_19
REMARK   11  A    between atoms: C_20  and  C_21
REMARK   12  A    between atoms: C_22  and  C_23
REMARK   13  A    between atoms: C_23  and  C_28
REMARK   14  A    between atoms: C_23  and  C_29
REMARK   15  A    between atoms: C_23  and  C_30
REMARK                            x       y       z     vdW  Elec       q    Type
REMARK                         _______ _______ _______ _____ _____    ______ ____
ROOT
ATOM      7  C   UNL     1     -15.124   1.518  30.277  0.00  0.00    +0.000 C 
ATOM      8  C   UNL     1     -16.348   2.061  29.497  0.00  0.00    +0.029 C 
ATOM      9  C   UNL     1     -15.288   1.780  31.782  0.00  0.00    +0.012 C 
ATOM     10  C   UNL     1     -15.444   3.280  32.099  0.00  0.00    +0.024 C 
ATOM     12  C   UNL     1     -16.448   3.947  31.183  0.00  0.00    -0.073 C 
ATOM     13  C   UNL     1     -16.850   3.381  30.030  0.00  0.00    -0.023 C 
ATOM     18  C   UNL     1     -17.016   5.261  31.643  0.00  0.00    +0.039 C 
ENDROOT
BRANCH   7  11
ATOM     11  C   UNL     1     -14.909   0.022  30.032  0.00  0.00    -0.013 C 
ATOM     16  C   UNL     1     -13.434  -0.271  29.780  0.00  0.00    +0.007 C 
ATOM     17  C   UNL     1     -15.429  -0.791  31.214  0.00  0.00    +0.007 C 
ENDBRANCH   7  11
BRANCH   8  14
ATOM     14  C   UNL     1     -16.034   2.199  28.003  0.00  0.00    +0.088 C 
BRANCH  14   3
ATOM      3  N   UNL     1     -15.911   3.598  27.632  0.00  0.00    -0.314 NA
ATOM     31  H   UNL     1     -16.307   4.197  28.355  0.00  0.00    +0.122 HD
BRANCH   3  20
ATOM     20  C   UNL     1     -16.579   3.866  26.364  0.00  0.00    +0.096 C 
BRANCH  20  21
ATOM     21  C   UNL     1     -15.707   3.405  25.201  0.00  0.00    +0.099 C 
BRANCH  21   4
ATOM      2  O   UNL     1     -15.555   5.015  21.329  0.00  0.00    -0.377 OA
ATOM      4  N   UNL     1     -15.835   4.330  24.078  0.00  0.00    -0.297 NA
ATOM     24  C   UNL     1     -16.737   3.785  23.054  0.00  0.00    +0.112 C 
ATOM     25  C   UNL     1     -14.520   4.618  23.487  0.00  0.00    +0.112 C 
ATOM     26  C   UNL     1     -16.845   4.762  21.885  0.00  0.00    +0.175 C 
ATOM     27  C   UNL     1     -14.681   5.576  22.309  0.00  0.00    +0.175 C 
ENDBRANCH  21   4
ENDBRANCH  20  21
ENDBRANCH   3  20
ENDBRANCH  14   3
ENDBRANCH   8  14
BRANCH  10  15
ATOM     15  C   UNL     1     -14.091   3.998  32.048  0.00  0.00    +0.105 C 
BRANCH  15  19
ATOM      1  O   UNL     1     -13.576   6.251  32.829  0.00  0.00    -0.424 OA
ATOM      5  N   UNL     1     -14.142   4.825  34.456  0.00  0.00    -0.112 NA
ATOM      6  N   UNL     1     -13.879   6.052  35.036  0.00  0.00    -0.112 NA
ATOM     19  C   UNL     1     -13.952   4.988  33.169  0.00  0.00    +0.218 A 
ATOM     22  C   UNL     1     -13.553   6.853  34.049  0.00  0.00    +0.223 A 
BRANCH  22  23
ATOM     23  C   UNL     1     -13.181   8.273  34.082  0.00  0.00    +0.040 C 
ATOM     28  C   UNL     1     -14.439   9.211  34.120  0.00  0.00    +0.020 C 
ATOM     29  C   UNL     1     -12.344   8.692  32.823  0.00  0.00    +0.020 C 
ATOM     30  C   UNL     1     -12.308   8.734  35.308  0.00  0.00    +0.020 C 
ENDBRANCH  22  23
ENDBRANCH  15  19
ENDBRANCH  10  15
TORSDOF 9
ENDMDL
MODEL 5
REMARK VINA RESULT:      -5.9     27.251     29.981
REMARK  Name = 38031153
REMARK  15 active torsions:
REMARK  status: ('A' for Active; 'I' for Inactive)
REMARK    1  A    between atoms: N_3  and  C_14
REMARK    2  A    between atoms: N_3  and  C_20
REMARK    3  A    between atoms: N_4  and  C_21
REMARK    4  A    between atoms: C_7  and  C_11
REMARK    5  A    between atoms: C_8  and  C_14
REMARK    6  A    between atoms: C_10  and  C_15
REMARK    7  A    between atoms: C_11  and  C_16
REMARK    8  A    between atoms: C_11  and  C_17
REMARK    9  A    between atoms: C_12  and  C_18
REMARK   10  A    between atoms: C_15  and  C_19
REMARK   11  A    between atoms: C_20  and  C_21
REMARK   12  A    between atoms: C_22  and  C_23
REMARK   13  A    between atoms: C_23  and  C_28
REMARK   14  A    between atoms: C_23  and  C_29
REMARK   15  A    between atoms: C_23  and  C_30
REMARK                            x       y       z     vdW  Elec       q    Type
REMARK                         _______ _______ _______ _____ _____    ______ ____
ROOT
ATOM      7  C   UNL     1      13.653   9.812  20.278  0.00  0.00    +0.000 C 
ATOM      8  C   UNL     1      12.504   8.815  20.571  0.00  0.00    +0.029 C 
ATOM      9  C   UNL     1      13.235  10.804  19.180  0.00  0.00    +0.012 C 
ATOM     10  C   UNL     1      12.858  10.092  17.866  0.00  0.00    +0.024 C 
ATOM     12  C   UNL     1      11.931   8.919  18.107  0.00  0.00    -0.073 C 
ATOM     13  C   UNL     1      11.775   8.370  19.325  0.00  0.00    -0.023 C 
ATOM     18  C   UNL     1      11.149   8.419  16.924  0.00  0.00    +0.039 C 
ENDROOT
BRANCH   7  11
ATOM     11  C   UNL     1      14.077  10.579  21.534  0.00  0.00    -0.013 C 
ATOM     16  C   UNL     1      15.173  11.586  21.199  0.00  0.00    +0.007 C 
ATOM     17  C   UNL     1      12.874  11.277  22.162  0.00  0.00    +0.007 C 
ENDBRANCH   7  11
BRANCH   8  14
ATOM     14  C   UNL     1      13.019   7.586  21.328  0.00  0.00    +0.088 C 
BRANCH  14   3
ATOM      3  N   UNL     1      13.526   6.587  20.402  0.00  0.00    -0.314 NA
ATOM     31  H   UNL     1      13.036   5.702  20.526  0.00  0.00    +0.122 HD
BRANCH   3  20
ATOM     20  C   UNL     1      14.957   6.377  20.586  0.00  0.00    +0.096 C 
BRANCH  20  21
ATOM     21  C   UNL     1      15.742   7.132  19.519  0.00  0.00    +0.099 C 
BRANCH  21   4
ATOM      2  O   UNL     1      19.136   7.373  21.974  0.00  0.00    -0.377 OA
ATOM      4  N   UNL     1      17.066   7.485  20.023  0.00  0.00    -0.297 NA
ATOM     24  C   UNL     1      17.896   6.284  20.196  0.00  0.00    +0.112 C 
ATOM     25  C   UNL     1      16.963   8.213  21.296  0.00  0.00    +0.112 C 
ATOM     26  C   UNL     1      19.269   6.676  20.735  0.00  0.00    +0.175 C 
ATOM     27  C   UNL     1      18.359   8.560  21.808  0.00  0.00    +0.175 C 
ENDBRANCH  21   4
ENDBRANCH  20  21
ENDBRANCH   3  20
ENDBRANCH  14   3
ENDBRANCH   8  14
BRANCH  10  15
ATOM     15  C   UNL     1      14.108   9.654  17.096  0.00  0.00    +0.105 C 
BRANCH  15  19
ATOM      1  O   UNL     1      15.477  11.009  15.597  0.00  0.00    -0.424 OA
ATOM      5  N   UNL     1      13.400  10.636  14.856  0.00  0.00    -0.112 NA
ATOM      6  N   UNL     1      14.057  11.409  13.916  0.00  0.00    -0.112 NA
ATOM     19  C   UNL     1      14.266  10.428  15.818  0.00  0.00    +0.218 A 
ATOM     22  C   UNL     1      15.266  11.601  14.391  0.00  0.00    +0.223 A 
BRANCH  22  23
ATOM     23  C   UNL     1      16.390  12.345  13.811  0.00  0.00    +0.040 C 
ATOM     28  C   UNL     1      16.271  13.888  14.068  0.00  0.00    +0.020 C 
ATOM     29  C   UNL     1      16.485  12.153  12.256  0.00  0.00    +0.020 C 
ATOM     30  C   UNL     1      17.823  11.965  14.343  0.00  0.00    +0.020 C 
ENDBRANCH  22  23
ENDBRANCH  15  19
ENDBRANCH  10  15
TORSDOF 9
ENDMDL
MODEL 6
REMARK VINA RESULT:      -5.9     28.219     30.380
REMARK  Name = 38031153
REMARK  15 active torsions:
REMARK  status: ('A' for Active; 'I' for Inactive)
REMARK    1  A    between atoms: N_3  and  C_14
REMARK    2  A    between atoms: N_3  and  C_20
REMARK    3  A    between atoms: N_4  and  C_21
REMARK    4  A    between atoms: C_7  and  C_11
REMARK    5  A    between atoms: C_8  and  C_14
REMARK    6  A    between atoms: C_10  and  C_15
REMARK    7  A    between atoms: C_11  and  C_16
REMARK    8  A    between atoms: C_11  and  C_17
REMARK    9  A    between atoms: C_12  and  C_18
REMARK   10  A    between atoms: C_15  and  C_19
REMARK   11  A    between atoms: C_20  and  C_21
REMARK   12  A    between atoms: C_22  and  C_23
REMARK   13  A    between atoms: C_23  and  C_28
REMARK   14  A    between atoms: C_23  and  C_29
REMARK   15  A    between atoms: C_23  and  C_30
REMARK                            x       y       z     vdW  Elec       q    Type
REMARK                         _______ _______ _______ _____ _____    ______ ____
ROOT
ATOM      7  C   UNL     1      16.721   8.229  21.141  0.00  0.00    +0.000 C 
ATOM      8  C   UNL     1      16.243   7.289  20.007  0.00  0.00    +0.029 C 
ATOM      9  C   UNL     1      18.226   8.511  21.005  0.00  0.00    +0.012 C 
ATOM     10  C   UNL     1      19.067   7.220  21.052  0.00  0.00    +0.024 C 
ATOM     12  C   UNL     1      18.496   6.143  20.153  0.00  0.00    -0.073 C 
ATOM     13  C   UNL     1      17.236   6.197  19.685  0.00  0.00    -0.023 C 
ATOM     18  C   UNL     1      19.421   5.023  19.766  0.00  0.00    +0.039 C 
ENDROOT
BRANCH   7  11
ATOM     11  C   UNL     1      15.946   9.550  21.152  0.00  0.00    -0.013 C 
ATOM     16  C   UNL     1      16.624  10.558  22.074  0.00  0.00    +0.007 C 
ATOM     17  C   UNL     1      15.824  10.107  19.737  0.00  0.00    +0.007 C 
ENDBRANCH   7  11
BRANCH   8  14
ATOM     14  C   UNL     1      14.885   6.661  20.346  0.00  0.00    +0.088 C 
BRANCH  14   3
ATOM      3  N   UNL     1      13.903   6.979  19.324  0.00  0.00    -0.314 NA
ATOM     31  H   UNL     1      14.114   7.878  18.892  0.00  0.00    +0.122 HD
BRANCH   3  20
ATOM     20  C   UNL     1      12.557   7.016  19.882  0.00  0.00    +0.096 C 
BRANCH  20  21
ATOM     21  C   UNL     1      11.754   8.147  19.246  0.00  0.00    +0.099 C 
BRANCH  21   4
ATOM      2  O   UNL     1      11.438  10.345  22.807  0.00  0.00    -0.377 OA
ATOM      4  N   UNL     1      11.252   9.050  20.279  0.00  0.00    -0.297 NA
ATOM     24  C   UNL     1      12.193  10.155  20.509  0.00  0.00    +0.112 C 
ATOM     25  C   UNL     1      11.012   8.324  21.534  0.00  0.00    +0.112 C 
ATOM     26  C   UNL     1      11.654  11.077  21.600  0.00  0.00    +0.175 C 
ATOM     27  C   UNL     1      10.499   9.290  22.600  0.00  0.00    +0.175 C 
ENDBRANCH  21   4
ENDBRANCH  20  21
ENDBRANCH   3  20
ENDBRANCH  14   3
ENDBRANCH   8  14
BRANCH  10  15
ATOM     15  C   UNL     1      19.218   6.713  22.490  0.00  0.00    +0.105 C 
BRANCH  15  19
ATOM      1  O   UNL     1      21.055   5.112  22.626  0.00  0.00    -0.424 OA
ATOM      5  N   UNL     1      21.600   7.188  23.258  0.00  0.00    -0.112 NA
ATOM      6  N   UNL     1      22.725   6.394  23.383  0.00  0.00    -0.112 NA
ATOM     19  C   UNL     1      20.651   6.399  22.813  0.00  0.00    +0.218 A 
ATOM     22  C   UNL     1      22.360   5.191  23.004  0.00  0.00    +0.223 A 
BRANCH  22  23
ATOM     23  C   UNL     1      23.148   3.955  22.931  0.00  0.00    +0.040 C 
ATOM     28  C   UNL     1      22.984   3.233  21.547  0.00  0.00    +0.020 C 
ATOM     29  C   UNL     1      22.726   2.921  24.032  0.00  0.00    +0.020 C 
ATOM     30  C   UNL     1      24.704   4.112  23.113  0.00  0.00    +0.020 C 
ENDBRANCH  22  23
ENDBRANCH  15  19
ENDBRANCH  10  15
TORSDOF 9
ENDMDL
MODEL 7
REMARK VINA RESULT:      -5.7     24.514     28.784
REMARK  Name = 38031153
REMARK  15 active torsions:
REMARK  status: ('A' for Active; 'I' for Inactive)
REMARK    1  A    between atoms: N_3  and  C_14
REMARK    2  A    between atoms: N_3  and  C_20
REMARK    3  A    between atoms: N_4  and  C_21
REMARK    4  A    between atoms: C_7  and  C_11
REMARK    5  A    between atoms: C_8  and  C_14
REMARK    6  A    between atoms: C_10  and  C_15
REMARK    7  A    between atoms: C_11  and  C_16
REMARK    8  A    between atoms: C_11  and  C_17
REMARK    9  A    between atoms: C_12  and  C_18
REMARK   10  A    between atoms: C_15  and  C_19
REMARK   11  A    between atoms: C_20  and  C_21
REMARK   12  A    between atoms: C_22  and  C_23
REMARK   13  A    between atoms: C_23  and  C_28
REMARK   14  A    between atoms: C_23  and  C_29
REMARK   15  A    between atoms: C_23  and  C_30
REMARK                            x       y       z     vdW  Elec       q    Type
REMARK                         _______ _______ _______ _____ _____    ______ ____
ROOT
ATOM      7  C   UNL     1      13.603   7.404   2.811  0.00  0.00    +0.000 C 
ATOM      8  C   UNL     1      14.951   7.405   2.048  0.00  0.00    +0.029 C 
ATOM      9  C   UNL     1      13.556   8.564   3.818  0.00  0.00    +0.012 C 
ATOM     10  C   UNL     1      14.701   8.489   4.846  0.00  0.00    +0.024 C 
ATOM     12  C   UNL     1      16.037   8.222   4.184  0.00  0.00    -0.073 C 
ATOM     13  C   UNL     1      16.129   7.749   2.928  0.00  0.00    -0.023 C 
ATOM     18  C   UNL     1      17.267   8.552   4.982  0.00  0.00    +0.039 C 
ENDROOT
BRANCH   7  11
ATOM     11  C   UNL     1      12.408   7.496   1.858  0.00  0.00    -0.013 C 
ATOM     16  C   UNL     1      11.102   7.550   2.645  0.00  0.00    +0.007 C 
ATOM     17  C   UNL     1      12.544   8.715   0.951  0.00  0.00    +0.007 C 
ENDBRANCH   7  11
BRANCH   8  14
ATOM     14  C   UNL     1      15.201   6.054   1.366  0.00  0.00    +0.088 C 
BRANCH  14   3
ATOM      3  N   UNL     1      14.917   4.959   2.277  0.00  0.00    -0.314 NA
ATOM     31  H   UNL     1      15.680   4.839   2.942  0.00  0.00    +0.122 HD
BRANCH   3  20
ATOM     20  C   UNL     1      14.711   3.711   1.551  0.00  0.00    +0.096 C 
BRANCH  20  21
ATOM     21  C   UNL     1      13.256   3.268   1.668  0.00  0.00    +0.099 C 
BRANCH  21   4
ATOM      2  O   UNL     1      10.238   4.233  -1.083  0.00  0.00    -0.377 OA
ATOM      4  N   UNL     1      12.425   4.013   0.725  0.00  0.00    -0.297 NA
ATOM     24  C   UNL     1      11.038   4.093   1.203  0.00  0.00    +0.112 C 
ATOM     25  C   UNL     1      12.463   3.393  -0.607  0.00  0.00    +0.112 C 
ATOM     26  C   UNL     1      10.186   4.864   0.197  0.00  0.00    +0.175 C 
ATOM     27  C   UNL     1      11.579   4.181  -1.570  0.00  0.00    +0.175 C 
ENDBRANCH  21   4
ENDBRANCH  20  21
ENDBRANCH   3  20
ENDBRANCH  14   3
ENDBRANCH   8  14
BRANCH  10  15
ATOM     15  C   UNL     1      14.405   7.445   5.927  0.00  0.00    +0.105 C 
BRANCH  15  19
ATOM      1  O   UNL     1      12.170   6.472   6.046  0.00  0.00    -0.424 OA
ATOM      5  N   UNL     1      12.365   8.449   7.075  0.00  0.00    -0.112 NA
ATOM      6  N   UNL     1      11.060   8.018   7.221  0.00  0.00    -0.112 NA
ATOM     19  C   UNL     1      12.976   7.516   6.384  0.00  0.00    +0.218 A 
ATOM     22  C   UNL     1      10.992   6.861   6.605  0.00  0.00    +0.223 A 
BRANCH  22  23
ATOM     23  C   UNL     1       9.851   5.952   6.446  0.00  0.00    +0.040 C 
ATOM     28  C   UNL     1       9.525   5.176   7.770  0.00  0.00    +0.020 C 
ATOM     29  C   UNL     1      10.109   4.869   5.340  0.00  0.00    +0.020 C 
ATOM     30  C   UNL     1       8.485   6.618   6.033  0.00  0.00    +0.020 C 
ENDBRANCH  22  23
ENDBRANCH  15  19
ENDBRANCH  10  15
TORSDOF 9
ENDMDL
MODEL 8
REMARK VINA RESULT:      -5.7     27.100     29.688
REMARK  Name = 38031153
REMARK  15 active torsions:
REMARK  status: ('A' for Active; 'I' for Inactive)
REMARK    1  A    between atoms: N_3  and  C_14
REMARK    2  A    between atoms: N_3  and  C_20
REMARK    3  A    between atoms: N_4  and  C_21
REMARK    4  A    between atoms: C_7  and  C_11
REMARK    5  A    between atoms: C_8  and  C_14
REMARK    6  A    between atoms: C_10  and  C_15
REMARK    7  A    between atoms: C_11  and  C_16
REMARK    8  A    between atoms: C_11  and  C_17
REMARK    9  A    between atoms: C_12  and  C_18
REMARK   10  A    between atoms: C_15  and  C_19
REMARK   11  A    between atoms: C_20  and  C_21
REMARK   12  A    between atoms: C_22  and  C_23
REMARK   13  A    between atoms: C_23  and  C_28
REMARK   14  A    between atoms: C_23  and  C_29
REMARK   15  A    between atoms: C_23  and  C_30
REMARK                            x       y       z     vdW  Elec       q    Type
REMARK                         _______ _______ _______ _____ _____    ______ ____
ROOT
ATOM      7  C   UNL     1      12.968  10.650  20.469  0.00  0.00    +0.000 C 
ATOM      8  C   UNL     1      12.844  10.208  21.948  0.00  0.00    +0.029 C 
ATOM      9  C   UNL     1      11.892   9.965  19.612  0.00  0.00    +0.012 C 
ATOM     10  C   UNL     1      11.989   8.429  19.673  0.00  0.00    +0.024 C 
ATOM     12  C   UNL     1      12.141   7.930  21.095  0.00  0.00    -0.073 C 
ATOM     13  C   UNL     1      12.510   8.742  22.102  0.00  0.00    -0.023 C 
ATOM     18  C   UNL     1      11.813   6.484  21.344  0.00  0.00    +0.039 C 
ENDROOT
BRANCH   7  11
ATOM     11  C   UNL     1      12.861  12.170  20.318  0.00  0.00    -0.013 C 
ATOM     16  C   UNL     1      11.927  12.747  21.377  0.00  0.00    +0.007 C 
ATOM     17  C   UNL     1      14.242  12.813  20.405  0.00  0.00    +0.007 C 
ENDBRANCH   7  11
BRANCH   8  14
ATOM     14  C   UNL     1      14.124  10.525  22.730  0.00  0.00    +0.088 C 
BRANCH  14   3
ATOM      3  N   UNL     1      14.961   9.343  22.845  0.00  0.00    -0.314 NA
ATOM     31  H   UNL     1      15.315   9.245  23.796  0.00  0.00    +0.122 HD
BRANCH   3  20
ATOM     20  C   UNL     1      16.084   9.402  21.917  0.00  0.00    +0.096 C 
BRANCH  20  21
ATOM     21  C   UNL     1      16.103   8.159  21.034  0.00  0.00    +0.099 C 
BRANCH  21   4
ATOM      2  O   UNL     1      20.056   6.789  20.709  0.00  0.00    -0.377 OA
ATOM      4  N   UNL     1      17.330   7.399  21.258  0.00  0.00    -0.297 NA
ATOM     24  C   UNL     1      18.419   8.284  21.694  0.00  0.00    +0.112 C 
ATOM     25  C   UNL     1      17.726   6.676  20.041  0.00  0.00    +0.112 C 
ATOM     26  C   UNL     1      19.694   7.472  21.909  0.00  0.00    +0.175 C 
ATOM     27  C   UNL     1      19.016   5.901  20.297  0.00  0.00    +0.175 C 
ENDBRANCH  21   4
ENDBRANCH  20  21
ENDBRANCH   3  20
ENDBRANCH  14   3
ENDBRANCH   8  14
BRANCH  10  15
ATOM     15  C   UNL     1      13.127   7.912  18.786  0.00  0.00    +0.105 C 
BRANCH  15  19
ATOM      1  O   UNL     1      14.001   9.602  17.257  0.00  0.00    -0.424 OA
ATOM      5  N   UNL     1      12.383   8.327  16.386  0.00  0.00    -0.112 NA
ATOM      6  N   UNL     1      12.782   9.231  15.419  0.00  0.00    -0.112 NA
ATOM     19  C   UNL     1      13.121   8.580  17.440  0.00  0.00    +0.218 A 
ATOM     22  C   UNL     1      13.728   9.954  15.972  0.00  0.00    +0.223 A 
BRANCH  22  23
ATOM     23  C   UNL     1      14.512  11.059  15.406  0.00  0.00    +0.040 C 
ATOM     28  C   UNL     1      15.049  12.029  16.516  0.00  0.00    +0.020 C 
ATOM     29  C   UNL     1      13.667  11.932  14.413  0.00  0.00    +0.020 C 
ATOM     30  C   UNL     1      15.792  10.653  14.584  0.00  0.00    +0.020 C 
ENDBRANCH  22  23
ENDBRANCH  15  19
ENDBRANCH  10  15
TORSDOF 9
ENDMDL
MODEL 9
REMARK VINA RESULT:      -5.6     23.931     27.280
REMARK  Name = 38031153
REMARK  15 active torsions:
REMARK  status: ('A' for Active; 'I' for Inactive)
REMARK    1  A    between atoms: N_3  and  C_14
REMARK    2  A    between atoms: N_3  and  C_20
REMARK    3  A    between atoms: N_4  and  C_21
REMARK    4  A    between atoms: C_7  and  C_11
REMARK    5  A    between atoms: C_8  and  C_14
REMARK    6  A    between atoms: C_10  and  C_15
REMARK    7  A    between atoms: C_11  and  C_16
REMARK    8  A    between atoms: C_11  and  C_17
REMARK    9  A    between atoms: C_12  and  C_18
REMARK   10  A    between atoms: C_15  and  C_19
REMARK   11  A    between atoms: C_20  and  C_21
REMARK   12  A    between atoms: C_22  and  C_23
REMARK   13  A    between atoms: C_23  and  C_28
REMARK   14  A    between atoms: C_23  and  C_29
REMARK   15  A    between atoms: C_23  and  C_30
REMARK                            x       y       z     vdW  Elec       q    Type
REMARK                         _______ _______ _______ _____ _____    ______ ____
ROOT
ATOM      7  C   UNL     1       9.733   6.361   7.066  0.00  0.00    +0.000 C 
ATOM      8  C   UNL     1       9.052   5.735   5.824  0.00  0.00    +0.029 C 
ATOM      9  C   UNL     1       8.870   7.498   7.635  0.00  0.00    +0.012 C 
ATOM     10  C   UNL     1       8.620   8.612   6.601  0.00  0.00    +0.024 C 
ATOM     12  C   UNL     1       8.199   8.051   5.259  0.00  0.00    -0.073 C 
ATOM     13  C   UNL     1       8.389   6.759   4.934  0.00  0.00    -0.023 C 
ATOM     18  C   UNL     1       7.514   8.998   4.313  0.00  0.00    +0.039 C 
ENDROOT
BRANCH   7  11
ATOM     11  C   UNL     1      10.001   5.318   8.156  0.00  0.00    -0.013 C 
ATOM     16  C   UNL     1       9.214   5.654   9.419  0.00  0.00    +0.007 C 
ATOM     17  C   UNL     1       9.648   3.921   7.653  0.00  0.00    +0.007 C 
ENDBRANCH   7  11
BRANCH   8  14
ATOM     14  C   UNL     1      10.051   4.913   5.000  0.00  0.00    +0.088 C 
BRANCH  14   3
ATOM      3  N   UNL     1      11.326   5.603   4.904  0.00  0.00    -0.314 NA
ATOM     31  H   UNL     1      11.332   6.431   5.498  0.00  0.00    +0.122 HD
BRANCH   3  20
ATOM     20  C   UNL     1      11.609   5.995   3.528  0.00  0.00    +0.096 C 
BRANCH  20  21
ATOM     21  C   UNL     1      10.854   5.092   2.558  0.00  0.00    +0.099 C 
BRANCH  21   4
ATOM      2  O   UNL     1      12.786   2.963  -0.498  0.00  0.00    -0.377 OA
ATOM      4  N   UNL     1      11.695   4.775   1.407  0.00  0.00    -0.297 NA
ATOM     24  C   UNL     1      10.887   4.244   0.300  0.00  0.00    +0.112 C 
ATOM     25  C   UNL     1      12.740   3.808   1.776  0.00  0.00    +0.112 C 
ATOM     26  C   UNL     1      11.789   3.907  -0.885  0.00  0.00    +0.175 C 
ATOM     27  C   UNL     1      13.598   3.483   0.555  0.00  0.00    +0.175 C 
ENDBRANCH  21   4
ENDBRANCH  20  21
ENDBRANCH   3  20
ENDBRANCH  14   3
ENDBRANCH   8  14
BRANCH  10  15
ATOM     15  C   UNL     1       9.847   9.518   6.458  0.00  0.00    +0.105 C 
BRANCH  15  19
ATOM      1  O   UNL     1       9.178  11.161   8.135  0.00  0.00    -0.424 OA
ATOM      5  N   UNL     1      11.162  10.204   8.528  0.00  0.00    -0.112 NA
ATOM      6  N   UNL     1      10.911  11.104   9.548  0.00  0.00    -0.112 NA
ATOM     19  C   UNL     1      10.125  10.271   7.728  0.00  0.00    +0.218 A 
ATOM     22  C   UNL     1       9.743  11.638   9.276  0.00  0.00    +0.223 A 
BRANCH  22  23
ATOM     23  C   UNL     1       8.984  12.650  10.019  0.00  0.00    +0.040 C 
ATOM     28  C   UNL     1       9.797  13.980  10.205  0.00  0.00    +0.020 C 
ATOM     29  C   UNL     1       8.593  12.157  11.457  0.00  0.00    +0.020 C 
ATOM     30  C   UNL     1       7.621  13.108   9.376  0.00  0.00    +0.020 C 
ENDBRANCH  22  23
ENDBRANCH  15  19
ENDBRANCH  10  15
TORSDOF 9
ENDMDL
MODEL 10
REMARK VINA RESULT:      -5.5     23.007     26.768
REMARK  Name = 38031153
REMARK  15 active torsions:
REMARK  status: ('A' for Active; 'I' for Inactive)
REMARK    1  A    between atoms: N_3  and  C_14
REMARK    2  A    between atoms: N_3  and  C_20
REMARK    3  A    between atoms: N_4  and  C_21
REMARK    4  A    between atoms: C_7  and  C_11
REMARK    5  A    between atoms: C_8  and  C_14
REMARK    6  A    between atoms: C_10  and  C_15
REMARK    7  A    between atoms: C_11  and  C_16
REMARK    8  A    between atoms: C_11  and  C_17
REMARK    9  A    between atoms: C_12  and  C_18
REMARK   10  A    between atoms: C_15  and  C_19
REMARK   11  A    between atoms: C_20  and  C_21
REMARK   12  A    between atoms: C_22  and  C_23
REMARK   13  A    between atoms: C_23  and  C_28
REMARK   14  A    between atoms: C_23  and  C_29
REMARK   15  A    between atoms: C_23  and  C_30
REMARK                            x       y       z     vdW  Elec       q    Type
REMARK                         _______ _______ _______ _____ _____    ______ ____
ROOT
ATOM      7  C   UNL     1     -12.458   8.528  34.659  0.00  0.00    +0.000 C 
ATOM      8  C   UNL     1     -13.690   8.114  33.816  0.00  0.00    +0.029 C 
ATOM      9  C   UNL     1     -12.047   9.973  34.334  0.00  0.00    +0.012 C 
ATOM     10  C   UNL     1     -11.704  10.159  32.843  0.00  0.00    +0.024 C 
ATOM     12  C   UNL     1     -12.749   9.534  31.943  0.00  0.00    -0.073 C 
ATOM     13  C   UNL     1     -13.637   8.631  32.398  0.00  0.00    -0.023 C 
ATOM     18  C   UNL     1     -12.782  10.003  30.515  0.00  0.00    +0.039 C 
ENDROOT
BRANCH   7  11
ATOM     11  C   UNL     1     -12.724   8.391  36.161  0.00  0.00    -0.013 C 
ATOM     16  C   UNL     1     -11.563   7.675  36.845  0.00  0.00    +0.007 C 
ATOM     17  C   UNL     1     -12.958   9.762  36.788  0.00  0.00    +0.007 C 
ENDBRANCH   7  11
BRANCH   8  14
ATOM     14  C   UNL     1     -13.860   6.590  33.798  0.00  0.00    +0.088 C 
BRANCH  14   3
ATOM      3  N   UNL     1     -14.145   6.122  32.452  0.00  0.00    -0.314 NA
ATOM     31  H   UNL     1     -14.777   6.764  31.975  0.00  0.00    +0.122 HD
BRANCH   3  20
ATOM     20  C   UNL     1     -14.738   4.790  32.474  0.00  0.00    +0.096 C 
BRANCH  20  21
ATOM     21  C   UNL     1     -13.772   3.794  33.108  0.00  0.00    +0.099 C 
BRANCH  21   4
ATOM      2  O   UNL     1     -14.836   0.752  30.419  0.00  0.00    -0.377 OA
ATOM      4  N   UNL     1     -13.746   2.556  32.333  0.00  0.00    -0.297 NA
ATOM     24  C   UNL     1     -13.698   2.842  30.893  0.00  0.00    +0.112 C 
ATOM     25  C   UNL     1     -14.916   1.722  32.642  0.00  0.00    +0.112 C 
ATOM     26  C   UNL     1     -13.684   1.535  30.104  0.00  0.00    +0.175 C 
ATOM     27  C   UNL     1     -14.872   0.441  31.813  0.00  0.00    +0.175 C 
ENDBRANCH  21   4
ENDBRANCH  20  21
ENDBRANCH   3  20
ENDBRANCH  14   3
ENDBRANCH   8  14
BRANCH  10  15
ATOM     15  C   UNL     1     -10.308   9.613  32.526  0.00  0.00    +0.105 C 
BRANCH  15  19
ATOM      1  O   UNL     1      -8.918   9.570  34.531  0.00  0.00    -0.424 OA
ATOM      5  N   UNL     1      -8.605  11.368  33.238  0.00  0.00    -0.112 NA
ATOM      6  N   UNL     1      -7.760  11.472  34.328  0.00  0.00    -0.112 NA
ATOM     19  C   UNL     1      -9.261  10.243  33.398  0.00  0.00    +0.218 A 
ATOM     22  C   UNL     1      -7.978  10.401  35.055  0.00  0.00    +0.223 A 
BRANCH  22  23
ATOM     23  C   UNL     1      -7.357   9.989  36.319  0.00  0.00    +0.040 C 
ATOM     28  C   UNL     1      -7.879   8.590  36.803  0.00  0.00    +0.020 C 
ATOM     29  C   UNL     1      -7.650  11.005  37.478  0.00  0.00    +0.020 C 
ATOM     30  C   UNL     1      -5.789   9.843  36.310  0.00  0.00    +0.020 C 
ENDBRANCH  22  23
ENDBRANCH  15  19
ENDBRANCH  10  15
TORSDOF 9
ENDMDL
