MODEL 1
REMARK VINA RESULT:      -6.3      0.000      0.000
REMARK  Name = 26763194
REMARK  5 active torsions:
REMARK  status: ('A' for Active; 'I' for Inactive)
REMARK    1  A    between atoms: N_4  and  C_13
REMARK    2  A    between atoms: N_6  and  C_14
REMARK    3  A    between atoms: C_13  and  C_15
REMARK    4  A    between atoms: C_14  and  C_16
REMARK    5  A    between atoms: C_16  and  C_18
REMARK                            x       y       z     vdW  Elec       q    Type
REMARK                         _______ _______ _______ _____ _____    ______ ____
ROOT
ATOM      2  O   UNL     1      11.973   6.953  17.832  0.00  0.00    -0.273 OA
ATOM      3  O   UNL     1      14.035   7.498  21.964  0.00  0.00    -0.252 OA
ATOM      4  N   UNL     1      15.112   8.325  20.091  0.00  0.00    -0.275 N 
ATOM      5  N   UNL     1      13.908   8.578  16.666  0.00  0.00    -0.304 NA
ATOM      6  N   UNL     1      12.926   7.398  19.919  0.00  0.00    -0.225 N 
ATOM      7  C   UNL     1      15.043   8.725  18.700  0.00  0.00    +0.105 C 
ATOM      8  C   UNL     1      14.221   7.778  17.860  0.00  0.00    +0.162 C 
ATOM      9  C   UNL     1      14.389  10.086  18.475  0.00  0.00    +0.040 C 
ATOM     10  C   UNL     1      13.657   9.946  17.147  0.00  0.00    +0.083 C 
ATOM     11  C   UNL     1      12.921   7.356  18.511  0.00  0.00    +0.242 C 
ATOM     12  C   UNL     1      14.028   7.732  20.750  0.00  0.00    +0.312 C 
ATOM     21  H   UNL     1      13.105   8.210  16.159  0.00  0.00    +0.123 HD
ENDROOT
BRANCH   4  13
ATOM     13  C   UNL     1      16.301   8.724  20.832  0.00  0.00    +0.152 C 
BRANCH  13  15
ATOM      1  S   UNL     1      18.858   7.943  21.588  0.00  0.00    -0.100 S 
ATOM     15  C   UNL     1      17.398   7.704  20.725  0.00  0.00    +0.007 A 
ATOM     17  C   UNL     1      17.415   6.537  19.994  0.00  0.00    +0.013 A 
ATOM     19  C   UNL     1      18.642   5.828  20.146  0.00  0.00    +0.008 A 
ATOM     20  C   UNL     1      19.516   6.481  20.986  0.00  0.00    +0.045 A 
ENDBRANCH  13  15
ENDBRANCH   4  13
BRANCH   6  14
ATOM     14  C   UNL     1      11.714   6.941  20.594  0.00  0.00    +0.118 C 
BRANCH  14  16
ATOM     16  C   UNL     1      10.735   8.077  20.858  0.00  0.00    +0.016 C 
ATOM     18  C   UNL     1      10.600   8.405  22.339  0.00  0.00    +0.005 C 
ENDBRANCH  14  16
ENDBRANCH   6  14
TORSDOF 4
ENDMDL
MODEL 2
REMARK VINA RESULT:      -6.1      3.067      5.755
REMARK  Name = 26763194
REMARK  5 active torsions:
REMARK  status: ('A' for Active; 'I' for Inactive)
REMARK    1  A    between atoms: N_4  and  C_13
REMARK    2  A    between atoms: N_6  and  C_14
REMARK    3  A    between atoms: C_13  and  C_15
REMARK    4  A    between atoms: C_14  and  C_16
REMARK    5  A    between atoms: C_16  and  C_18
REMARK                            x       y       z     vdW  Elec       q    Type
REMARK                         _______ _______ _______ _____ _____    ______ ____
ROOT
ATOM      2  O   UNL     1      14.779   6.396  19.335  0.00  0.00    -0.273 OA
ATOM      3  O   UNL     1      10.655   8.541  19.395  0.00  0.00    -0.252 OA
ATOM      4  N   UNL     1      11.844   8.410  21.375  0.00  0.00    -0.275 N 
ATOM      5  N   UNL     1      15.240   7.234  21.949  0.00  0.00    -0.304 NA
ATOM      6  N   UNL     1      12.800   7.638  19.336  0.00  0.00    -0.225 N 
ATOM      7  C   UNL     1      13.107   8.174  22.047  0.00  0.00    +0.105 C 
ATOM      8  C   UNL     1      13.869   7.010  21.464  0.00  0.00    +0.162 C 
ATOM      9  C   UNL     1      14.084   9.342  21.963  0.00  0.00    +0.040 C 
ATOM     10  C   UNL     1      15.459   8.689  21.893  0.00  0.00    +0.083 C 
ATOM     11  C   UNL     1      13.891   6.992  19.949  0.00  0.00    +0.242 C 
ATOM     12  C   UNL     1      11.689   8.228  19.996  0.00  0.00    +0.312 C 
ATOM     21  H   UNL     1      15.930   6.734  21.390  0.00  0.00    +0.123 HD
ENDROOT
BRANCH   4  13
ATOM     13  C   UNL     1      10.780   9.014  22.166  0.00  0.00    +0.152 C 
BRANCH  13  15
ATOM      1  S   UNL     1      11.060  11.005  24.083  0.00  0.00    -0.100 S 
ATOM     15  C   UNL     1      11.050  10.462  22.459  0.00  0.00    +0.007 A 
ATOM     17  C   UNL     1      11.306  11.483  21.571  0.00  0.00    +0.013 A 
ATOM     19  C   UNL     1      11.514  12.728  22.232  0.00  0.00    +0.008 A 
ATOM     20  C   UNL     1      11.408  12.610  23.601  0.00  0.00    +0.045 A 
ENDBRANCH  13  15
ENDBRANCH   4  13
BRANCH   6  14
ATOM     14  C   UNL     1      12.745   7.593  17.878  0.00  0.00    +0.118 C 
BRANCH  14  16
ATOM     16  C   UNL     1      13.328   8.847  17.238  0.00  0.00    +0.016 C 
ATOM     18  C   UNL     1      12.510   9.336  16.051  0.00  0.00    +0.005 C 
ENDBRANCH  14  16
ENDBRANCH   6  14
TORSDOF 4
ENDMDL
MODEL 3
REMARK VINA RESULT:      -6.0      3.504      5.986
REMARK  Name = 26763194
REMARK  5 active torsions:
REMARK  status: ('A' for Active; 'I' for Inactive)
REMARK    1  A    between atoms: N_4  and  C_13
REMARK    2  A    between atoms: N_6  and  C_14
REMARK    3  A    between atoms: C_13  and  C_15
REMARK    4  A    between atoms: C_14  and  C_16
REMARK    5  A    between atoms: C_16  and  C_18
REMARK                            x       y       z     vdW  Elec       q    Type
REMARK                         _______ _______ _______ _____ _____    ______ ____
ROOT
ATOM      2  O   UNL     1      12.058   6.997  18.587  0.00  0.00    -0.273 OA
ATOM      3  O   UNL     1      15.207   9.995  20.233  0.00  0.00    -0.252 OA
ATOM      4  N   UNL     1      13.045  10.130  21.045  0.00  0.00    -0.275 N 
ATOM      5  N   UNL     1      10.231   7.891  20.486  0.00  0.00    -0.304 NA
ATOM      6  N   UNL     1      13.672   8.381  19.557  0.00  0.00    -0.225 N 
ATOM      7  C   UNL     1      11.746   9.511  21.213  0.00  0.00    +0.105 C 
ATOM      8  C   UNL     1      11.279   8.787  19.974  0.00  0.00    +0.162 C 
ATOM      9  C   UNL     1      11.700   8.447  22.306  0.00  0.00    +0.040 C 
ATOM     10  C   UNL     1      10.710   7.410  21.792  0.00  0.00    +0.083 C 
ATOM     11  C   UNL     1      12.354   7.946  19.317  0.00  0.00    +0.242 C 
ATOM     12  C   UNL     1      14.060   9.537  20.284  0.00  0.00    +0.312 C 
ATOM     21  H   UNL     1      10.046   7.117  19.850  0.00  0.00    +0.123 HD
ENDROOT
BRANCH   4  13
ATOM     13  C   UNL     1      13.317  11.318  21.845  0.00  0.00    +0.152 C 
BRANCH  13  15
ATOM      1  S   UNL     1      11.206  12.978  22.554  0.00  0.00    -0.100 S 
ATOM     15  C   UNL     1      12.426  12.466  21.467  0.00  0.00    +0.007 A 
ATOM     17  C   UNL     1      12.437  13.215  20.312  0.00  0.00    +0.013 A 
ATOM     19  C   UNL     1      11.431  14.225  20.320  0.00  0.00    +0.008 A 
ATOM     20  C   UNL     1      10.690  14.207  21.480  0.00  0.00    +0.045 A 
ENDBRANCH  13  15
ENDBRANCH   4  13
BRANCH   6  14
ATOM     14  C   UNL     1      14.739   7.637  18.894  0.00  0.00    +0.118 C 
BRANCH  14  16
ATOM     16  C   UNL     1      15.390   6.613  19.815  0.00  0.00    +0.016 C 
ATOM     18  C   UNL     1      16.744   6.139  19.304  0.00  0.00    +0.005 C 
ENDBRANCH  14  16
ENDBRANCH   6  14
TORSDOF 4
ENDMDL
MODEL 4
REMARK VINA RESULT:      -5.4      2.705      5.297
REMARK  Name = 26763194
REMARK  5 active torsions:
REMARK  status: ('A' for Active; 'I' for Inactive)
REMARK    1  A    between atoms: N_4  and  C_13
REMARK    2  A    between atoms: N_6  and  C_14
REMARK    3  A    between atoms: C_13  and  C_15
REMARK    4  A    between atoms: C_14  and  C_16
REMARK    5  A    between atoms: C_16  and  C_18
REMARK                            x       y       z     vdW  Elec       q    Type
REMARK                         _______ _______ _______ _____ _____    ______ ____
ROOT
ATOM      2  O   UNL     1      14.018  10.114  22.810  0.00  0.00    -0.273 OA
ATOM      3  O   UNL     1      10.655   8.065  20.337  0.00  0.00    -0.252 OA
ATOM      4  N   UNL     1      12.835   7.862  19.591  0.00  0.00    -0.275 N 
ATOM      5  N   UNL     1      15.931   8.868  21.218  0.00  0.00    -0.304 NA
ATOM      6  N   UNL     1      12.362   8.925  21.667  0.00  0.00    -0.225 N 
ATOM      7  C   UNL     1      14.254   7.965  19.870  0.00  0.00    +0.105 C 
ATOM      8  C   UNL     1      14.601   9.191  20.678  0.00  0.00    +0.162 C 
ATOM      9  C   UNL     1      14.813   6.806  20.690  0.00  0.00    +0.040 C 
ATOM     10  C   UNL     1      15.895   7.436  21.558  0.00  0.00    +0.083 C 
ATOM     11  C   UNL     1      13.659   9.446  21.837  0.00  0.00    +0.242 C 
ATOM     12  C   UNL     1      11.863   8.260  20.516  0.00  0.00    +0.312 C 
ATOM     21  H   UNL     1      16.161   9.436  22.032  0.00  0.00    +0.123 HD
ENDROOT
BRANCH   4  13
ATOM     13  C   UNL     1      12.454   7.161  18.371  0.00  0.00    +0.152 C 
BRANCH  13  15
ATOM      1  S   UNL     1      13.428   8.926  16.460  0.00  0.00    -0.100 S 
ATOM     15  C   UNL     1      12.146   8.111  17.250  0.00  0.00    +0.007 A 
ATOM     17  C   UNL     1      10.918   8.450  16.727  0.00  0.00    +0.013 A 
ATOM     19  C   UNL     1      11.031   9.392  15.663  0.00  0.00    +0.008 A 
ATOM     20  C   UNL     1      12.341   9.736  15.414  0.00  0.00    +0.045 A 
ENDBRANCH  13  15
ENDBRANCH   4  13
BRANCH   6  14
ATOM     14  C   UNL     1      11.400   9.199  22.731  0.00  0.00    +0.118 C 
BRANCH  14  16
ATOM     16  C   UNL     1      10.899  10.636  22.703  0.00  0.00    +0.016 C 
ATOM     18  C   UNL     1      10.894  11.285  24.080  0.00  0.00    +0.005 C 
ENDBRANCH  14  16
ENDBRANCH   6  14
TORSDOF 4
ENDMDL
MODEL 5
REMARK VINA RESULT:      -5.4     26.244     27.760
REMARK  Name = 26763194
REMARK  5 active torsions:
REMARK  status: ('A' for Active; 'I' for Inactive)
REMARK    1  A    between atoms: N_4  and  C_13
REMARK    2  A    between atoms: N_6  and  C_14
REMARK    3  A    between atoms: C_13  and  C_15
REMARK    4  A    between atoms: C_14  and  C_16
REMARK    5  A    between atoms: C_16  and  C_18
REMARK                            x       y       z     vdW  Elec       q    Type
REMARK                         _______ _______ _______ _____ _____    ______ ____
ROOT
ATOM      2  O   UNL     1      -2.754 -12.704  12.188  0.00  0.00    -0.273 OA
ATOM      3  O   UNL     1      -6.044  -9.584  13.221  0.00  0.00    -0.252 OA
ATOM      4  N   UNL     1      -4.832 -10.508  14.962  0.00  0.00    -0.275 N 
ATOM      5  N   UNL     1      -1.911 -12.675  14.840  0.00  0.00    -0.304 NA
ATOM      6  N   UNL     1      -4.272 -11.002  12.702  0.00  0.00    -0.225 N 
ATOM      7  C   UNL     1      -3.659 -11.236  15.404  0.00  0.00    +0.105 C 
ATOM      8  C   UNL     1      -3.313 -12.390  14.495  0.00  0.00    +0.162 C 
ATOM      9  C   UNL     1      -2.385 -10.397  15.445  0.00  0.00    +0.040 C 
ATOM     10  C   UNL     1      -1.274 -11.368  15.066  0.00  0.00    +0.083 C 
ATOM     11  C   UNL     1      -3.387 -12.051  13.021  0.00  0.00    +0.242 C 
ATOM     12  C   UNL     1      -5.116 -10.304  13.606  0.00  0.00    +0.312 C 
ATOM     21  H   UNL     1      -1.436 -13.197  14.105  0.00  0.00    +0.123 HD
ENDROOT
BRANCH   4  13
ATOM     13  C   UNL     1      -5.619  -9.841  15.991  0.00  0.00    +0.152 C 
BRANCH  13  15
ATOM      1  S   UNL     1      -6.950 -12.040  17.044  0.00  0.00    -0.100 S 
ATOM     15  C   UNL     1      -5.858 -10.728  17.179  0.00  0.00    +0.007 A 
ATOM     17  C   UNL     1      -5.302 -10.645  18.436  0.00  0.00    +0.013 A 
ATOM     19  C   UNL     1      -5.778 -11.673  19.301  0.00  0.00    +0.008 A 
ATOM     20  C   UNL     1      -6.680 -12.501  18.671  0.00  0.00    +0.045 A 
ENDBRANCH  13  15
ENDBRANCH   4  13
BRANCH   6  14
ATOM     14  C   UNL     1      -4.424 -10.680  11.286  0.00  0.00    +0.118 C 
BRANCH  14  16
ATOM     16  C   UNL     1      -3.367  -9.696  10.799  0.00  0.00    +0.016 C 
ATOM     18  C   UNL     1      -3.765  -8.999   9.505  0.00  0.00    +0.005 C 
ENDBRANCH  14  16
ENDBRANCH   6  14
TORSDOF 4
ENDMDL
MODEL 6
REMARK VINA RESULT:      -5.0     15.015     17.314
REMARK  Name = 26763194
REMARK  5 active torsions:
REMARK  status: ('A' for Active; 'I' for Inactive)
REMARK    1  A    between atoms: N_4  and  C_13
REMARK    2  A    between atoms: N_6  and  C_14
REMARK    3  A    between atoms: C_13  and  C_15
REMARK    4  A    between atoms: C_14  and  C_16
REMARK    5  A    between atoms: C_16  and  C_18
REMARK                            x       y       z     vdW  Elec       q    Type
REMARK                         _______ _______ _______ _____ _____    ______ ____
ROOT
ATOM      2  O   UNL     1      10.514   8.488   6.013  0.00  0.00    -0.273 OA
ATOM      3  O   UNL     1       9.398   7.197   1.688  0.00  0.00    -0.252 OA
ATOM      4  N   UNL     1      10.407   5.636   3.066  0.00  0.00    -0.275 N 
ATOM      5  N   UNL     1      11.179   5.854   6.615  0.00  0.00    -0.304 NA
ATOM      6  N   UNL     1       9.788   7.774   3.910  0.00  0.00    -0.225 N 
ATOM      7  C   UNL     1      10.778   5.224   4.405  0.00  0.00    +0.105 C 
ATOM      8  C   UNL     1      11.305   6.364   5.241  0.00  0.00    +0.162 C 
ATOM      9  C   UNL     1       9.622   4.661   5.225  0.00  0.00    +0.040 C 
ATOM     10  C   UNL     1       9.916   5.099   6.655  0.00  0.00    +0.083 C 
ATOM     11  C   UNL     1      10.490   7.636   5.123  0.00  0.00    +0.242 C 
ATOM     12  C   UNL     1       9.828   6.884   2.804  0.00  0.00    +0.312 C 
ATOM     21  H   UNL     1      11.183   6.605   7.304  0.00  0.00    +0.123 HD
ENDROOT
BRANCH   4  13
ATOM     13  C   UNL     1      10.500   4.629   2.017  0.00  0.00    +0.152 C 
BRANCH  13  15
ATOM      1  S   UNL     1      12.741   5.579   0.678  0.00  0.00    -0.100 S 
ATOM     15  C   UNL     1      11.921   4.387   1.594  0.00  0.00    +0.007 A 
ATOM     17  C   UNL     1      12.714   3.289   1.844  0.00  0.00    +0.013 A 
ATOM     19  C   UNL     1      14.013   3.428   1.275  0.00  0.00    +0.008 A 
ATOM     20  C   UNL     1      14.162   4.627   0.613  0.00  0.00    +0.045 A 
ENDBRANCH  13  15
ENDBRANCH   4  13
BRANCH   6  14
ATOM     14  C   UNL     1       9.037   9.013   3.724  0.00  0.00    +0.118 C 
BRANCH  14  16
ATOM     16  C   UNL     1       7.565   8.857   4.082  0.00  0.00    +0.016 C 
ATOM     18  C   UNL     1       6.887  10.189   4.376  0.00  0.00    +0.005 C 
ENDBRANCH  14  16
ENDBRANCH   6  14
TORSDOF 4
ENDMDL
MODEL 7
REMARK VINA RESULT:      -4.8      2.246      3.062
REMARK  Name = 26763194
REMARK  5 active torsions:
REMARK  status: ('A' for Active; 'I' for Inactive)
REMARK    1  A    between atoms: N_4  and  C_13
REMARK    2  A    between atoms: N_6  and  C_14
REMARK    3  A    between atoms: C_13  and  C_15
REMARK    4  A    between atoms: C_14  and  C_16
REMARK    5  A    between atoms: C_16  and  C_18
REMARK                            x       y       z     vdW  Elec       q    Type
REMARK                         _______ _______ _______ _____ _____    ______ ____
ROOT
ATOM      2  O   UNL     1      13.277  11.075  17.787  0.00  0.00    -0.273 OA
ATOM      3  O   UNL     1      12.970   7.017  20.034  0.00  0.00    -0.252 OA
ATOM      4  N   UNL     1      14.751   8.407  20.533  0.00  0.00    -0.275 N 
ATOM      5  N   UNL     1      15.378  11.825  19.451  0.00  0.00    -0.304 NA
ATOM      6  N   UNL     1      13.030   9.128  19.055  0.00  0.00    -0.225 N 
ATOM      7  C   UNL     1      15.341   9.730  20.478  0.00  0.00    +0.105 C 
ATOM      8  C   UNL     1      15.132  10.407  19.146  0.00  0.00    +0.162 C 
ATOM      9  C   UNL     1      14.763  10.712  21.491  0.00  0.00    +0.040 C 
ATOM     10  C   UNL     1      14.798  12.061  20.783  0.00  0.00    +0.083 C 
ATOM     11  C   UNL     1      13.725  10.268  18.604  0.00  0.00    +0.242 C 
ATOM     12  C   UNL     1      13.542   8.104  19.894  0.00  0.00    +0.312 C 
ATOM     21  H   UNL     1      14.968  12.443  18.753  0.00  0.00    +0.123 HD
ENDROOT
BRANCH   4  13
ATOM     13  C   UNL     1      15.377   7.443  21.429  0.00  0.00    +0.152 C 
BRANCH  13  15
ATOM      1  S   UNL     1      16.560   6.144  19.278  0.00  0.00    -0.100 S 
ATOM     15  C   UNL     1      16.623   6.852  20.836  0.00  0.00    +0.007 A 
ATOM     17  C   UNL     1      17.885   6.785  21.384  0.00  0.00    +0.013 A 
ATOM     19  C   UNL     1      18.813   6.145  20.513  0.00  0.00    +0.008 A 
ATOM     20  C   UNL     1      18.225   5.747  19.333  0.00  0.00    +0.045 A 
ENDBRANCH  13  15
ENDBRANCH   4  13
BRANCH   6  14
ATOM     14  C   UNL     1      11.691   8.919  18.512  0.00  0.00    +0.118 C 
BRANCH  14  16
ATOM     16  C   UNL     1      11.720   8.296  17.122  0.00  0.00    +0.016 C 
ATOM     18  C   UNL     1      10.661   8.876  16.195  0.00  0.00    +0.005 C 
ENDBRANCH  14  16
ENDBRANCH   6  14
TORSDOF 4
ENDMDL
MODEL 8
REMARK VINA RESULT:      -4.8     30.855     32.209
REMARK  Name = 26763194
REMARK  5 active torsions:
REMARK  status: ('A' for Active; 'I' for Inactive)
REMARK    1  A    between atoms: N_4  and  C_13
REMARK    2  A    between atoms: N_6  and  C_14
REMARK    3  A    between atoms: C_13  and  C_15
REMARK    4  A    between atoms: C_14  and  C_16
REMARK    5  A    between atoms: C_16  and  C_18
REMARK                            x       y       z     vdW  Elec       q    Type
REMARK                         _______ _______ _______ _____ _____    ______ ____
ROOT
ATOM      2  O   UNL     1     -15.390   3.049  28.348  0.00  0.00    -0.273 OA
ATOM      3  O   UNL     1     -13.218   3.559  32.427  0.00  0.00    -0.252 OA
ATOM      4  N   UNL     1     -15.084   4.863  32.015  0.00  0.00    -0.275 N 
ATOM      5  N   UNL     1     -17.439   4.704  29.245  0.00  0.00    -0.304 NA
ATOM      6  N   UNL     1     -14.420   3.178  30.470  0.00  0.00    -0.225 N 
ATOM      7  C   UNL     1     -16.281   5.099  31.232  0.00  0.00    +0.105 C 
ATOM      8  C   UNL     1     -16.069   4.862  29.757  0.00  0.00    +0.162 C 
ATOM      9  C   UNL     1     -17.449   4.186  31.593  0.00  0.00    +0.040 C 
ATOM     10  C   UNL     1     -18.173   3.948  30.273  0.00  0.00    +0.083 C 
ATOM     11  C   UNL     1     -15.290   3.601  29.446  0.00  0.00    +0.242 C 
ATOM     12  C   UNL     1     -14.175   3.846  31.699  0.00  0.00    +0.312 C 
ATOM     21  H   UNL     1     -17.459   4.224  28.347  0.00  0.00    +0.123 HD
ENDROOT
BRANCH   4  13
ATOM     13  C   UNL     1     -14.948   5.619  33.253  0.00  0.00    +0.152 C 
BRANCH  13  15
ATOM      1  S   UNL     1     -15.344   8.367  33.162  0.00  0.00    -0.100 S 
ATOM     15  C   UNL     1     -14.353   6.978  33.020  0.00  0.00    +0.007 A 
ATOM     17  C   UNL     1     -13.056   7.300  32.690  0.00  0.00    +0.013 A 
ATOM     19  C   UNL     1     -12.873   8.706  32.551  0.00  0.00    +0.008 A 
ATOM     20  C   UNL     1     -14.037   9.404  32.782  0.00  0.00    +0.045 A 
ENDBRANCH  13  15
ENDBRANCH   4  13
BRANCH   6  14
ATOM     14  C   UNL     1     -13.603   2.001  30.192  0.00  0.00    +0.118 C 
BRANCH  14  16
ATOM     16  C   UNL     1     -14.291   0.706  30.604  0.00  0.00    +0.016 C 
ATOM     18  C   UNL     1     -13.798  -0.499  29.817  0.00  0.00    +0.005 C 
ENDBRANCH  14  16
ENDBRANCH   6  14
TORSDOF 4
ENDMDL
MODEL 9
REMARK VINA RESULT:      -4.8     26.674     29.288
REMARK  Name = 26763194
REMARK  5 active torsions:
REMARK  status: ('A' for Active; 'I' for Inactive)
REMARK    1  A    between atoms: N_4  and  C_13
REMARK    2  A    between atoms: N_6  and  C_14
REMARK    3  A    between atoms: C_13  and  C_15
REMARK    4  A    between atoms: C_14  and  C_16
REMARK    5  A    between atoms: C_16  and  C_18
REMARK                            x       y       z     vdW  Elec       q    Type
REMARK                         _______ _______ _______ _____ _____    ______ ____
ROOT
ATOM      2  O   UNL     1      -4.841 -13.459  17.436  0.00  0.00    -0.273 OA
ATOM      3  O   UNL     1      -5.813  -9.567  15.084  0.00  0.00    -0.252 OA
ATOM      4  N   UNL     1      -7.130 -10.094  16.912  0.00  0.00    -0.275 N 
ATOM      5  N   UNL     1      -6.695 -12.733  19.380  0.00  0.00    -0.304 NA
ATOM      6  N   UNL     1      -5.219 -11.410  16.378  0.00  0.00    -0.225 N 
ATOM      7  C   UNL     1      -7.308 -10.861  18.129  0.00  0.00    +0.105 C 
ATOM      8  C   UNL     1      -6.861 -12.295  17.985  0.00  0.00    +0.162 C 
ATOM      9  C   UNL     1      -6.508 -10.337  19.317  0.00  0.00    +0.040 C 
ATOM     10  C   UNL     1      -6.123 -11.585  20.102  0.00  0.00    +0.083 C 
ATOM     11  C   UNL     1      -5.535 -12.453  17.271  0.00  0.00    +0.242 C 
ATOM     12  C   UNL     1      -6.039 -10.295  16.058  0.00  0.00    +0.312 C 
ATOM     21  H   UNL     1      -6.096 -13.554  19.455  0.00  0.00    +0.123 HD
ENDROOT
BRANCH   4  13
ATOM     13  C   UNL     1      -8.043  -8.979  16.697  0.00  0.00    +0.152 C 
BRANCH  13  15
ATOM      1  S   UNL     1     -10.161 -10.548  15.819  0.00  0.00    -0.100 S 
ATOM     15  C   UNL     1      -9.478  -9.385  16.875  0.00  0.00    +0.007 A 
ATOM     17  C   UNL     1     -10.384  -8.940  17.811  0.00  0.00    +0.013 A 
ATOM     19  C   UNL     1     -11.657  -9.562  17.660  0.00  0.00    +0.008 A 
ATOM     20  C   UNL     1     -11.675 -10.458  16.615  0.00  0.00    +0.045 A 
ENDBRANCH  13  15
ENDBRANCH   4  13
BRANCH   6  14
ATOM     14  C   UNL     1      -3.979 -11.548  15.620  0.00  0.00    +0.118 C 
BRANCH  14  16
ATOM     16  C   UNL     1      -2.810 -10.833  16.285  0.00  0.00    +0.016 C 
ATOM     18  C   UNL     1      -1.587 -10.739  15.383  0.00  0.00    +0.005 C 
ENDBRANCH  14  16
ENDBRANCH   6  14
TORSDOF 4
ENDMDL
MODEL 10
REMARK VINA RESULT:      -4.7      2.342      4.706
REMARK  Name = 26763194
REMARK  5 active torsions:
REMARK  status: ('A' for Active; 'I' for Inactive)
REMARK    1  A    between atoms: N_4  and  C_13
REMARK    2  A    between atoms: N_6  and  C_14
REMARK    3  A    between atoms: C_13  and  C_15
REMARK    4  A    between atoms: C_14  and  C_16
REMARK    5  A    between atoms: C_16  and  C_18
REMARK                            x       y       z     vdW  Elec       q    Type
REMARK                         _______ _______ _______ _____ _____    ______ ____
ROOT
ATOM      2  O   UNL     1      15.015   8.275  22.352  0.00  0.00    -0.273 OA
ATOM      3  O   UNL     1      11.570   8.722  19.261  0.00  0.00    -0.252 OA
ATOM      4  N   UNL     1      13.734   8.545  18.463  0.00  0.00    -0.275 N 
ATOM      5  N   UNL     1      16.803   7.801  20.273  0.00  0.00    -0.304 NA
ATOM      6  N   UNL     1      13.279   8.309  20.788  0.00  0.00    -0.225 N 
ATOM      7  C   UNL     1      15.117   8.184  18.706  0.00  0.00    +0.105 C 
ATOM      8  C   UNL     1      15.609   8.633  20.060  0.00  0.00    +0.162 C 
ATOM      9  C   UNL     1      15.379   6.681  18.693  0.00  0.00    +0.040 C 
ATOM     10  C   UNL     1      16.475   6.472  19.730  0.00  0.00    +0.083 C 
ATOM     11  C   UNL     1      14.629   8.367  21.184  0.00  0.00    +0.242 C 
ATOM     12  C   UNL     1      12.772   8.533  19.480  0.00  0.00    +0.312 C 
ATOM     21  H   UNL     1      17.060   7.745  21.257  0.00  0.00    +0.123 HD
ENDROOT
BRANCH   4  13
ATOM     13  C   UNL     1      13.343   8.756  17.076  0.00  0.00    +0.152 C 
BRANCH  13  15
ATOM      1  S   UNL     1      14.067  11.432  17.246  0.00  0.00    -0.100 S 
ATOM     15  C   UNL     1      14.071   9.913  16.456  0.00  0.00    +0.007 A 
ATOM     17  C   UNL     1      14.784   9.945  15.278  0.00  0.00    +0.013 A 
ATOM     19  C   UNL     1      15.335  11.234  15.021  0.00  0.00    +0.008 A 
ATOM     20  C   UNL     1      15.022  12.137  16.013  0.00  0.00    +0.045 A 
ENDBRANCH  13  15
ENDBRANCH   4  13
BRANCH   6  14
ATOM     14  C   UNL     1      12.292   8.117  21.847  0.00  0.00    +0.118 C 
BRANCH  14  16
ATOM     16  C   UNL     1      11.942   9.418  22.556  0.00  0.00    +0.016 C 
ATOM     18  C   UNL     1      10.441   9.653  22.649  0.00  0.00    +0.005 C 
ENDBRANCH  14  16
ENDBRANCH   6  14
TORSDOF 4
ENDMDL
