MODEL 1
REMARK VINA RESULT:      -6.2      0.000      0.000
REMARK  Name = 38027630
REMARK  16 active torsions:
REMARK  status: ('A' for Active; 'I' for Inactive)
REMARK    1  A    between atoms: S_1  and  N_7
REMARK    2  A    between atoms: S_1  and  C_22
REMARK    3  A    between atoms: O_5  and  C_26
REMARK    4  A    between atoms: O_5  and  C_30
REMARK    5  A    between atoms: O_6  and  C_29
REMARK    6  A    between atoms: O_6  and  C_31
REMARK    7  A    between atoms: N_7  and  C_16
REMARK    8  A    between atoms: N_8  and  C_23
REMARK    9  A    between atoms: C_9  and  C_13
REMARK   10  A    between atoms: C_10  and  C_16
REMARK   11  A    between atoms: C_12  and  C_17
REMARK   12  A    between atoms: C_13  and  C_18
REMARK   13  A    between atoms: C_13  and  C_19
REMARK   14  A    between atoms: C_14  and  C_20
REMARK   15  A    between atoms: C_17  and  C_21
REMARK   16  A    between atoms: C_23  and  C_26
REMARK                            x       y       z     vdW  Elec       q    Type
REMARK                         _______ _______ _______ _____ _____    ______ ____
ROOT
ATOM      9  C   UNL     1      16.771   8.206  21.120  0.00  0.00    +0.000 C 
ATOM     10  C   UNL     1      16.442   7.343  19.877  0.00  0.00    +0.030 C 
ATOM     11  C   UNL     1      18.282   8.476  21.201  0.00  0.00    +0.012 C 
ATOM     12  C   UNL     1      19.103   7.175  21.278  0.00  0.00    +0.023 C 
ATOM     14  C   UNL     1      18.650   6.161  20.247  0.00  0.00    -0.073 C 
ATOM     15  C   UNL     1      17.464   6.260  19.621  0.00  0.00    -0.023 C 
ATOM     20  C   UNL     1      19.613   5.055  19.918  0.00  0.00    +0.039 C 
ENDROOT
BRANCH   9  13
ATOM     13  C   UNL     1      16.008   9.534  21.109  0.00  0.00    -0.013 C 
ATOM     18  C   UNL     1      15.110   9.642  22.338  0.00  0.00    +0.007 C 
ATOM     19  C   UNL     1      16.981  10.707  21.045  0.00  0.00    +0.007 C 
ENDBRANCH   9  13
BRANCH  10  16
ATOM     16  C   UNL     1      15.049   6.714  19.993  0.00  0.00    +0.113 C 
BRANCH  16   7
ATOM      7  N   UNL     1      14.281   7.020  18.777  0.00  0.00    -0.189 NA
ATOM     32  H   UNL     1      14.780   7.514  18.026  0.00  0.00    +0.148 HD
BRANCH   7   1
ATOM      1  S   UNL     1      12.589   7.199  18.854  0.00  0.00    +0.058 S 
ATOM      3  O   UNL     1      12.043   6.205  19.758  0.00  0.00    -0.153 OA
ATOM      4  O   UNL     1      12.063   7.329  17.508  0.00  0.00    -0.153 OA
BRANCH   1  22
ATOM     22  C   UNL     1      12.429   8.782  19.625  0.00  0.00    +0.105 A 
ATOM     24  C   UNL     1      11.658   8.921  20.780  0.00  0.00    +0.032 A 
ATOM     25  C   UNL     1      13.072   9.893  19.079  0.00  0.00    +0.032 A 
ATOM     27  C   UNL     1      11.532  10.169  21.388  0.00  0.00    +0.047 A 
ATOM     28  C   UNL     1      12.945  11.141  19.687  0.00  0.00    +0.047 A 
ATOM     29  C   UNL     1      12.175  11.279  20.841  0.00  0.00    +0.120 A 
BRANCH  29   6
ATOM      6  O   UNL     1      12.052  12.497  21.437  0.00  0.00    -0.495 OA
ATOM     31  C   UNL     1      11.289  12.558  22.640  0.00  0.00    +0.277 C 
ENDBRANCH  29   6
ENDBRANCH   1  22
ENDBRANCH   7   1
ENDBRANCH  16   7
ENDBRANCH  10  16
BRANCH  12  17
ATOM     17  C   UNL     1      19.060   6.579  22.690  0.00  0.00    +0.103 C 
BRANCH  17  21
ATOM      2  O   UNL     1      21.432   6.847  23.087  0.00  0.00    -0.276 OA
ATOM      8  N   UNL     1      19.918   7.414  24.759  0.00  0.00    -0.313 N 
ATOM     21  C   UNL     1      20.279   6.950  23.502  0.00  0.00    +0.214 C 
ATOM     33  H   UNL     1      18.936   7.467  25.011  0.00  0.00    +0.149 HD
BRANCH   8  23
ATOM     23  C   UNL     1      20.880   7.840  25.749  0.00  0.00    +0.132 C 
BRANCH  23  26
ATOM     26  C   UNL     1      20.556   7.276  27.120  0.00  0.00    +0.178 C 
BRANCH  26   5
ATOM      5  O   UNL     1      20.494   5.858  27.044  0.00  0.00    -0.381 OA
ATOM     30  C   UNL     1      21.792   5.282  26.986  0.00  0.00    +0.194 C 
ENDBRANCH  26   5
ENDBRANCH  23  26
ENDBRANCH   8  23
ENDBRANCH  17  21
ENDBRANCH  12  17
TORSDOF 11
ENDMDL
MODEL 2
REMARK VINA RESULT:      -6.1      2.576      3.616
REMARK  Name = 38027630
REMARK  16 active torsions:
REMARK  status: ('A' for Active; 'I' for Inactive)
REMARK    1  A    between atoms: S_1  and  N_7
REMARK    2  A    between atoms: S_1  and  C_22
REMARK    3  A    between atoms: O_5  and  C_26
REMARK    4  A    between atoms: O_5  and  C_30
REMARK    5  A    between atoms: O_6  and  C_29
REMARK    6  A    between atoms: O_6  and  C_31
REMARK    7  A    between atoms: N_7  and  C_16
REMARK    8  A    between atoms: N_8  and  C_23
REMARK    9  A    between atoms: C_9  and  C_13
REMARK   10  A    between atoms: C_10  and  C_16
REMARK   11  A    between atoms: C_12  and  C_17
REMARK   12  A    between atoms: C_13  and  C_18
REMARK   13  A    between atoms: C_13  and  C_19
REMARK   14  A    between atoms: C_14  and  C_20
REMARK   15  A    between atoms: C_17  and  C_21
REMARK   16  A    between atoms: C_23  and  C_26
REMARK                            x       y       z     vdW  Elec       q    Type
REMARK                         _______ _______ _______ _____ _____    ______ ____
ROOT
ATOM      9  C   UNL     1      16.267   8.963  21.578  0.00  0.00    +0.000 C 
ATOM     10  C   UNL     1      15.240   8.276  20.645  0.00  0.00    +0.030 C 
ATOM     11  C   UNL     1      17.651   9.012  20.910  0.00  0.00    +0.012 C 
ATOM     12  C   UNL     1      18.176   7.608  20.556  0.00  0.00    +0.023 C 
ATOM     14  C   UNL     1      17.119   6.769  19.866  0.00  0.00    -0.073 C 
ATOM     15  C   UNL     1      15.814   7.091  19.905  0.00  0.00    -0.023 C 
ATOM     20  C   UNL     1      17.603   5.576  19.090  0.00  0.00    +0.039 C 
ENDROOT
BRANCH   9  13
ATOM     13  C   UNL     1      15.828  10.380  21.963  0.00  0.00    -0.013 C 
ATOM     18  C   UNL     1      16.984  11.139  22.607  0.00  0.00    +0.007 C 
ATOM     19  C   UNL     1      15.306  11.126  20.739  0.00  0.00    +0.007 C 
ENDBRANCH   9  13
BRANCH  10  16
ATOM     16  C   UNL     1      13.993   7.838  21.422  0.00  0.00    +0.113 C 
BRANCH  16   7
ATOM      7  N   UNL     1      12.824   8.566  20.903  0.00  0.00    -0.189 NA
ATOM     32  H   UNL     1      12.334   9.184  21.562  0.00  0.00    +0.148 HD
BRANCH   7   1
ATOM      1  S   UNL     1      11.933   7.935  19.596  0.00  0.00    +0.058 S 
ATOM      3  O   UNL     1      10.602   8.514  19.600  0.00  0.00    -0.153 OA
ATOM      4  O   UNL     1      12.103   6.495  19.556  0.00  0.00    -0.153 OA
BRANCH   1  22
ATOM     22  C   UNL     1      12.809   8.597  18.210  0.00  0.00    +0.105 A 
ATOM     24  C   UNL     1      13.399   7.737  17.283  0.00  0.00    +0.032 A 
ATOM     25  C   UNL     1      12.913   9.977  18.044  0.00  0.00    +0.032 A 
ATOM     27  C   UNL     1      14.091   8.258  16.190  0.00  0.00    +0.047 A 
ATOM     28  C   UNL     1      13.605  10.499  16.951  0.00  0.00    +0.047 A 
ATOM     29  C   UNL     1      14.194   9.639  16.025  0.00  0.00    +0.120 A 
BRANCH  29   6
ATOM      6  O   UNL     1      14.868  10.147  14.956  0.00  0.00    -0.495 OA
ATOM     31  C   UNL     1      14.998  11.566  14.886  0.00  0.00    +0.277 C 
ENDBRANCH  29   6
ENDBRANCH   1  22
ENDBRANCH   7   1
ENDBRANCH  16   7
ENDBRANCH  10  16
BRANCH  12  17
ATOM     17  C   UNL     1      18.720   6.893  21.798  0.00  0.00    +0.103 C 
BRANCH  17  21
ATOM      2  O   UNL     1      20.885   6.883  20.719  0.00  0.00    -0.276 OA
ATOM      8  N   UNL     1      20.721   6.304  22.964  0.00  0.00    -0.313 N 
ATOM     21  C   UNL     1      20.218   6.703  21.734  0.00  0.00    +0.214 C 
ATOM     33  H   UNL     1      20.090   6.185  23.751  0.00  0.00    +0.149 HD
BRANCH   8  23
ATOM     23  C   UNL     1      22.124   6.047  23.197  0.00  0.00    +0.132 C 
BRANCH  23  26
ATOM     26  C   UNL     1      22.427   4.560  23.195  0.00  0.00    +0.178 C 
BRANCH  26   5
ATOM      5  O   UNL     1      22.838   4.165  21.893  0.00  0.00    -0.381 OA
ATOM     30  C   UNL     1      21.854   3.359  21.257  0.00  0.00    +0.194 C 
ENDBRANCH  26   5
ENDBRANCH  23  26
ENDBRANCH   8  23
ENDBRANCH  17  21
ENDBRANCH  12  17
TORSDOF 11
ENDMDL
MODEL 3
REMARK VINA RESULT:      -6.0      2.373      5.316
REMARK  Name = 38027630
REMARK  16 active torsions:
REMARK  status: ('A' for Active; 'I' for Inactive)
REMARK    1  A    between atoms: S_1  and  N_7
REMARK    2  A    between atoms: S_1  and  C_22
REMARK    3  A    between atoms: O_5  and  C_26
REMARK    4  A    between atoms: O_5  and  C_30
REMARK    5  A    between atoms: O_6  and  C_29
REMARK    6  A    between atoms: O_6  and  C_31
REMARK    7  A    between atoms: N_7  and  C_16
REMARK    8  A    between atoms: N_8  and  C_23
REMARK    9  A    between atoms: C_9  and  C_13
REMARK   10  A    between atoms: C_10  and  C_16
REMARK   11  A    between atoms: C_12  and  C_17
REMARK   12  A    between atoms: C_13  and  C_18
REMARK   13  A    between atoms: C_13  and  C_19
REMARK   14  A    between atoms: C_14  and  C_20
REMARK   15  A    between atoms: C_17  and  C_21
REMARK   16  A    between atoms: C_23  and  C_26
REMARK                            x       y       z     vdW  Elec       q    Type
REMARK                         _______ _______ _______ _____ _____    ______ ____
ROOT
ATOM      9  C   UNL     1      13.008  11.145  23.128  0.00  0.00    +0.000 C 
ATOM     10  C   UNL     1      12.028  11.155  21.928  0.00  0.00    +0.030 C 
ATOM     11  C   UNL     1      14.311  11.872  22.762  0.00  0.00    +0.012 C 
ATOM     12  C   UNL     1      15.015  11.231  21.551  0.00  0.00    +0.023 C 
ATOM     14  C   UNL     1      14.049  10.961  20.415  0.00  0.00    -0.073 C 
ATOM     15  C   UNL     1      12.717  10.945  20.600  0.00  0.00    -0.023 C 
ATOM     20  C   UNL     1      14.648  10.756  19.052  0.00  0.00    +0.039 C 
ENDROOT
BRANCH   9  13
ATOM     13  C   UNL     1      12.389  11.787  24.373  0.00  0.00    -0.013 C 
ATOM     18  C   UNL     1      13.448  11.980  25.455  0.00  0.00    +0.007 C 
ATOM     19  C   UNL     1      11.731  13.115  24.016  0.00  0.00    +0.007 C 
ENDBRANCH   9  13
BRANCH  10  16
ATOM     16  C   UNL     1      10.927  10.103  22.104  0.00  0.00    +0.113 C 
BRANCH  16   7
ATOM      7  N   UNL     1      11.538   8.765  22.115  0.00  0.00    -0.189 NA
ATOM     32  H   UNL     1      12.422   8.663  22.629  0.00  0.00    +0.148 HD
BRANCH   7   1
ATOM      1  S   UNL     1      11.232   7.673  20.844  0.00  0.00    +0.058 S 
ATOM      3  O   UNL     1      10.523   8.361  19.781  0.00  0.00    -0.153 OA
ATOM      4  O   UNL     1      10.702   6.440  21.394  0.00  0.00    -0.153 OA
BRANCH   1  22
ATOM     22  C   UNL     1      12.867   7.321  20.269  0.00  0.00    +0.105 A 
ATOM     24  C   UNL     1      13.156   7.391  18.907  0.00  0.00    +0.032 A 
ATOM     25  C   UNL     1      13.866   6.973  21.178  0.00  0.00    +0.032 A 
ATOM     27  C   UNL     1      14.445   7.113  18.453  0.00  0.00    +0.047 A 
ATOM     28  C   UNL     1      15.155   6.695  20.724  0.00  0.00    +0.047 A 
ATOM     29  C   UNL     1      15.445   6.765  19.361  0.00  0.00    +0.120 A 
BRANCH  29   6
ATOM      6  O   UNL     1      16.703   6.496  18.918  0.00  0.00    -0.495 OA
ATOM     31  C   UNL     1      17.677   6.148  19.901  0.00  0.00    +0.277 C 
ENDBRANCH  29   6
ENDBRANCH   1  22
ENDBRANCH   7   1
ENDBRANCH  16   7
ENDBRANCH  10  16
BRANCH  12  17
ATOM     17  C   UNL     1      15.757   9.953  21.957  0.00  0.00    +0.103 C 
BRANCH  17  21
ATOM      2  O   UNL     1      17.751  10.926  20.990  0.00  0.00    -0.276 OA
ATOM      8  N   UNL     1      17.923   8.990  22.266  0.00  0.00    -0.313 N 
ATOM     21  C   UNL     1      17.238  10.038  21.668  0.00  0.00    +0.214 C 
ATOM     33  H   UNL     1      17.412   8.303  22.813  0.00  0.00    +0.149 HD
BRANCH   8  23
ATOM     23  C   UNL     1      19.353   8.818  22.157  0.00  0.00    +0.132 C 
BRANCH  23  26
ATOM     26  C   UNL     1      19.790   7.451  22.652  0.00  0.00    +0.178 C 
BRANCH  26   5
ATOM      5  O   UNL     1      20.340   7.575  23.957  0.00  0.00    -0.381 OA
ATOM     30  C   UNL     1      21.008   8.819  24.125  0.00  0.00    +0.194 C 
ENDBRANCH  26   5
ENDBRANCH  23  26
ENDBRANCH   8  23
ENDBRANCH  17  21
ENDBRANCH  12  17
TORSDOF 11
ENDMDL
MODEL 4
REMARK VINA RESULT:      -5.9     27.754     30.788
REMARK  Name = 38027630
REMARK  16 active torsions:
REMARK  status: ('A' for Active; 'I' for Inactive)
REMARK    1  A    between atoms: S_1  and  N_7
REMARK    2  A    between atoms: S_1  and  C_22
REMARK    3  A    between atoms: O_5  and  C_26
REMARK    4  A    between atoms: O_5  and  C_30
REMARK    5  A    between atoms: O_6  and  C_29
REMARK    6  A    between atoms: O_6  and  C_31
REMARK    7  A    between atoms: N_7  and  C_16
REMARK    8  A    between atoms: N_8  and  C_23
REMARK    9  A    between atoms: C_9  and  C_13
REMARK   10  A    between atoms: C_10  and  C_16
REMARK   11  A    between atoms: C_12  and  C_17
REMARK   12  A    between atoms: C_13  and  C_18
REMARK   13  A    between atoms: C_13  and  C_19
REMARK   14  A    between atoms: C_14  and  C_20
REMARK   15  A    between atoms: C_17  and  C_21
REMARK   16  A    between atoms: C_23  and  C_26
REMARK                            x       y       z     vdW  Elec       q    Type
REMARK                         _______ _______ _______ _____ _____    ______ ____
ROOT
ATOM      9  C   UNL     1      -6.767 -10.962  18.085  0.00  0.00    +0.000 C 
ATOM     10  C   UNL     1      -5.917 -11.266  16.827  0.00  0.00    +0.030 C 
ATOM     11  C   UNL     1      -8.265 -11.063  17.757  0.00  0.00    +0.012 C 
ATOM     12  C   UNL     1      -8.683 -10.090  16.638  0.00  0.00    +0.023 C 
ATOM     14  C   UNL     1      -7.728 -10.140  15.463  0.00  0.00    -0.073 C 
ATOM     15  C   UNL     1      -6.501 -10.682  15.562  0.00  0.00    -0.023 C 
ATOM     20  C   UNL     1      -8.234  -9.593  14.157  0.00  0.00    +0.039 C 
ENDROOT
BRANCH   9  13
ATOM     13  C   UNL     1      -6.426 -11.904  19.244  0.00  0.00    -0.013 C 
ATOM     18  C   UNL     1      -5.755 -11.133  20.377  0.00  0.00    +0.007 C 
ATOM     19  C   UNL     1      -7.681 -12.612  19.741  0.00  0.00    +0.007 C 
ENDBRANCH   9  13
BRANCH  10  16
ATOM     16  C   UNL     1      -4.476 -10.772  17.000  0.00  0.00    +0.113 C 
BRANCH  16   7
ATOM      7  N   UNL     1      -3.979 -10.280  15.705  0.00  0.00    -0.189 NA
ATOM     32  H   UNL     1      -4.611  -9.677  15.165  0.00  0.00    +0.148 HD
BRANCH   7   1
ATOM      1  S   UNL     1      -2.803 -11.165  14.846  0.00  0.00    +0.058 S 
ATOM      3  O   UNL     1      -3.152 -12.573  14.871  0.00  0.00    -0.153 OA
ATOM      4  O   UNL     1      -1.484 -10.732  15.265  0.00  0.00    -0.153 OA
BRANCH   1  22
ATOM     22  C   UNL     1      -3.042 -10.574  13.197  0.00  0.00    +0.105 A 
ATOM     24  C   UNL     1      -1.938 -10.271  12.399  0.00  0.00    +0.032 A 
ATOM     25  C   UNL     1      -4.332 -10.409  12.694  0.00  0.00    +0.032 A 
ATOM     27  C   UNL     1      -2.126  -9.804  11.098  0.00  0.00    +0.047 A 
ATOM     28  C   UNL     1      -4.520  -9.942  11.394  0.00  0.00    +0.047 A 
ATOM     29  C   UNL     1      -3.416  -9.639  10.596  0.00  0.00    +0.120 A 
BRANCH  29   6
ATOM      6  O   UNL     1      -3.598  -9.186   9.325  0.00  0.00    -0.495 OA
ATOM     31  C   UNL     1      -4.942  -9.089   8.856  0.00  0.00    +0.277 C 
ENDBRANCH  29   6
ENDBRANCH   1  22
ENDBRANCH   7   1
ENDBRANCH  16   7
ENDBRANCH  10  16
BRANCH  12  17
ATOM     17  C   UNL     1      -8.822  -8.660  17.173  0.00  0.00    +0.103 C 
BRANCH  17  21
ATOM      2  O   UNL     1     -11.231  -8.776  17.370  0.00  0.00    -0.276 OA
ATOM      8  N   UNL     1     -10.243  -6.858  16.504  0.00  0.00    -0.313 N 
ATOM     21  C   UNL     1     -10.234  -8.138  17.041  0.00  0.00    +0.214 C 
ATOM     33  H   UNL     1      -9.364  -6.408  16.266  0.00  0.00    +0.149 HD
BRANCH   8  23
ATOM     23  C   UNL     1     -11.456  -6.111  16.264  0.00  0.00    +0.132 C 
BRANCH  23  26
ATOM     26  C   UNL     1     -11.629  -5.786  14.792  0.00  0.00    +0.178 C 
BRANCH  26   5
ATOM      5  O   UNL     1     -12.973  -5.394  14.550  0.00  0.00    -0.381 OA
ATOM     30  C   UNL     1     -13.127  -4.832  13.254  0.00  0.00    +0.194 C 
ENDBRANCH  26   5
ENDBRANCH  23  26
ENDBRANCH   8  23
ENDBRANCH  17  21
ENDBRANCH  12  17
TORSDOF 11
ENDMDL
MODEL 5
REMARK VINA RESULT:      -5.8      3.732      6.552
REMARK  Name = 38027630
REMARK  16 active torsions:
REMARK  status: ('A' for Active; 'I' for Inactive)
REMARK    1  A    between atoms: S_1  and  N_7
REMARK    2  A    between atoms: S_1  and  C_22
REMARK    3  A    between atoms: O_5  and  C_26
REMARK    4  A    between atoms: O_5  and  C_30
REMARK    5  A    between atoms: O_6  and  C_29
REMARK    6  A    between atoms: O_6  and  C_31
REMARK    7  A    between atoms: N_7  and  C_16
REMARK    8  A    between atoms: N_8  and  C_23
REMARK    9  A    between atoms: C_9  and  C_13
REMARK   10  A    between atoms: C_10  and  C_16
REMARK   11  A    between atoms: C_12  and  C_17
REMARK   12  A    between atoms: C_13  and  C_18
REMARK   13  A    between atoms: C_13  and  C_19
REMARK   14  A    between atoms: C_14  and  C_20
REMARK   15  A    between atoms: C_17  and  C_21
REMARK   16  A    between atoms: C_23  and  C_26
REMARK                            x       y       z     vdW  Elec       q    Type
REMARK                         _______ _______ _______ _____ _____    ______ ____
ROOT
ATOM      9  C   UNL     1      12.553  11.374  23.220  0.00  0.00    +0.000 C 
ATOM     10  C   UNL     1      11.674  10.997  22.003  0.00  0.00    +0.030 C 
ATOM     11  C   UNL     1      13.712  12.283  22.784  0.00  0.00    +0.012 C 
ATOM     12  C   UNL     1      14.608  11.617  21.723  0.00  0.00    +0.023 C 
ATOM     14  C   UNL     1      13.791  10.982  20.615  0.00  0.00    -0.073 C 
ATOM     15  C   UNL     1      12.478  10.725  20.753  0.00  0.00    -0.023 C 
ATOM     20  C   UNL     1      14.510  10.690  19.327  0.00  0.00    +0.039 C 
ENDROOT
BRANCH   9  13
ATOM     13  C   UNL     1      11.738  12.065  24.318  0.00  0.00    -0.013 C 
ATOM     18  C   UNL     1      12.643  12.473  25.476  0.00  0.00    +0.007 C 
ATOM     19  C   UNL     1      11.002  13.275  23.754  0.00  0.00    +0.007 C 
ENDBRANCH   9  13
BRANCH  10  16
ATOM     16  C   UNL     1      10.788   9.785  22.313  0.00  0.00    +0.113 C 
BRANCH  16   7
ATOM      7  N   UNL     1      11.635   8.588  22.431  0.00  0.00    -0.189 NA
ATOM     32  H   UNL     1      12.502   8.686  22.975  0.00  0.00    +0.148 HD
BRANCH   7   1
ATOM      1  S   UNL     1      11.587   7.382  21.229  0.00  0.00    +0.058 S 
ATOM      3  O   UNL     1      10.875   7.888  20.071  0.00  0.00    -0.153 OA
ATOM      4  O   UNL     1      11.194   6.123  21.834  0.00  0.00    -0.153 OA
BRANCH   1  22
ATOM     22  C   UNL     1      13.295   7.236  20.797  0.00  0.00    +0.105 A 
ATOM     24  C   UNL     1      13.665   7.086  19.460  0.00  0.00    +0.032 A 
ATOM     25  C   UNL     1      14.272   7.269  21.791  0.00  0.00    +0.032 A 
ATOM     27  C   UNL     1      15.012   6.970  19.119  0.00  0.00    +0.047 A 
ATOM     28  C   UNL     1      15.619   7.153  21.450  0.00  0.00    +0.047 A 
ATOM     29  C   UNL     1      15.989   7.003  20.113  0.00  0.00    +0.120 A 
BRANCH  29   6
ATOM      6  O   UNL     1      17.304   6.892  19.779  0.00  0.00    -0.495 OA
ATOM     31  C   UNL     1      17.695   5.726  19.057  0.00  0.00    +0.277 C 
ENDBRANCH  29   6
ENDBRANCH   1  22
ENDBRANCH   7   1
ENDBRANCH  16   7
ENDBRANCH  10  16
BRANCH  12  17
ATOM     17  C   UNL     1      15.554  10.594  22.363  0.00  0.00    +0.103 C 
BRANCH  17  21
ATOM      2  O   UNL     1      17.798   9.847  21.851  0.00  0.00    -0.276 OA
ATOM      8  N   UNL     1      17.224  12.072  21.503  0.00  0.00    -0.313 N 
ATOM     21  C   UNL     1      16.978  10.762  21.887  0.00  0.00    +0.214 C 
ATOM     33  H   UNL     1      16.480  12.761  21.564  0.00  0.00    +0.149 HD
BRANCH   8  23
ATOM     23  C   UNL     1      18.503  12.523  21.005  0.00  0.00    +0.132 C 
BRANCH  23  26
ATOM     26  C   UNL     1      18.544  12.520  19.488  0.00  0.00    +0.178 C 
BRANCH  26   5
ATOM      5  O   UNL     1      17.315  13.021  18.982  0.00  0.00    -0.381 OA
ATOM     30  C   UNL     1      17.255  12.922  17.565  0.00  0.00    +0.194 C 
ENDBRANCH  26   5
ENDBRANCH  23  26
ENDBRANCH   8  23
ENDBRANCH  17  21
ENDBRANCH  12  17
TORSDOF 11
ENDMDL
MODEL 6
REMARK VINA RESULT:      -5.8      1.864      2.268
REMARK  Name = 38027630
REMARK  16 active torsions:
REMARK  status: ('A' for Active; 'I' for Inactive)
REMARK    1  A    between atoms: S_1  and  N_7
REMARK    2  A    between atoms: S_1  and  C_22
REMARK    3  A    between atoms: O_5  and  C_26
REMARK    4  A    between atoms: O_5  and  C_30
REMARK    5  A    between atoms: O_6  and  C_29
REMARK    6  A    between atoms: O_6  and  C_31
REMARK    7  A    between atoms: N_7  and  C_16
REMARK    8  A    between atoms: N_8  and  C_23
REMARK    9  A    between atoms: C_9  and  C_13
REMARK   10  A    between atoms: C_10  and  C_16
REMARK   11  A    between atoms: C_12  and  C_17
REMARK   12  A    between atoms: C_13  and  C_18
REMARK   13  A    between atoms: C_13  and  C_19
REMARK   14  A    between atoms: C_14  and  C_20
REMARK   15  A    between atoms: C_17  and  C_21
REMARK   16  A    between atoms: C_23  and  C_26
REMARK                            x       y       z     vdW  Elec       q    Type
REMARK                         _______ _______ _______ _____ _____    ______ ____
ROOT
ATOM      9  C   UNL     1      16.790   8.721  21.352  0.00  0.00    +0.000 C 
ATOM     10  C   UNL     1      16.094   7.972  20.190  0.00  0.00    +0.030 C 
ATOM     11  C   UNL     1      18.312   8.746  21.139  0.00  0.00    +0.012 C 
ATOM     12  C   UNL     1      18.910   7.330  21.043  0.00  0.00    +0.023 C 
ATOM     14  C   UNL     1      18.110   6.443  20.110  0.00  0.00    -0.073 C 
ATOM     15  C   UNL     1      16.858   6.753  19.729  0.00  0.00    -0.023 C 
ATOM     20  C   UNL     1      18.800   5.213  19.589  0.00  0.00    +0.039 C 
ENDROOT
BRANCH   9  13
ATOM     13  C   UNL     1      16.265  10.152  21.503  0.00  0.00    -0.013 C 
ATOM     18  C   UNL     1      15.855  10.714  20.145  0.00  0.00    +0.007 C 
ATOM     19  C   UNL     1      15.095  10.190  22.480  0.00  0.00    +0.007 C 
ENDBRANCH   9  13
BRANCH  10  16
ATOM     16  C   UNL     1      14.666   7.565  20.570  0.00  0.00    +0.113 C 
BRANCH  16   7
ATOM      7  N   UNL     1      13.749   7.965  19.490  0.00  0.00    -0.189 NA
ATOM     32  H   UNL     1      14.041   8.757  18.905  0.00  0.00    +0.148 HD
BRANCH   7   1
ATOM      1  S   UNL     1      12.080   7.650  19.622  0.00  0.00    +0.058 S 
ATOM      3  O   UNL     1      11.885   6.281  20.061  0.00  0.00    -0.153 OA
ATOM      4  O   UNL     1      11.410   8.137  18.432  0.00  0.00    -0.153 OA
BRANCH   1  22
ATOM     22  C   UNL     1      11.616   8.720  20.951  0.00  0.00    +0.105 A 
ATOM     24  C   UNL     1      11.063   8.185  22.115  0.00  0.00    +0.032 A 
ATOM     25  C   UNL     1      11.800  10.097  20.835  0.00  0.00    +0.032 A 
ATOM     27  C   UNL     1      10.696   9.029  23.163  0.00  0.00    +0.047 A 
ATOM     28  C   UNL     1      11.433  10.940  21.883  0.00  0.00    +0.047 A 
ATOM     29  C   UNL     1      10.881  10.406  23.047  0.00  0.00    +0.120 A 
BRANCH  29   6
ATOM      6  O   UNL     1      10.524  11.229  24.072  0.00  0.00    -0.495 OA
ATOM     31  C   UNL     1      11.572  11.940  24.728  0.00  0.00    +0.277 C 
ENDBRANCH  29   6
ENDBRANCH   1  22
ENDBRANCH   7   1
ENDBRANCH  16   7
ENDBRANCH  10  16
BRANCH  12  17
ATOM     17  C   UNL     1      19.042   6.691  22.430  0.00  0.00    +0.103 C 
BRANCH  17  21
ATOM      2  O   UNL     1      20.970   7.573  23.596  0.00  0.00    -0.276 OA
ATOM      8  N   UNL     1      21.132   5.533  22.493  0.00  0.00    -0.313 N 
ATOM     21  C   UNL     1      20.473   6.678  22.917  0.00  0.00    +0.214 C 
ATOM     33  H   UNL     1      20.635   4.845  21.935  0.00  0.00    +0.149 HD
BRANCH   8  23
ATOM     23  C   UNL     1      22.513   5.254  22.810  0.00  0.00    +0.132 C 
BRANCH  23  26
ATOM     26  C   UNL     1      22.655   4.629  24.186  0.00  0.00    +0.178 C 
BRANCH  26   5
ATOM      5  O   UNL     1      22.334   3.247  24.112  0.00  0.00    -0.381 OA
ATOM     30  C   UNL     1      23.131   2.578  23.142  0.00  0.00    +0.194 C 
ENDBRANCH  26   5
ENDBRANCH  23  26
ENDBRANCH   8  23
ENDBRANCH  17  21
ENDBRANCH  12  17
TORSDOF 11
ENDMDL
MODEL 7
REMARK VINA RESULT:      -5.6     27.417     31.734
REMARK  Name = 38027630
REMARK  16 active torsions:
REMARK  status: ('A' for Active; 'I' for Inactive)
REMARK    1  A    between atoms: S_1  and  N_7
REMARK    2  A    between atoms: S_1  and  C_22
REMARK    3  A    between atoms: O_5  and  C_26
REMARK    4  A    between atoms: O_5  and  C_30
REMARK    5  A    between atoms: O_6  and  C_29
REMARK    6  A    between atoms: O_6  and  C_31
REMARK    7  A    between atoms: N_7  and  C_16
REMARK    8  A    between atoms: N_8  and  C_23
REMARK    9  A    between atoms: C_9  and  C_13
REMARK   10  A    between atoms: C_10  and  C_16
REMARK   11  A    between atoms: C_12  and  C_17
REMARK   12  A    between atoms: C_13  and  C_18
REMARK   13  A    between atoms: C_13  and  C_19
REMARK   14  A    between atoms: C_14  and  C_20
REMARK   15  A    between atoms: C_17  and  C_21
REMARK   16  A    between atoms: C_23  and  C_26
REMARK                            x       y       z     vdW  Elec       q    Type
REMARK                         _______ _______ _______ _____ _____    ______ ____
ROOT
ATOM      9  C   UNL     1     -15.604   6.708  21.110  0.00  0.00    +0.000 C 
ATOM     10  C   UNL     1     -14.693   5.563  21.616  0.00  0.00    +0.030 C 
ATOM     11  C   UNL     1     -15.004   7.354  19.851  0.00  0.00    +0.012 C 
ATOM     12  C   UNL     1     -13.596   7.926  20.105  0.00  0.00    +0.023 C 
ATOM     14  C   UNL     1     -12.714   6.943  20.847  0.00  0.00    -0.073 C 
ATOM     15  C   UNL     1     -13.220   5.885  21.505  0.00  0.00    -0.023 C 
ATOM     20  C   UNL     1     -11.231   7.179  20.778  0.00  0.00    +0.039 C 
ENDROOT
BRANCH   9  13
ATOM     13  C   UNL     1     -17.024   6.216  20.812  0.00  0.00    -0.013 C 
ATOM     18  C   UNL     1     -17.902   7.373  20.346  0.00  0.00    +0.007 C 
ATOM     19  C   UNL     1     -16.994   5.105  19.768  0.00  0.00    +0.007 C 
ENDBRANCH   9  13
BRANCH  10  16
ATOM     16  C   UNL     1     -15.026   5.190  23.065  0.00  0.00    +0.113 C 
BRANCH  16   7
ATOM      7  N   UNL     1     -15.218   3.734  23.154  0.00  0.00    -0.189 NA
ATOM     32  H   UNL     1     -14.549   3.146  22.641  0.00  0.00    +0.148 HD
BRANCH   7   1
ATOM      1  S   UNL     1     -16.766   3.090  23.458  0.00  0.00    +0.058 S 
ATOM      3  O   UNL     1     -16.955   1.899  22.652  0.00  0.00    -0.153 OA
ATOM      4  O   UNL     1     -17.742   4.162  23.416  0.00  0.00    -0.153 OA
BRANCH   1  22
ATOM     22  C   UNL     1     -16.622   2.588  25.147  0.00  0.00    +0.105 A 
ATOM     24  C   UNL     1     -16.180   3.497  26.109  0.00  0.00    +0.032 A 
ATOM     25  C   UNL     1     -16.948   1.284  25.518  0.00  0.00    +0.032 A 
ATOM     27  C   UNL     1     -16.065   3.102  27.441  0.00  0.00    +0.047 A 
ATOM     28  C   UNL     1     -16.833   0.889  26.850  0.00  0.00    +0.047 A 
ATOM     29  C   UNL     1     -16.391   1.798  27.812  0.00  0.00    +0.120 A 
BRANCH  29   6
ATOM      6  O   UNL     1     -16.282   1.413  29.113  0.00  0.00    -0.495 OA
ATOM     31  C   UNL     1     -15.137   1.869  29.831  0.00  0.00    +0.277 C 
ENDBRANCH  29   6
ENDBRANCH   1  22
ENDBRANCH   7   1
ENDBRANCH  16   7
ENDBRANCH  10  16
BRANCH  12  17
ATOM     17  C   UNL     1     -13.671   9.266  20.846  0.00  0.00    +0.103 C 
BRANCH  17  21
ATOM      2  O   UNL     1     -12.036  11.034  21.089  0.00  0.00    -0.276 OA
ATOM      8  N   UNL     1     -12.443  10.130  18.986  0.00  0.00    -0.313 N 
ATOM     21  C   UNL     1     -12.629  10.246  20.356  0.00  0.00    +0.214 C 
ATOM     33  H   UNL     1     -12.980   9.445  18.463  0.00  0.00    +0.149 HD
BRANCH   8  23
ATOM     23  C   UNL     1     -11.508  10.945  18.246  0.00  0.00    +0.132 C 
BRANCH  23  26
ATOM     26  C   UNL     1     -10.138  10.294  18.173  0.00  0.00    +0.178 C 
BRANCH  26   5
ATOM      5  O   UNL     1      -9.920   9.800  16.858  0.00  0.00    -0.381 OA
ATOM     30  C   UNL     1     -10.434   8.484  16.704  0.00  0.00    +0.194 C 
ENDBRANCH  26   5
ENDBRANCH  23  26
ENDBRANCH   8  23
ENDBRANCH  17  21
ENDBRANCH  12  17
TORSDOF 11
ENDMDL
MODEL 8
REMARK VINA RESULT:      -5.6     27.848     30.649
REMARK  Name = 38027630
REMARK  16 active torsions:
REMARK  status: ('A' for Active; 'I' for Inactive)
REMARK    1  A    between atoms: S_1  and  N_7
REMARK    2  A    between atoms: S_1  and  C_22
REMARK    3  A    between atoms: O_5  and  C_26
REMARK    4  A    between atoms: O_5  and  C_30
REMARK    5  A    between atoms: O_6  and  C_29
REMARK    6  A    between atoms: O_6  and  C_31
REMARK    7  A    between atoms: N_7  and  C_16
REMARK    8  A    between atoms: N_8  and  C_23
REMARK    9  A    between atoms: C_9  and  C_13
REMARK   10  A    between atoms: C_10  and  C_16
REMARK   11  A    between atoms: C_12  and  C_17
REMARK   12  A    between atoms: C_13  and  C_18
REMARK   13  A    between atoms: C_13  and  C_19
REMARK   14  A    between atoms: C_14  and  C_20
REMARK   15  A    between atoms: C_17  and  C_21
REMARK   16  A    between atoms: C_23  and  C_26
REMARK                            x       y       z     vdW  Elec       q    Type
REMARK                         _______ _______ _______ _____ _____    ______ ____
ROOT
ATOM      9  C   UNL     1      -4.133 -11.886  11.879  0.00  0.00    +0.000 C 
ATOM     10  C   UNL     1      -2.955 -11.126  11.221  0.00  0.00    +0.030 C 
ATOM     11  C   UNL     1      -5.405 -11.745  11.028  0.00  0.00    +0.012 C 
ATOM     12  C   UNL     1      -5.819 -10.273  10.840  0.00  0.00    +0.023 C 
ATOM     14  C   UNL     1      -4.642  -9.403  10.448  0.00  0.00    -0.073 C 
ATOM     15  C   UNL     1      -3.369  -9.806  10.612  0.00  0.00    -0.023 C 
ATOM     20  C   UNL     1      -4.962  -8.076   9.818  0.00  0.00    +0.039 C 
ENDROOT
BRANCH   9  13
ATOM     13  C   UNL     1      -3.809 -13.370  12.083  0.00  0.00    -0.013 C 
ATOM     18  C   UNL     1      -4.828 -14.013  13.019  0.00  0.00    +0.007 C 
ATOM     19  C   UNL     1      -3.771 -14.096  10.743  0.00  0.00    +0.007 C 
ENDBRANCH   9  13
BRANCH  10  16
ATOM     16  C   UNL     1      -1.819 -10.892  12.222  0.00  0.00    +0.113 C 
BRANCH  16   7
ATOM      7  N   UNL     1      -2.381 -10.349  13.469  0.00  0.00    -0.189 NA
ATOM     32  H   UNL     1      -2.588  -9.343  13.484  0.00  0.00    +0.148 HD
BRANCH   7   1
ATOM      1  S   UNL     1      -2.061 -11.113  14.957  0.00  0.00    +0.058 S 
ATOM      3  O   UNL     1      -0.995 -10.405  15.640  0.00  0.00    -0.153 OA
ATOM      4  O   UNL     1      -1.967 -12.545  14.746  0.00  0.00    -0.153 OA
BRANCH   1  22
ATOM     22  C   UNL     1      -3.563 -10.820  15.843  0.00  0.00    +0.105 A 
ATOM     24  C   UNL     1      -4.674 -10.301  15.177  0.00  0.00    +0.032 A 
ATOM     25  C   UNL     1      -3.637 -11.105  17.206  0.00  0.00    +0.032 A 
ATOM     27  C   UNL     1      -5.859 -10.068  15.875  0.00  0.00    +0.047 A 
ATOM     28  C   UNL     1      -4.822 -10.872  17.904  0.00  0.00    +0.047 A 
ATOM     29  C   UNL     1      -5.933 -10.354  17.238  0.00  0.00    +0.120 A 
BRANCH  29   6
ATOM      6  O   UNL     1      -7.090 -10.129  17.919  0.00  0.00    -0.495 OA
ATOM     31  C   UNL     1      -8.065  -9.301  17.286  0.00  0.00    +0.277 C 
ENDBRANCH  29   6
ENDBRANCH   1  22
ENDBRANCH   7   1
ENDBRANCH  16   7
ENDBRANCH  10  16
BRANCH  12  17
ATOM     17  C   UNL     1      -6.510  -9.729  12.096  0.00  0.00    +0.103 C 
BRANCH  17  21
ATOM      2  O   UNL     1      -8.825  -9.789  12.795  0.00  0.00    -0.276 OA
ATOM      8  N   UNL     1      -8.304  -9.196  10.609  0.00  0.00    -0.313 N 
ATOM     21  C   UNL     1      -8.002  -9.585  11.906  0.00  0.00    +0.214 C 
ATOM     33  H   UNL     1      -7.552  -9.047   9.942  0.00  0.00    +0.149 HD
BRANCH   8  23
ATOM     23  C   UNL     1      -9.654  -8.983  10.143  0.00  0.00    +0.132 C 
BRANCH  23  26
ATOM     26  C   UNL     1      -9.704  -7.951   9.031  0.00  0.00    +0.178 C 
BRANCH  26   5
ATOM      5  O   UNL     1      -8.428  -7.341   8.896  0.00  0.00    -0.381 OA
ATOM     30  C   UNL     1      -8.328  -6.602   7.685  0.00  0.00    +0.194 C 
ENDBRANCH  26   5
ENDBRANCH  23  26
ENDBRANCH   8  23
ENDBRANCH  17  21
ENDBRANCH  12  17
TORSDOF 11
ENDMDL
MODEL 9
REMARK VINA RESULT:      -5.5      3.020      4.851
REMARK  Name = 38027630
REMARK  16 active torsions:
REMARK  status: ('A' for Active; 'I' for Inactive)
REMARK    1  A    between atoms: S_1  and  N_7
REMARK    2  A    between atoms: S_1  and  C_22
REMARK    3  A    between atoms: O_5  and  C_26
REMARK    4  A    between atoms: O_5  and  C_30
REMARK    5  A    between atoms: O_6  and  C_29
REMARK    6  A    between atoms: O_6  and  C_31
REMARK    7  A    between atoms: N_7  and  C_16
REMARK    8  A    between atoms: N_8  and  C_23
REMARK    9  A    between atoms: C_9  and  C_13
REMARK   10  A    between atoms: C_10  and  C_16
REMARK   11  A    between atoms: C_12  and  C_17
REMARK   12  A    between atoms: C_13  and  C_18
REMARK   13  A    between atoms: C_13  and  C_19
REMARK   14  A    between atoms: C_14  and  C_20
REMARK   15  A    between atoms: C_17  and  C_21
REMARK   16  A    between atoms: C_23  and  C_26
REMARK                            x       y       z     vdW  Elec       q    Type
REMARK                         _______ _______ _______ _____ _____    ______ ____
ROOT
ATOM      9  C   UNL     1      17.880   7.499  20.488  0.00  0.00    +0.000 C 
ATOM     10  C   UNL     1      17.677   8.677  21.472  0.00  0.00    +0.030 C 
ATOM     11  C   UNL     1      18.645   6.354  21.172  0.00  0.00    +0.012 C 
ATOM     12  C   UNL     1      20.025   6.803  21.689  0.00  0.00    +0.023 C 
ATOM     14  C   UNL     1      19.943   8.112  22.448  0.00  0.00    -0.073 C 
ATOM     15  C   UNL     1      18.881   8.930  22.349  0.00  0.00    -0.023 C 
ATOM     20  C   UNL     1      21.094   8.438  23.359  0.00  0.00    +0.039 C 
ENDROOT
BRANCH   9  13
ATOM     13  C   UNL     1      16.548   6.977  19.942  0.00  0.00    -0.013 C 
ATOM     18  C   UNL     1      16.789   5.900  18.888  0.00  0.00    +0.007 C 
ATOM     19  C   UNL     1      15.681   6.440  21.076  0.00  0.00    +0.007 C 
ENDBRANCH   9  13
BRANCH  10  16
ATOM     16  C   UNL     1      17.310   9.964  20.725  0.00  0.00    +0.113 C 
BRANCH  16   7
ATOM      7  N   UNL     1      16.413  10.770  21.570  0.00  0.00    -0.189 NA
ATOM     32  H   UNL     1      16.421  10.568  22.577  0.00  0.00    +0.148 HD
BRANCH   7   1
ATOM      1  S   UNL     1      14.998  11.453  20.910  0.00  0.00    +0.058 S 
ATOM      3  O   UNL     1      15.286  11.957  19.580  0.00  0.00    -0.153 OA
ATOM      4  O   UNL     1      14.381  12.315  21.900  0.00  0.00    -0.153 OA
BRANCH   1  22
ATOM     22  C   UNL     1      13.958  10.033  20.741  0.00  0.00    +0.105 A 
ATOM     24  C   UNL     1      13.344   9.481  21.866  0.00  0.00    +0.032 A 
ATOM     25  C   UNL     1      13.752   9.464  19.485  0.00  0.00    +0.032 A 
ATOM     27  C   UNL     1      12.524   8.361  21.734  0.00  0.00    +0.047 A 
ATOM     28  C   UNL     1      12.932   8.344  19.352  0.00  0.00    +0.047 A 
ATOM     29  C   UNL     1      12.318   7.793  20.477  0.00  0.00    +0.120 A 
BRANCH  29   6
ATOM      6  O   UNL     1      11.515   6.701  20.348  0.00  0.00    -0.495 OA
ATOM     31  C   UNL     1      11.270   5.932  21.525  0.00  0.00    +0.277 C 
ENDBRANCH  29   6
ENDBRANCH   1  22
ENDBRANCH   7   1
ENDBRANCH  16   7
ENDBRANCH  10  16
BRANCH  12  17
ATOM     17  C   UNL     1      21.040   6.894  20.544  0.00  0.00    +0.103 C 
BRANCH  17  21
ATOM      2  O   UNL     1      23.323   6.745  21.330  0.00  0.00    -0.276 OA
ATOM      8  N   UNL     1      22.240   4.828  20.584  0.00  0.00    -0.313 N 
ATOM     21  C   UNL     1      22.332   6.182  20.871  0.00  0.00    +0.214 C 
ATOM     33  H   UNL     1      21.375   4.452  20.208  0.00  0.00    +0.149 HD
BRANCH   8  23
ATOM     23  C   UNL     1      23.328   3.901  20.796  0.00  0.00    +0.132 C 
BRANCH  23  26
ATOM     26  C   UNL     1      24.403   4.049  19.735  0.00  0.00    +0.178 C 
BRANCH  26   5
ATOM      5  O   UNL     1      25.114   2.824  19.610  0.00  0.00    -0.381 OA
ATOM     30  C   UNL     1      25.013   2.040  20.792  0.00  0.00    +0.194 C 
ENDBRANCH  26   5
ENDBRANCH  23  26
ENDBRANCH   8  23
ENDBRANCH  17  21
ENDBRANCH  12  17
TORSDOF 11
ENDMDL
MODEL 10
REMARK VINA RESULT:      -5.5     28.726     30.817
REMARK  Name = 38027630
REMARK  16 active torsions:
REMARK  status: ('A' for Active; 'I' for Inactive)
REMARK    1  A    between atoms: S_1  and  N_7
REMARK    2  A    between atoms: S_1  and  C_22
REMARK    3  A    between atoms: O_5  and  C_26
REMARK    4  A    between atoms: O_5  and  C_30
REMARK    5  A    between atoms: O_6  and  C_29
REMARK    6  A    between atoms: O_6  and  C_31
REMARK    7  A    between atoms: N_7  and  C_16
REMARK    8  A    between atoms: N_8  and  C_23
REMARK    9  A    between atoms: C_9  and  C_13
REMARK   10  A    between atoms: C_10  and  C_16
REMARK   11  A    between atoms: C_12  and  C_17
REMARK   12  A    between atoms: C_13  and  C_18
REMARK   13  A    between atoms: C_13  and  C_19
REMARK   14  A    between atoms: C_14  and  C_20
REMARK   15  A    between atoms: C_17  and  C_21
REMARK   16  A    between atoms: C_23  and  C_26
REMARK                            x       y       z     vdW  Elec       q    Type
REMARK                         _______ _______ _______ _____ _____    ______ ____
ROOT
ATOM      9  C   UNL     1      -5.869 -11.519  15.048  0.00  0.00    +0.000 C 
ATOM     10  C   UNL     1      -4.473 -11.890  15.606  0.00  0.00    +0.030 C 
ATOM     11  C   UNL     1      -6.457 -10.328  15.821  0.00  0.00    +0.012 C 
ATOM     12  C   UNL     1      -6.594 -10.621  17.327  0.00  0.00    +0.023 C 
ATOM     14  C   UNL     1      -5.336 -11.244  17.897  0.00  0.00    -0.073 C 
ATOM     15  C   UNL     1      -4.392 -11.793  17.112  0.00  0.00    -0.023 C 
ATOM     20  C   UNL     1      -5.165 -11.179  19.389  0.00  0.00    +0.039 C 
ENDROOT
BRANCH   9  13
ATOM     13  C   UNL     1      -5.815 -11.191  13.553  0.00  0.00    -0.013 C 
ATOM     18  C   UNL     1      -6.719 -12.137  12.768  0.00  0.00    +0.007 C 
ATOM     19  C   UNL     1      -6.212  -9.739  13.312  0.00  0.00    +0.007 C 
ENDBRANCH   9  13
BRANCH  10  16
ATOM     16  C   UNL     1      -4.054 -13.295  15.162  0.00  0.00    +0.113 C 
BRANCH  16   7
ATOM      7  N   UNL     1      -2.605 -13.306  14.906  0.00  0.00    -0.189 NA
ATOM     32  H   UNL     1      -2.039 -12.616  15.415  0.00  0.00    +0.148 HD
BRANCH   7   1
ATOM      1  S   UNL     1      -2.001 -13.884  13.422  0.00  0.00    +0.058 S 
ATOM      3  O   UNL     1      -2.673 -15.125  13.082  0.00  0.00    -0.153 OA
ATOM      4  O   UNL     1      -0.552 -13.821  13.442  0.00  0.00    -0.153 OA
BRANCH   1  22
ATOM     22  C   UNL     1      -2.556 -12.638  12.297  0.00  0.00    +0.105 A 
ATOM     24  C   UNL     1      -3.388 -12.983  11.231  0.00  0.00    +0.032 A 
ATOM     25  C   UNL     1      -2.163 -11.312  12.474  0.00  0.00    +0.032 A 
ATOM     27  C   UNL     1      -3.826 -12.000  10.343  0.00  0.00    +0.047 A 
ATOM     28  C   UNL     1      -2.600 -10.330  11.586  0.00  0.00    +0.047 A 
ATOM     29  C   UNL     1      -3.432 -10.674  10.521  0.00  0.00    +0.120 A 
BRANCH  29   6
ATOM      6  O   UNL     1      -3.862  -9.716   9.655  0.00  0.00    -0.495 OA
ATOM     31  C   UNL     1      -4.511  -8.577  10.217  0.00  0.00    +0.277 C 
ENDBRANCH  29   6
ENDBRANCH   1  22
ENDBRANCH   7   1
ENDBRANCH  16   7
ENDBRANCH  10  16
BRANCH  12  17
ATOM     17  C   UNL     1      -7.818 -11.501  17.608  0.00  0.00    +0.103 C 
BRANCH  17  21
ATOM      2  O   UNL     1      -8.782 -10.894  19.743  0.00  0.00    -0.276 OA
ATOM      8  N   UNL     1      -9.750 -10.105  17.782  0.00  0.00    -0.313 N 
ATOM     21  C   UNL     1      -8.813 -10.817  18.517  0.00  0.00    +0.214 C 
ATOM     33  H   UNL     1      -9.693 -10.098  16.769  0.00  0.00    +0.149 HD
BRANCH   8  23
ATOM     23  C   UNL     1     -10.824  -9.353  18.390  0.00  0.00    +0.132 C 
BRANCH  23  26
ATOM     26  C   UNL     1     -11.754  -8.764  17.346  0.00  0.00    +0.178 C 
BRANCH  26   5
ATOM      5  O   UNL     1     -10.988  -8.074  16.368  0.00  0.00    -0.381 OA
ATOM     30  C   UNL     1     -11.126  -6.665  16.496  0.00  0.00    +0.194 C 
ENDBRANCH  26   5
ENDBRANCH  23  26
ENDBRANCH   8  23
ENDBRANCH  17  21
ENDBRANCH  12  17
TORSDOF 11
ENDMDL
