MODEL 1
REMARK VINA RESULT:      -6.5      0.000      0.000
REMARK  Name = 28959868
REMARK  9 active torsions:
REMARK  status: ('A' for Active; 'I' for Inactive)
REMARK    1  A    between atoms: O_2  and  C_21
REMARK    2  A    between atoms: N_6  and  C_15
REMARK    3  A    between atoms: C_8  and  C_12
REMARK    4  A    between atoms: C_9  and  C_14
REMARK    5  A    between atoms: C_12  and  C_15
REMARK    6  A    between atoms: C_14  and  C_21
REMARK    7  A    between atoms: C_18  and  C_22
REMARK    8  A    between atoms: C_22  and  C_24
REMARK    9  A    between atoms: C_23  and  C_25
REMARK                            x       y       z     vdW  Elec       q    Type
REMARK                         _______ _______ _______ _____ _____    ______ ____
ROOT
ATOM      1  O   UNL     1      -1.451 -10.224  12.266  0.00  0.00    -0.275 OA
ATOM      5  N   UNL     1      -2.429 -11.573  13.884  0.00  0.00    -0.301 N 
ATOM      8  C   UNL     1      -4.249 -12.077  15.498  0.00  0.00    +0.011 C 
ATOM      9  C   UNL     1      -3.308 -11.626  16.644  0.00  0.00    +0.006 C 
ATOM     10  C   UNL     1      -3.418 -12.576  14.303  0.00  0.00    +0.111 C 
ATOM     11  C   UNL     1      -2.258 -10.617  16.149  0.00  0.00    +0.023 C 
ATOM     13  C   UNL     1      -1.504 -11.151  14.935  0.00  0.00    +0.108 C 
ATOM     18  C   UNL     1      -2.308 -11.047  12.599  0.00  0.00    +0.220 C 
ENDROOT
BRANCH   8  12
ATOM     12  C   UNL     1      -5.240 -10.997  15.045  0.00  0.00    +0.020 C 
BRANCH  12  15
ATOM     15  C   UNL     1      -6.664 -11.533  15.040  0.00  0.00    +0.085 C 
BRANCH  15   6
ATOM      4  O   UNL     1     -11.039 -12.585  19.362  0.00  0.00    -0.276 OA
ATOM      6  N   UNL     1      -7.125 -11.729  16.414  0.00  0.00    -0.299 NA
ATOM      7  N   UNL     1      -9.044 -11.723  18.541  0.00  0.00    -0.299 N 
ATOM     16  C   UNL     1      -7.600 -10.459  16.985  0.00  0.00    +0.103 C 
ATOM     17  C   UNL     1      -8.188 -12.744  16.463  0.00  0.00    +0.103 C 
ATOM     19  C   UNL     1      -8.056 -10.646  18.433  0.00  0.00    +0.123 C 
ATOM     20  C   UNL     1      -8.649 -12.976  17.901  0.00  0.00    +0.123 C 
ATOM     23  C   UNL     1     -10.221 -11.664  19.287  0.00  0.00    +0.213 C 
ATOM     25  C   UNL     1     -10.485 -10.380  20.031  0.00  0.00    +0.109 C 
ENDBRANCH  15   6
ENDBRANCH  12  15
ENDBRANCH   8  12
BRANCH   9  14
ATOM     14  C   UNL     1      -4.057 -11.076  17.856  0.00  0.00    +0.124 C 
BRANCH  14  21
ATOM      3  O   UNL     1      -3.423 -12.226  19.909  0.00  0.00    -0.251 OA
ATOM     21  C   UNL     1      -4.170 -12.099  18.951  0.00  0.00    +0.305 C 
BRANCH  21   2
ATOM      2  O   UNL     1      -5.251 -12.892  18.727  0.00  0.00    -0.481 OA
ATOM     31  H   UNL     1      -5.287 -13.206  17.799  0.00  0.00    +0.295 HD
ENDBRANCH  21   2
ENDBRANCH  14  21
ENDBRANCH   9  14
BRANCH  18  22
ATOM     22  C   UNL     1      -3.302 -11.531  11.573  0.00  0.00    +0.131 C 
BRANCH  22  24
ATOM     24  C   UNL     1      -4.029 -10.376  10.957  0.00  0.00    -0.039 A 
ATOM     26  C   UNL     1      -5.003  -9.695  11.688  0.00  0.00    +0.004 A 
ATOM     27  C   UNL     1      -3.733  -9.982   9.652  0.00  0.00    +0.004 A 
ATOM     28  C   UNL     1      -5.680  -8.620  11.114  0.00  0.00    +0.000 A 
ATOM     29  C   UNL     1      -4.411  -8.906   9.078  0.00  0.00    +0.000 A 
ATOM     30  C   UNL     1      -5.385  -8.225   9.810  0.00  0.00    +0.000 A 
ENDBRANCH  22  24
ENDBRANCH  18  22
TORSDOF 8
ENDMDL
MODEL 2
REMARK VINA RESULT:      -6.2      2.755      3.129
REMARK  Name = 28959868
REMARK  9 active torsions:
REMARK  status: ('A' for Active; 'I' for Inactive)
REMARK    1  A    between atoms: O_2  and  C_21
REMARK    2  A    between atoms: N_6  and  C_15
REMARK    3  A    between atoms: C_8  and  C_12
REMARK    4  A    between atoms: C_9  and  C_14
REMARK    5  A    between atoms: C_12  and  C_15
REMARK    6  A    between atoms: C_14  and  C_21
REMARK    7  A    between atoms: C_18  and  C_22
REMARK    8  A    between atoms: C_22  and  C_24
REMARK    9  A    between atoms: C_23  and  C_25
REMARK                            x       y       z     vdW  Elec       q    Type
REMARK                         _______ _______ _______ _____ _____    ______ ____
ROOT
ATOM      1  O   UNL     1      -1.958 -10.052  13.672  0.00  0.00    -0.275 OA
ATOM      5  N   UNL     1      -3.386 -11.429  14.882  0.00  0.00    -0.301 N 
ATOM      8  C   UNL     1      -5.638 -12.012  15.754  0.00  0.00    +0.011 C 
ATOM      9  C   UNL     1      -5.196 -11.486  17.142  0.00  0.00    +0.006 C 
ATOM     10  C   UNL     1      -4.408 -12.481  14.956  0.00  0.00    +0.111 C 
ATOM     11  C   UNL     1      -4.089 -10.425  17.019  0.00  0.00    +0.023 C 
ATOM     13  C   UNL     1      -2.923 -10.934  16.177  0.00  0.00    +0.108 C 
ATOM     18  C   UNL     1      -2.835 -10.919  13.706  0.00  0.00    +0.220 C 
ENDROOT
BRANCH   8  12
ATOM     12  C   UNL     1      -6.451 -11.001  14.934  0.00  0.00    +0.020 C 
BRANCH  12  15
ATOM     15  C   UNL     1      -7.785 -11.595  14.508  0.00  0.00    +0.085 C 
BRANCH  15   6
ATOM      4  O   UNL     1     -12.251  -7.256  14.125  0.00  0.00    -0.276 OA
ATOM      6  N   UNL     1      -8.881 -10.795  15.052  0.00  0.00    -0.299 NA
ATOM      7  N   UNL     1     -10.629  -8.529  15.194  0.00  0.00    -0.299 N 
ATOM     16  C   UNL     1      -8.383  -9.499  15.538  0.00  0.00    +0.103 C 
ATOM     17  C   UNL     1      -9.928 -10.595  14.039  0.00  0.00    +0.103 C 
ATOM     19  C   UNL     1      -9.517  -8.667  16.139  0.00  0.00    +0.123 C 
ATOM     20  C   UNL     1     -11.091  -9.789  14.614  0.00  0.00    +0.123 C 
ATOM     23  C   UNL     1     -11.318  -7.347  14.926  0.00  0.00    +0.213 C 
ATOM     25  C   UNL     1     -10.864  -6.118  15.674  0.00  0.00    +0.109 C 
ENDBRANCH  15   6
ENDBRANCH  12  15
ENDBRANCH   8  12
BRANCH   9  14
ATOM     14  C   UNL     1      -6.357 -10.959  17.983  0.00  0.00    +0.124 C 
BRANCH  14  21
ATOM      3  O   UNL     1      -5.238 -11.688  20.022  0.00  0.00    -0.251 OA
ATOM     21  C   UNL     1      -6.022 -10.947  19.449  0.00  0.00    +0.305 C 
BRANCH  21   2
ATOM      2  O   UNL     1      -6.729  -9.968  20.072  0.00  0.00    -0.481 OA
ATOM     31  H   UNL     1      -7.661 -10.234  20.228  0.00  0.00    +0.295 HD
ENDBRANCH  21   2
ENDBRANCH  14  21
ENDBRANCH   9  14
BRANCH  18  22
ATOM     22  C   UNL     1      -3.368 -11.479  12.411  0.00  0.00    +0.131 C 
BRANCH  22  24
ATOM     24  C   UNL     1      -3.931 -10.387  11.556  0.00  0.00    -0.039 A 
ATOM     26  C   UNL     1      -3.270 -10.004  10.389  0.00  0.00    +0.004 A 
ATOM     27  C   UNL     1      -5.115  -9.751  11.928  0.00  0.00    +0.004 A 
ATOM     28  C   UNL     1      -3.793  -8.986   9.593  0.00  0.00    +0.000 A 
ATOM     29  C   UNL     1      -5.639  -8.732  11.131  0.00  0.00    +0.000 A 
ATOM     30  C   UNL     1      -4.978  -8.350   9.963  0.00  0.00    +0.000 A 
ENDBRANCH  22  24
ENDBRANCH  18  22
TORSDOF 8
ENDMDL
MODEL 3
REMARK VINA RESULT:      -5.8      2.814      6.977
REMARK  Name = 28959868
REMARK  9 active torsions:
REMARK  status: ('A' for Active; 'I' for Inactive)
REMARK    1  A    between atoms: O_2  and  C_21
REMARK    2  A    between atoms: N_6  and  C_15
REMARK    3  A    between atoms: C_8  and  C_12
REMARK    4  A    between atoms: C_9  and  C_14
REMARK    5  A    between atoms: C_12  and  C_15
REMARK    6  A    between atoms: C_14  and  C_21
REMARK    7  A    between atoms: C_18  and  C_22
REMARK    8  A    between atoms: C_22  and  C_24
REMARK    9  A    between atoms: C_23  and  C_25
REMARK                            x       y       z     vdW  Elec       q    Type
REMARK                         _______ _______ _______ _____ _____    ______ ____
ROOT
ATOM      1  O   UNL     1      -7.875 -11.682  18.498  0.00  0.00    -0.275 OA
ATOM      5  N   UNL     1      -6.228 -10.566  17.297  0.00  0.00    -0.301 N 
ATOM      8  C   UNL     1      -4.494 -10.492  15.519  0.00  0.00    +0.011 C 
ATOM      9  C   UNL     1      -3.412 -10.613  16.621  0.00  0.00    +0.006 C 
ATOM     10  C   UNL     1      -5.765  -9.848  16.102  0.00  0.00    +0.111 C 
ATOM     11  C   UNL     1      -3.955 -11.325  17.872  0.00  0.00    +0.023 C 
ATOM     13  C   UNL     1      -5.240 -10.670  18.370  0.00  0.00    +0.108 C 
ATOM     18  C   UNL     1      -7.502 -11.105  17.473  0.00  0.00    +0.220 C 
ENDROOT
BRANCH   8  12
ATOM     12  C   UNL     1      -4.836 -11.821  14.834  0.00  0.00    +0.020 C 
BRANCH  12  15
ATOM     15  C   UNL     1      -4.688 -11.707  13.324  0.00  0.00    +0.085 C 
BRANCH  15   6
ATOM      4  O   UNL     1      -9.054  -8.887   9.873  0.00  0.00    -0.276 OA
ATOM      6  N   UNL     1      -5.417 -10.536  12.840  0.00  0.00    -0.299 NA
ATOM      7  N   UNL     1      -7.023  -9.051  10.989  0.00  0.00    -0.299 N 
ATOM     16  C   UNL     1      -4.842 -10.055  11.575  0.00  0.00    +0.103 C 
ATOM     17  C   UNL     1      -6.844 -10.851  12.669  0.00  0.00    +0.103 C 
ATOM     19  C   UNL     1      -5.580  -8.811  11.076  0.00  0.00    +0.123 C 
ATOM     20  C   UNL     1      -7.617  -9.621  12.197  0.00  0.00    +0.123 C 
ATOM     23  C   UNL     1      -7.840  -8.672   9.925  0.00  0.00    +0.213 C 
ATOM     25  C   UNL     1      -7.167  -7.963   8.777  0.00  0.00    +0.109 C 
ENDBRANCH  15   6
ENDBRANCH  12  15
ENDBRANCH   8  12
BRANCH   9  14
ATOM     14  C   UNL     1      -2.129 -11.283  16.133  0.00  0.00    +0.124 C 
BRANCH  14  21
ATOM      3  O   UNL     1      -1.578  -9.882  14.216  0.00  0.00    -0.251 OA
ATOM     21  C   UNL     1      -1.291 -10.345  15.309  0.00  0.00    +0.305 C 
BRANCH  21   2
ATOM      2  O   UNL     1      -0.132 -10.071  15.964  0.00  0.00    -0.481 OA
ATOM     31  H   UNL     1      -0.287  -9.536  16.772  0.00  0.00    +0.295 HD
ENDBRANCH  21   2
ENDBRANCH  14  21
ENDBRANCH   9  14
BRANCH  18  22
ATOM     22  C   UNL     1      -8.463 -10.960  16.319  0.00  0.00    +0.131 C 
BRANCH  22  24
ATOM     24  C   UNL     1      -9.494  -9.917  16.618  0.00  0.00    -0.039 A 
ATOM     26  C   UNL     1      -9.142  -8.567  16.614  0.00  0.00    +0.004 A 
ATOM     27  C   UNL     1     -10.806 -10.296  16.904  0.00  0.00    +0.004 A 
ATOM     28  C   UNL     1     -10.102  -7.596  16.894  0.00  0.00    +0.000 A 
ATOM     29  C   UNL     1     -11.766  -9.323  17.185  0.00  0.00    +0.000 A 
ATOM     30  C   UNL     1     -11.414  -7.973  17.179  0.00  0.00    +0.000 A 
ENDBRANCH  22  24
ENDBRANCH  18  22
TORSDOF 8
ENDMDL
MODEL 4
REMARK VINA RESULT:      -5.8      2.574      4.639
REMARK  Name = 28959868
REMARK  9 active torsions:
REMARK  status: ('A' for Active; 'I' for Inactive)
REMARK    1  A    between atoms: O_2  and  C_21
REMARK    2  A    between atoms: N_6  and  C_15
REMARK    3  A    between atoms: C_8  and  C_12
REMARK    4  A    between atoms: C_9  and  C_14
REMARK    5  A    between atoms: C_12  and  C_15
REMARK    6  A    between atoms: C_14  and  C_21
REMARK    7  A    between atoms: C_18  and  C_22
REMARK    8  A    between atoms: C_22  and  C_24
REMARK    9  A    between atoms: C_23  and  C_25
REMARK                            x       y       z     vdW  Elec       q    Type
REMARK                         _______ _______ _______ _____ _____    ______ ____
ROOT
ATOM      1  O   UNL     1      -1.951 -10.093  13.773  0.00  0.00    -0.275 OA
ATOM      5  N   UNL     1      -3.498 -11.311  15.006  0.00  0.00    -0.301 N 
ATOM      8  C   UNL     1      -5.809 -11.707  15.828  0.00  0.00    +0.011 C 
ATOM      9  C   UNL     1      -5.381 -11.130  17.200  0.00  0.00    +0.006 C 
ATOM     10  C   UNL     1      -4.585 -12.294  15.101  0.00  0.00    +0.111 C 
ATOM     11  C   UNL     1      -4.207 -10.145  17.058  0.00  0.00    +0.023 C 
ATOM     13  C   UNL     1      -3.048 -10.770  16.288  0.00  0.00    +0.108 C 
ATOM     18  C   UNL     1      -2.880 -10.903  13.824  0.00  0.00    +0.220 C 
ENDROOT
BRANCH   8  12
ATOM     12  C   UNL     1      -6.531 -10.698  14.925  0.00  0.00    +0.020 C 
BRANCH  12  15
ATOM     15  C   UNL     1      -8.019 -11.007  14.849  0.00  0.00    +0.085 C 
BRANCH  15   6
ATOM      4  O   UNL     1      -6.848 -11.631   8.753  0.00  0.00    -0.276 OA
ATOM      6  N   UNL     1      -8.414 -11.203  13.455  0.00  0.00    -0.299 NA
ATOM      7  N   UNL     1      -8.103 -11.027  10.612  0.00  0.00    -0.299 N 
ATOM     16  C   UNL     1      -8.550  -9.909  12.769  0.00  0.00    +0.103 C 
ATOM     17  C   UNL     1      -7.439 -12.054  12.757  0.00  0.00    +0.103 C 
ATOM     19  C   UNL     1      -8.993 -10.101  11.318  0.00  0.00    +0.123 C 
ATOM     20  C   UNL     1      -7.866 -12.290  11.308  0.00  0.00    +0.123 C 
ATOM     23  C   UNL     1      -7.597 -10.837   9.327  0.00  0.00    +0.213 C 
ATOM     25  C   UNL     1      -8.005  -9.567   8.623  0.00  0.00    +0.109 C 
ENDBRANCH  15   6
ENDBRANCH  12  15
ENDBRANCH   8  12
BRANCH   9  14
ATOM     14  C   UNL     1      -6.534 -10.487  17.969  0.00  0.00    +0.124 C 
BRANCH  14  21
ATOM      3  O   UNL     1      -5.614 -11.450  20.010  0.00  0.00    -0.251 OA
ATOM     21  C   UNL     1      -6.515 -10.871  19.422  0.00  0.00    +0.305 C 
BRANCH  21   2
ATOM      2  O   UNL     1      -7.671 -10.474  20.016  0.00  0.00    -0.481 OA
ATOM     31  H   UNL     1      -7.536 -10.245  20.960  0.00  0.00    +0.295 HD
ENDBRANCH  21   2
ENDBRANCH  14  21
ENDBRANCH   9  14
BRANCH  18  22
ATOM     22  C   UNL     1      -3.404 -11.504  12.544  0.00  0.00    +0.131 C 
BRANCH  22  24
ATOM     24  C   UNL     1      -3.877 -10.431  11.613  0.00  0.00    -0.039 A 
ATOM     26  C   UNL     1      -4.948  -9.614  11.976  0.00  0.00    +0.004 A 
ATOM     27  C   UNL     1      -3.247 -10.250  10.381  0.00  0.00    +0.004 A 
ATOM     28  C   UNL     1      -5.389  -8.616  11.108  0.00  0.00    +0.000 A 
ATOM     29  C   UNL     1      -3.689  -9.251   9.513  0.00  0.00    +0.000 A 
ATOM     30  C   UNL     1      -4.760  -8.434   9.877  0.00  0.00    +0.000 A 
ENDBRANCH  22  24
ENDBRANCH  18  22
TORSDOF 8
ENDMDL
MODEL 5
REMARK VINA RESULT:      -5.8      2.980      7.401
REMARK  Name = 28959868
REMARK  9 active torsions:
REMARK  status: ('A' for Active; 'I' for Inactive)
REMARK    1  A    between atoms: O_2  and  C_21
REMARK    2  A    between atoms: N_6  and  C_15
REMARK    3  A    between atoms: C_8  and  C_12
REMARK    4  A    between atoms: C_9  and  C_14
REMARK    5  A    between atoms: C_12  and  C_15
REMARK    6  A    between atoms: C_14  and  C_21
REMARK    7  A    between atoms: C_18  and  C_22
REMARK    8  A    between atoms: C_22  and  C_24
REMARK    9  A    between atoms: C_23  and  C_25
REMARK                            x       y       z     vdW  Elec       q    Type
REMARK                         _______ _______ _______ _____ _____    ______ ____
ROOT
ATOM      1  O   UNL     1     -10.777 -10.480  16.959  0.00  0.00    -0.275 OA
ATOM      5  N   UNL     1      -8.535 -10.147  17.466  0.00  0.00    -0.301 N 
ATOM      8  C   UNL     1      -6.123 -10.636  17.125  0.00  0.00    +0.011 C 
ATOM      9  C   UNL     1      -6.147 -11.478  18.426  0.00  0.00    +0.006 C 
ATOM     10  C   UNL     1      -7.220  -9.558  17.179  0.00  0.00    +0.111 C 
ATOM     11  C   UNL     1      -7.553 -12.032  18.715  0.00  0.00    +0.023 C 
ATOM     13  C   UNL     1      -8.600 -10.921  18.705  0.00  0.00    +0.108 C 
ATOM     18  C   UNL     1      -9.677  -9.995  16.681  0.00  0.00    +0.220 C 
ENDROOT
BRANCH   8  12
ATOM     12  C   UNL     1      -6.254 -11.468  15.842  0.00  0.00    +0.020 C 
BRANCH  12  15
ATOM     15  C   UNL     1      -6.737 -10.606  14.684  0.00  0.00    +0.085 C 
BRANCH  15   6
ATOM      4  O   UNL     1      -2.102  -9.334  10.707  0.00  0.00    -0.276 OA
ATOM      6  N   UNL     1      -5.923 -10.868  13.499  0.00  0.00    -0.299 NA
ATOM      7  N   UNL     1      -4.174 -10.175  11.338  0.00  0.00    -0.299 N 
ATOM     16  C   UNL     1      -6.428 -10.105  12.347  0.00  0.00    +0.103 C 
ATOM     17  C   UNL     1      -4.514 -10.536  13.756  0.00  0.00    +0.103 C 
ATOM     19  C   UNL     1      -5.602 -10.395  11.093  0.00  0.00    +0.123 C 
ATOM     20  C   UNL     1      -3.653 -10.840  12.531  0.00  0.00    +0.123 C 
ATOM     23  C   UNL     1      -3.302  -9.507  10.478  0.00  0.00    +0.213 C 
ATOM     25  C   UNL     1      -3.895  -8.971   9.200  0.00  0.00    +0.109 C 
ENDBRANCH  15   6
ENDBRANCH  12  15
ENDBRANCH   8  12
BRANCH   9  14
ATOM     14  C   UNL     1      -5.113 -12.602  18.434  0.00  0.00    +0.124 C 
BRANCH  14  21
ATOM      3  O   UNL     1      -3.293 -12.136  19.988  0.00  0.00    -0.251 OA
ATOM     21  C   UNL     1      -3.758 -12.106  18.858  0.00  0.00    +0.305 C 
BRANCH  21   2
ATOM      2  O   UNL     1      -3.097 -11.604  17.783  0.00  0.00    -0.481 OA
ATOM     31  H   UNL     1      -3.396 -10.696  17.561  0.00  0.00    +0.295 HD
ENDBRANCH  21   2
ENDBRANCH  14  21
ENDBRANCH   9  14
BRANCH  18  22
ATOM     22  C   UNL     1      -9.526  -9.185  15.418  0.00  0.00    +0.131 C 
BRANCH  22  24
ATOM     24  C   UNL     1     -10.523  -8.069  15.386  0.00  0.00    -0.039 A 
ATOM     26  C   UNL     1     -11.536  -8.065  14.426  0.00  0.00    +0.004 A 
ATOM     27  C   UNL     1     -10.438  -7.031  16.314  0.00  0.00    +0.004 A 
ATOM     28  C   UNL     1     -12.464  -7.025  14.395  0.00  0.00    +0.000 A 
ATOM     29  C   UNL     1     -11.366  -5.990  16.283  0.00  0.00    +0.000 A 
ATOM     30  C   UNL     1     -12.379  -5.988  15.324  0.00  0.00    +0.000 A 
ENDBRANCH  22  24
ENDBRANCH  18  22
TORSDOF 8
ENDMDL
MODEL 6
REMARK VINA RESULT:      -5.7     25.411     28.048
REMARK  Name = 28959868
REMARK  9 active torsions:
REMARK  status: ('A' for Active; 'I' for Inactive)
REMARK    1  A    between atoms: O_2  and  C_21
REMARK    2  A    between atoms: N_6  and  C_15
REMARK    3  A    between atoms: C_8  and  C_12
REMARK    4  A    between atoms: C_9  and  C_14
REMARK    5  A    between atoms: C_12  and  C_15
REMARK    6  A    between atoms: C_14  and  C_21
REMARK    7  A    between atoms: C_18  and  C_22
REMARK    8  A    between atoms: C_22  and  C_24
REMARK    9  A    between atoms: C_23  and  C_25
REMARK                            x       y       z     vdW  Elec       q    Type
REMARK                         _______ _______ _______ _____ _____    ______ ____
ROOT
ATOM      1  O   UNL     1      13.433   9.394   6.943  0.00  0.00    -0.275 OA
ATOM      5  N   UNL     1      11.845   7.701   7.040  0.00  0.00    -0.301 N 
ATOM      8  C   UNL     1      10.422   5.978   5.955  0.00  0.00    +0.011 C 
ATOM      9  C   UNL     1       9.211   6.931   6.113  0.00  0.00    +0.006 C 
ATOM     10  C   UNL     1      11.472   6.281   7.039  0.00  0.00    +0.111 C 
ATOM     11  C   UNL     1       9.652   8.404   6.162  0.00  0.00    +0.023 C 
ATOM     13  C   UNL     1      10.728   8.627   7.221  0.00  0.00    +0.108 C 
ATOM     18  C   UNL     1      13.143   8.196   6.913  0.00  0.00    +0.220 C 
ENDROOT
BRANCH   8  12
ATOM     12  C   UNL     1      11.067   6.017   4.563  0.00  0.00    +0.020 C 
BRANCH  12  15
ATOM     15  C   UNL     1      10.875   4.692   3.839  0.00  0.00    +0.085 C 
BRANCH  15   6
ATOM      4  O   UNL     1      10.214   3.872  -2.310  0.00  0.00    -0.276 OA
ATOM      6  N   UNL     1      11.309   4.819   2.449  0.00  0.00    -0.299 NA
ATOM      7  N   UNL     1      11.397   4.109  -0.326  0.00  0.00    -0.299 N 
ATOM     16  C   UNL     1      12.010   3.602   2.014  0.00  0.00    +0.103 C 
ATOM     17  C   UNL     1      10.161   5.091   1.571  0.00  0.00    +0.103 C 
ATOM     19  C   UNL     1      12.496   3.736   0.569  0.00  0.00    +0.123 C 
ATOM     20  C   UNL     1      10.614   5.259   0.122  0.00  0.00    +0.123 C 
ATOM     23  C   UNL     1      11.147   3.541  -1.574  0.00  0.00    +0.213 C 
ATOM     25  C   UNL     1      12.090   2.453  -2.022  0.00  0.00    +0.109 C 
ENDBRANCH  15   6
ENDBRANCH  12  15
ENDBRANCH   8  12
BRANCH   9  14
ATOM     14  C   UNL     1       8.139   6.724   5.046  0.00  0.00    +0.124 C 
BRANCH  14  21
ATOM      3  O   UNL     1       8.665   8.037   3.061  0.00  0.00    -0.251 OA
ATOM     21  C   UNL     1       8.053   7.897   4.109  0.00  0.00    +0.305 C 
BRANCH  21   2
ATOM      2  O   UNL     1       7.176   8.811   4.599  0.00  0.00    -0.481 OA
ATOM     31  H   UNL     1       7.369   9.716   4.271  0.00  0.00    +0.295 HD
ENDBRANCH  21   2
ENDBRANCH  14  21
ENDBRANCH   9  14
BRANCH  18  22
ATOM     22  C   UNL     1      14.240   7.177   6.727  0.00  0.00    +0.131 C 
BRANCH  22  24
ATOM     24  C   UNL     1      15.115   7.550   5.571  0.00  0.00    -0.039 A 
ATOM     26  C   UNL     1      16.360   8.137   5.799  0.00  0.00    +0.004 A 
ATOM     27  C   UNL     1      14.684   7.313   4.266  0.00  0.00    +0.004 A 
ATOM     28  C   UNL     1      17.175   8.485   4.723  0.00  0.00    +0.000 A 
ATOM     29  C   UNL     1      15.499   7.662   3.189  0.00  0.00    +0.000 A 
ATOM     30  C   UNL     1      16.745   8.247   3.417  0.00  0.00    +0.000 A 
ENDBRANCH  22  24
ENDBRANCH  18  22
TORSDOF 8
ENDMDL
MODEL 7
REMARK VINA RESULT:      -5.6      3.212      8.420
REMARK  Name = 28959868
REMARK  9 active torsions:
REMARK  status: ('A' for Active; 'I' for Inactive)
REMARK    1  A    between atoms: O_2  and  C_21
REMARK    2  A    between atoms: N_6  and  C_15
REMARK    3  A    between atoms: C_8  and  C_12
REMARK    4  A    between atoms: C_9  and  C_14
REMARK    5  A    between atoms: C_12  and  C_15
REMARK    6  A    between atoms: C_14  and  C_21
REMARK    7  A    between atoms: C_18  and  C_22
REMARK    8  A    between atoms: C_22  and  C_24
REMARK    9  A    between atoms: C_23  and  C_25
REMARK                            x       y       z     vdW  Elec       q    Type
REMARK                         _______ _______ _______ _____ _____    ______ ____
ROOT
ATOM      1  O   UNL     1      -8.549 -10.640  19.766  0.00  0.00    -0.275 OA
ATOM      5  N   UNL     1      -9.909 -10.624  17.883  0.00  0.00    -0.301 N 
ATOM      8  C   UNL     1     -10.332 -10.061  15.500  0.00  0.00    +0.011 C 
ATOM      9  C   UNL     1     -11.214  -8.878  15.974  0.00  0.00    +0.006 C 
ATOM     10  C   UNL     1     -10.309 -11.162  16.576  0.00  0.00    +0.111 C 
ATOM     11  C   UNL     1     -10.792  -8.381  17.367  0.00  0.00    +0.023 C 
ATOM     13  C   UNL     1     -10.742  -9.527  18.374  0.00  0.00    +0.108 C 
ATOM     18  C   UNL     1      -8.849 -11.093  18.659  0.00  0.00    +0.220 C 
ENDROOT
BRANCH   8  12
ATOM     12  C   UNL     1      -8.901  -9.658  15.120  0.00  0.00    +0.020 C 
BRANCH  12  15
ATOM     15  C   UNL     1      -8.593 -10.042  13.680  0.00  0.00    +0.085 C 
BRANCH  15   6
ATOM      4  O   UNL     1      -3.640  -9.779   9.896  0.00  0.00    -0.276 OA
ATOM      6  N   UNL     1      -7.213  -9.683  13.355  0.00  0.00    -0.299 NA
ATOM      7  N   UNL     1      -4.730  -9.904  11.943  0.00  0.00    -0.299 N 
ATOM     16  C   UNL     1      -6.311 -10.816  13.609  0.00  0.00    +0.103 C 
ATOM     17  C   UNL     1      -7.110  -9.247  11.954  0.00  0.00    +0.103 C 
ATOM     19  C   UNL     1      -4.860 -10.441  13.301  0.00  0.00    +0.123 C 
ATOM     20  C   UNL     1      -5.676  -8.838  11.619  0.00  0.00    +0.123 C 
ATOM     23  C   UNL     1      -3.728 -10.244  11.035  0.00  0.00    +0.213 C 
ATOM     25  C   UNL     1      -2.708 -11.251  11.502  0.00  0.00    +0.109 C 
ENDBRANCH  15   6
ENDBRANCH  12  15
ENDBRANCH   8  12
BRANCH   9  14
ATOM     14  C   UNL     1     -11.254  -7.722  14.977  0.00  0.00    +0.124 C 
BRANCH  14  21
ATOM      3  O   UNL     1     -12.877  -6.202  15.975  0.00  0.00    -0.251 OA
ATOM     21  C   UNL     1     -11.735  -6.451  15.621  0.00  0.00    +0.305 C 
BRANCH  21   2
ATOM      2  O   UNL     1     -10.696  -5.586  15.760  0.00  0.00    -0.481 OA
ATOM     31  H   UNL     1     -10.271  -5.664  16.640  0.00  0.00    +0.295 HD
ENDBRANCH  21   2
ENDBRANCH  14  21
ENDBRANCH   9  14
BRANCH  18  22
ATOM     22  C   UNL     1      -8.036 -12.224  18.080  0.00  0.00    +0.131 C 
BRANCH  22  24
ATOM     24  C   UNL     1      -6.589 -11.847  18.004  0.00  0.00    -0.039 A 
ATOM     26  C   UNL     1      -6.181 -10.812  17.162  0.00  0.00    +0.004 A 
ATOM     27  C   UNL     1      -5.649 -12.533  18.772  0.00  0.00    +0.004 A 
ATOM     28  C   UNL     1      -4.834 -10.462  17.089  0.00  0.00    +0.000 A 
ATOM     29  C   UNL     1      -4.300 -12.182  18.700  0.00  0.00    +0.000 A 
ATOM     30  C   UNL     1      -3.893 -11.146  17.858  0.00  0.00    +0.000 A 
ENDBRANCH  22  24
ENDBRANCH  18  22
TORSDOF 8
ENDMDL
MODEL 8
REMARK VINA RESULT:      -5.6     27.856     30.420
REMARK  Name = 28959868
REMARK  9 active torsions:
REMARK  status: ('A' for Active; 'I' for Inactive)
REMARK    1  A    between atoms: O_2  and  C_21
REMARK    2  A    between atoms: N_6  and  C_15
REMARK    3  A    between atoms: C_8  and  C_12
REMARK    4  A    between atoms: C_9  and  C_14
REMARK    5  A    between atoms: C_12  and  C_15
REMARK    6  A    between atoms: C_14  and  C_21
REMARK    7  A    between atoms: C_18  and  C_22
REMARK    8  A    between atoms: C_22  and  C_24
REMARK    9  A    between atoms: C_23  and  C_25
REMARK                            x       y       z     vdW  Elec       q    Type
REMARK                         _______ _______ _______ _____ _____    ______ ____
ROOT
ATOM      1  O   UNL     1      13.320  13.442  18.154  0.00  0.00    -0.275 OA
ATOM      5  N   UNL     1      13.452  12.739  20.364  0.00  0.00    -0.301 N 
ATOM      8  C   UNL     1      12.857  11.169  22.196  0.00  0.00    +0.011 C 
ATOM      9  C   UNL     1      11.873  12.235  22.740  0.00  0.00    +0.006 C 
ATOM     10  C   UNL     1      13.988  11.854  21.407  0.00  0.00    +0.111 C 
ATOM     11  C   UNL     1      11.378  13.171  21.625  0.00  0.00    +0.023 C 
ATOM     13  C   UNL     1      12.545  13.778  20.851  0.00  0.00    +0.108 C 
ATOM     18  C   UNL     1      13.764  12.669  19.007  0.00  0.00    +0.220 C 
ENDROOT
BRANCH   8  12
ATOM     12  C   UNL     1      12.189  10.086  21.338  0.00  0.00    +0.020 C 
BRANCH  12  15
ATOM     15  C   UNL     1      12.813   8.723  21.601  0.00  0.00    +0.085 C 
BRANCH  15   6
ATOM      4  O   UNL     1      16.958   5.352  18.380  0.00  0.00    -0.276 OA
ATOM      6  N   UNL     1      14.014   8.562  20.784  0.00  0.00    -0.299 NA
ATOM      7  N   UNL     1      16.244   7.135  19.686  0.00  0.00    -0.299 N 
ATOM     16  C   UNL     1      15.172   8.226  21.627  0.00  0.00    +0.103 C 
ATOM     17  C   UNL     1      13.807   7.526  19.760  0.00  0.00    +0.103 C 
ATOM     19  C   UNL     1      16.441   8.085  20.785  0.00  0.00    +0.123 C 
ATOM     20  C   UNL     1      15.048   7.377  18.881  0.00  0.00    +0.123 C 
ATOM     23  C   UNL     1      17.147   6.142  19.308  0.00  0.00    +0.213 C 
ATOM     25  C   UNL     1      18.422   6.050  20.107  0.00  0.00    +0.109 C 
ENDBRANCH  15   6
ENDBRANCH  12  15
ENDBRANCH   8  12
BRANCH   9  14
ATOM     14  C   UNL     1      10.694  11.632  23.502  0.00  0.00    +0.124 C 
BRANCH  14  21
ATOM      3  O   UNL     1      10.474  12.651  25.704  0.00  0.00    -0.251 OA
ATOM     21  C   UNL     1      10.877  11.746  24.990  0.00  0.00    +0.305 C 
BRANCH  21   2
ATOM      2  O   UNL     1      11.572  10.673  25.449  0.00  0.00    -0.481 OA
ATOM     31  H   UNL     1      12.332  10.943  26.010  0.00  0.00    +0.295 HD
ENDBRANCH  21   2
ENDBRANCH  14  21
ENDBRANCH   9  14
BRANCH  18  22
ATOM     22  C   UNL     1      14.704  11.567  18.585  0.00  0.00    +0.131 C 
BRANCH  22  24
ATOM     24  C   UNL     1      16.065  12.118  18.295  0.00  0.00    -0.039 A 
ATOM     26  C   UNL     1      17.009  12.219  19.317  0.00  0.00    +0.004 A 
ATOM     27  C   UNL     1      16.389  12.531  17.002  0.00  0.00    +0.004 A 
ATOM     28  C   UNL     1      18.277  12.733  19.047  0.00  0.00    +0.000 A 
ATOM     29  C   UNL     1      17.657  13.046  16.733  0.00  0.00    +0.000 A 
ATOM     30  C   UNL     1      18.601  13.146  17.755  0.00  0.00    +0.000 A 
ENDBRANCH  22  24
ENDBRANCH  18  22
TORSDOF 8
ENDMDL
MODEL 9
REMARK VINA RESULT:      -5.6     25.213     28.750
REMARK  Name = 28959868
REMARK  9 active torsions:
REMARK  status: ('A' for Active; 'I' for Inactive)
REMARK    1  A    between atoms: O_2  and  C_21
REMARK    2  A    between atoms: N_6  and  C_15
REMARK    3  A    between atoms: C_8  and  C_12
REMARK    4  A    between atoms: C_9  and  C_14
REMARK    5  A    between atoms: C_12  and  C_15
REMARK    6  A    between atoms: C_14  and  C_21
REMARK    7  A    between atoms: C_18  and  C_22
REMARK    8  A    between atoms: C_22  and  C_24
REMARK    9  A    between atoms: C_23  and  C_25
REMARK                            x       y       z     vdW  Elec       q    Type
REMARK                         _______ _______ _______ _____ _____    ______ ____
ROOT
ATOM      1  O   UNL     1       9.833   3.973   1.318  0.00  0.00    -0.275 OA
ATOM      5  N   UNL     1      12.116   3.774   0.937  0.00  0.00    -0.301 N 
ATOM      8  C   UNL     1      14.355   4.768   0.519  0.00  0.00    +0.011 C 
ATOM      9  C   UNL     1      14.214   4.369  -0.971  0.00  0.00    +0.006 C 
ATOM     10  C   UNL     1      13.510   3.825   1.396  0.00  0.00    +0.111 C 
ATOM     11  C   UNL     1      12.738   4.277  -1.395  0.00  0.00    +0.023 C 
ATOM     13  C   UNL     1      11.947   3.369  -0.458  0.00  0.00    +0.108 C 
ATOM     18  C   UNL     1      10.997   4.049   1.721  0.00  0.00    +0.220 C 
ENDROOT
BRANCH   8  12
ATOM     12  C   UNL     1      13.995   6.231   0.809  0.00  0.00    +0.020 C 
BRANCH  12  15
ATOM     15  C   UNL     1      15.191   6.981   1.378  0.00  0.00    +0.085 C 
BRANCH  15   6
ATOM      4  O   UNL     1      13.668   6.522   7.410  0.00  0.00    -0.276 OA
ATOM      6  N   UNL     1      14.851   7.537   2.686  0.00  0.00    -0.299 NA
ATOM      7  N   UNL     1      13.691   7.506   5.306  0.00  0.00    -0.299 N 
ATOM     16  C   UNL     1      13.392   7.605   2.856  0.00  0.00    +0.103 C 
ATOM     17  C   UNL     1      15.455   6.736   3.761  0.00  0.00    +0.103 C 
ATOM     19  C   UNL     1      13.025   8.215   4.210  0.00  0.00    +0.123 C 
ATOM     20  C   UNL     1      15.131   7.333   5.130  0.00  0.00    +0.123 C 
ATOM     23  C   UNL     1      13.086   7.119   6.501  0.00  0.00    +0.213 C 
ATOM     25  C   UNL     1      11.626   7.461   6.659  0.00  0.00    +0.109 C 
ENDBRANCH  15   6
ENDBRANCH  12  15
ENDBRANCH   8  12
BRANCH   9  14
ATOM     14  C   UNL     1      14.990   5.285  -1.915  0.00  0.00    +0.124 C 
BRANCH  14  21
ATOM      3  O   UNL     1      17.195   4.343  -1.477  0.00  0.00    -0.251 OA
ATOM     21  C   UNL     1      16.336   4.712  -2.263  0.00  0.00    +0.305 C 
BRANCH  21   2
ATOM      2  O   UNL     1      16.475   4.658  -3.614  0.00  0.00    -0.481 OA
ATOM     31  H   UNL     1      17.371   4.359  -3.877  0.00  0.00    +0.295 HD
ENDBRANCH  21   2
ENDBRANCH  14  21
ENDBRANCH   9  14
BRANCH  18  22
ATOM     22  C   UNL     1      11.256   4.463   3.148  0.00  0.00    +0.131 C 
BRANCH  22  24
ATOM     24  C   UNL     1      10.204   5.419   3.619  0.00  0.00    -0.039 A 
ATOM     26  C   UNL     1       9.498   5.157   4.793  0.00  0.00    +0.004 A 
ATOM     27  C   UNL     1       9.929   6.571   2.882  0.00  0.00    +0.004 A 
ATOM     28  C   UNL     1       8.518   6.046   5.231  0.00  0.00    +0.000 A 
ATOM     29  C   UNL     1       8.948   7.461   3.320  0.00  0.00    +0.000 A 
ATOM     30  C   UNL     1       8.243   7.198   4.495  0.00  0.00    +0.000 A 
ENDBRANCH  22  24
ENDBRANCH  18  22
TORSDOF 8
ENDMDL
MODEL 10
REMARK VINA RESULT:      -5.6     21.059     23.342
REMARK  Name = 28959868
REMARK  9 active torsions:
REMARK  status: ('A' for Active; 'I' for Inactive)
REMARK    1  A    between atoms: O_2  and  C_21
REMARK    2  A    between atoms: N_6  and  C_15
REMARK    3  A    between atoms: C_8  and  C_12
REMARK    4  A    between atoms: C_9  and  C_14
REMARK    5  A    between atoms: C_12  and  C_15
REMARK    6  A    between atoms: C_14  and  C_21
REMARK    7  A    between atoms: C_18  and  C_22
REMARK    8  A    between atoms: C_22  and  C_24
REMARK    9  A    between atoms: C_23  and  C_25
REMARK                            x       y       z     vdW  Elec       q    Type
REMARK                         _______ _______ _______ _____ _____    ______ ____
ROOT
ATOM      1  O   UNL     1      -0.411  12.010   3.220  0.00  0.00    -0.275 OA
ATOM      5  N   UNL     1      -1.017  10.666   5.016  0.00  0.00    -0.301 N 
ATOM      8  C   UNL     1      -2.670   9.272   6.240  0.00  0.00    +0.011 C 
ATOM      9  C   UNL     1      -2.872  10.446   7.231  0.00  0.00    +0.006 C 
ATOM     10  C   UNL     1      -1.264   9.349   5.617  0.00  0.00    +0.111 C 
ATOM     11  C   UNL     1      -2.552  11.801   6.576  0.00  0.00    +0.023 C 
ATOM     13  C   UNL     1      -1.168  11.794   5.935  0.00  0.00    +0.108 C 
ATOM     18  C   UNL     1      -0.638  10.893   3.694  0.00  0.00    +0.220 C 
ENDROOT
BRANCH   8  12
ATOM     12  C   UNL     1      -3.737   9.195   5.141  0.00  0.00    +0.020 C 
BRANCH  12  15
ATOM     15  C   UNL     1      -4.224   7.764   4.956  0.00  0.00    +0.085 C 
BRANCH  15   6
ATOM      4  O   UNL     1     -10.401   8.359   5.598  0.00  0.00    -0.276 OA
ATOM      6  N   UNL     1      -5.596   7.768   4.453  0.00  0.00    -0.299 NA
ATOM      7  N   UNL     1      -8.444   7.533   4.657  0.00  0.00    -0.299 N 
ATOM     16  C   UNL     1      -6.222   6.452   4.649  0.00  0.00    +0.103 C 
ATOM     17  C   UNL     1      -6.386   8.817   5.115  0.00  0.00    +0.103 C 
ATOM     19  C   UNL     1      -7.649   6.436   4.098  0.00  0.00    +0.123 C 
ATOM     20  C   UNL     1      -7.813   8.848   4.567  0.00  0.00    +0.123 C 
ATOM     23  C   UNL     1      -9.751   7.420   5.130  0.00  0.00    +0.213 C 
ATOM     25  C   UNL     1     -10.379   6.051   5.058  0.00  0.00    +0.109 C 
ENDBRANCH  15   6
ENDBRANCH  12  15
ENDBRANCH   8  12
BRANCH   9  14
ATOM     14  C   UNL     1      -4.262  10.467   7.863  0.00  0.00    +0.124 C 
BRANCH  14  21
ATOM      3  O   UNL     1      -4.092  11.973   9.772  0.00  0.00    -0.251 OA
ATOM     21  C   UNL     1      -4.205  10.845   9.317  0.00  0.00    +0.305 C 
BRANCH  21   2
ATOM      2  O   UNL     1      -4.300   9.728  10.085  0.00  0.00    -0.481 OA
ATOM     31  H   UNL     1      -5.224   9.403  10.146  0.00  0.00    +0.295 HD
ENDBRANCH  21   2
ENDBRANCH  14  21
ENDBRANCH   9  14
BRANCH  18  22
ATOM     22  C   UNL     1      -0.508   9.678   2.810  0.00  0.00    +0.131 C 
BRANCH  22  24
ATOM     24  C   UNL     1      -1.481   9.745   1.675  0.00  0.00    -0.039 A 
ATOM     26  C   UNL     1      -2.812  10.088   1.916  0.00  0.00    +0.004 A 
ATOM     27  C   UNL     1      -1.058   9.464   0.376  0.00  0.00    +0.004 A 
ATOM     28  C   UNL     1      -3.719  10.150   0.859  0.00  0.00    +0.000 A 
ATOM     29  C   UNL     1      -1.966   9.525  -0.682  0.00  0.00    +0.000 A 
ATOM     30  C   UNL     1      -3.296   9.869  -0.440  0.00  0.00    +0.000 A 
ENDBRANCH  22  24
ENDBRANCH  18  22
TORSDOF 8
ENDMDL
