MODEL 1
REMARK VINA RESULT:      -6.9      0.000      0.000
REMARK  Name = 51136972
REMARK  8 active torsions:
REMARK  status: ('A' for Active; 'I' for Inactive)
REMARK    1  A    between atoms: O_3  and  C_11
REMARK    2  A    between atoms: O_4  and  C_18
REMARK    3  A    between atoms: N_6  and  C_9
REMARK    4  A    between atoms: N_7  and  C_19
REMARK    5  A    between atoms: N_8  and  C_15
REMARK    6  A    between atoms: C_10  and  C_15
REMARK    7  A    between atoms: C_12  and  C_18
REMARK    8  A    between atoms: C_20  and  C_23
REMARK                            x       y       z     vdW  Elec       q    Type
REMARK                         _______ _______ _______ _____ _____    ______ ____
ROOT
ATOM      2  O   UNL     1     -10.315 -11.599  17.502  0.00  0.00    -0.365 OA
ATOM      9  C   UNL     1     -11.530  -9.700  16.736  0.00  0.00    +0.118 C 
ATOM     10  C   UNL     1     -10.664 -10.887  16.293  0.00  0.00    +0.155 C 
ATOM     11  C   UNL     1     -11.075  -9.457  18.166  0.00  0.00    +0.165 C 
ATOM     12  C   UNL     1     -10.849 -10.890  18.637  0.00  0.00    +0.174 C 
ENDROOT
BRANCH   9   6
ATOM      6  N   UNL     1     -11.510  -8.533  15.872  0.00  0.00    -0.292 NA
ATOM      7  N   UNL     1     -12.638  -6.407  14.334  0.00  0.00    -0.327 N 
ATOM     13  C   UNL     1     -12.141  -7.387  16.538  0.00  0.00    +0.104 C 
ATOM     14  C   UNL     1     -12.198  -8.817  14.607  0.00  0.00    +0.104 C 
ATOM     16  C   UNL     1     -12.075  -6.135  15.660  0.00  0.00    +0.120 C 
ATOM     17  C   UNL     1     -12.134  -7.613  13.664  0.00  0.00    +0.120 C 
BRANCH   7  19
ATOM     19  C   UNL     1     -13.075  -5.345  13.534  0.00  0.00    +0.030 A 
ATOM     21  C   UNL     1     -14.435  -5.047  13.452  0.00  0.00    +0.023 A 
ATOM     22  C   UNL     1     -12.149  -4.585  12.820  0.00  0.00    +0.023 A 
ATOM     24  C   UNL     1     -14.870  -3.988  12.655  0.00  0.00    +0.002 A 
ATOM     25  C   UNL     1     -12.585  -3.526  12.022  0.00  0.00    +0.002 A 
ATOM     26  C   UNL     1     -13.944  -3.228  11.940  0.00  0.00    +0.000 A 
ENDBRANCH   7  19
ENDBRANCH   9   6
BRANCH  11   3
ATOM      3  O   UNL     1      -9.857  -8.725  18.208  0.00  0.00    -0.388 OA
ATOM     32  H   UNL     1      -9.981  -7.981  18.821  0.00  0.00    +0.210 HD
ENDBRANCH  11   3
BRANCH  10  15
ATOM     15  C   UNL     1      -9.362 -10.552  15.575  0.00  0.00    +0.137 C 
BRANCH  15   8
ATOM      5  O   UNL     1      -7.358  -8.879  16.770  0.00  0.00    -0.270 OA
ATOM      8  N   UNL     1      -8.228 -10.986  16.335  0.00  0.00    -0.309 N 
ATOM     20  C   UNL     1      -7.302 -10.102  16.881  0.00  0.00    +0.246 C 
ATOM     33  H   UNL     1      -8.109 -11.985  16.484  0.00  0.00    +0.149 HD
BRANCH  20  23
ATOM      1 CL   UNL     1      -4.634 -10.494  15.374  0.00  0.00    -0.083 Cl
ATOM     23  C   UNL     1      -6.166 -10.712  17.621  0.00  0.00    +0.055 A 
ATOM     27  C   UNL     1      -4.926 -10.926  17.020  0.00  0.00    +0.053 A 
ATOM     28  C   UNL     1      -6.368 -11.072  18.953  0.00  0.00    +0.014 A 
ATOM     29  C   UNL     1      -3.887 -11.500  17.752  0.00  0.00    +0.021 A 
ATOM     30  C   UNL     1      -5.329 -11.646  19.685  0.00  0.00    +0.001 A 
ATOM     31  C   UNL     1      -4.088 -11.861  19.085  0.00  0.00    +0.001 A 
ENDBRANCH  20  23
ENDBRANCH  15   8
ENDBRANCH  10  15
BRANCH  12  18
ATOM     18  C   UNL     1      -9.906 -11.049  19.815  0.00  0.00    +0.190 C 
BRANCH  18   4
ATOM      4  O   UNL     1     -10.213 -10.059  20.784  0.00  0.00    -0.392 OA
ATOM     34  H   UNL     1     -11.148 -10.173  21.023  0.00  0.00    +0.210 HD
ENDBRANCH  18   4
ENDBRANCH  12  18
TORSDOF 8
ENDMDL
MODEL 2
REMARK VINA RESULT:      -6.9     16.043     18.807
REMARK  Name = 51136972
REMARK  8 active torsions:
REMARK  status: ('A' for Active; 'I' for Inactive)
REMARK    1  A    between atoms: O_3  and  C_11
REMARK    2  A    between atoms: O_4  and  C_18
REMARK    3  A    between atoms: N_6  and  C_9
REMARK    4  A    between atoms: N_7  and  C_19
REMARK    5  A    between atoms: N_8  and  C_15
REMARK    6  A    between atoms: C_10  and  C_15
REMARK    7  A    between atoms: C_12  and  C_18
REMARK    8  A    between atoms: C_20  and  C_23
REMARK                            x       y       z     vdW  Elec       q    Type
REMARK                         _______ _______ _______ _____ _____    ______ ____
ROOT
ATOM      2  O   UNL     1     -17.466   3.487  23.697  0.00  0.00    -0.365 OA
ATOM      9  C   UNL     1     -17.391   3.070  26.040  0.00  0.00    +0.118 C 
ATOM     10  C   UNL     1     -16.774   3.891  24.900  0.00  0.00    +0.155 C 
ATOM     11  C   UNL     1     -17.907   1.830  25.330  0.00  0.00    +0.165 C 
ATOM     12  C   UNL     1     -18.400   2.439  24.022  0.00  0.00    +0.174 C 
ENDROOT
BRANCH   9   6
ATOM      6  N   UNL     1     -16.535   2.818  27.186  0.00  0.00    -0.292 NA
ATOM      7  N   UNL     1     -15.894   2.568  29.957  0.00  0.00    -0.327 N 
ATOM     13  C   UNL     1     -17.039   1.681  27.966  0.00  0.00    +0.104 C 
ATOM     14  C   UNL     1     -16.449   4.010  28.038  0.00  0.00    +0.104 C 
ATOM     16  C   UNL     1     -16.114   1.368  29.144  0.00  0.00    +0.120 C 
ATOM     17  C   UNL     1     -15.503   3.774  29.218  0.00  0.00    +0.120 C 
BRANCH   7  19
ATOM     19  C   UNL     1     -15.458   2.438  31.281  0.00  0.00    +0.030 A 
ATOM     21  C   UNL     1     -15.042   1.195  31.760  0.00  0.00    +0.023 A 
ATOM     22  C   UNL     1     -15.441   3.550  32.122  0.00  0.00    +0.023 A 
ATOM     24  C   UNL     1     -14.607   1.066  33.079  0.00  0.00    +0.002 A 
ATOM     25  C   UNL     1     -15.007   3.421  33.442  0.00  0.00    +0.002 A 
ATOM     26  C   UNL     1     -14.590   2.179  33.920  0.00  0.00    +0.000 A 
ENDBRANCH   7  19
ENDBRANCH   9   6
BRANCH  11   3
ATOM      3  O   UNL     1     -16.862   0.900  25.079  0.00  0.00    -0.388 OA
ATOM     32  H   UNL     1     -16.428   1.160  24.250  0.00  0.00    +0.210 HD
ENDBRANCH  11   3
BRANCH  10  15
ATOM     15  C   UNL     1     -15.283   3.698  24.649  0.00  0.00    +0.137 C 
BRANCH  15   8
ATOM      5  O   UNL     1     -15.173   4.315  21.847  0.00  0.00    -0.270 OA
ATOM      8  N   UNL     1     -14.706   4.865  24.052  0.00  0.00    -0.309 N 
ATOM     20  C   UNL     1     -14.696   5.085  22.677  0.00  0.00    +0.246 C 
ATOM     33  H   UNL     1     -14.295   5.561  24.669  0.00  0.00    +0.149 HD
BRANCH  20  23
ATOM      1 CL   UNL     1     -16.027   7.781  23.385  0.00  0.00    -0.083 Cl
ATOM     23  C   UNL     1     -14.035   6.332  22.214  0.00  0.00    +0.055 A 
ATOM     27  C   UNL     1     -14.564   7.593  22.488  0.00  0.00    +0.053 A 
ATOM     28  C   UNL     1     -12.850   6.216  21.487  0.00  0.00    +0.014 A 
ATOM     29  C   UNL     1     -13.909   8.738  22.035  0.00  0.00    +0.021 A 
ATOM     30  C   UNL     1     -12.195   7.360  21.034  0.00  0.00    +0.001 A 
ATOM     31  C   UNL     1     -12.724   8.622  21.308  0.00  0.00    +0.001 A 
ENDBRANCH  20  23
ENDBRANCH  15   8
ENDBRANCH  10  15
BRANCH  12  18
ATOM     18  C   UNL     1     -18.502   1.479  22.851  0.00  0.00    +0.190 C 
BRANCH  18   4
ATOM      4  O   UNL     1     -17.232   1.385  22.224  0.00  0.00    -0.392 OA
ATOM     34  H   UNL     1     -17.187   0.511  21.799  0.00  0.00    +0.210 HD
ENDBRANCH  18   4
ENDBRANCH  12  18
TORSDOF 8
ENDMDL
MODEL 3
REMARK VINA RESULT:      -6.3     15.527     18.110
REMARK  Name = 51136972
REMARK  8 active torsions:
REMARK  status: ('A' for Active; 'I' for Inactive)
REMARK    1  A    between atoms: O_3  and  C_11
REMARK    2  A    between atoms: O_4  and  C_18
REMARK    3  A    between atoms: N_6  and  C_9
REMARK    4  A    between atoms: N_7  and  C_19
REMARK    5  A    between atoms: N_8  and  C_15
REMARK    6  A    between atoms: C_10  and  C_15
REMARK    7  A    between atoms: C_12  and  C_18
REMARK    8  A    between atoms: C_20  and  C_23
REMARK                            x       y       z     vdW  Elec       q    Type
REMARK                         _______ _______ _______ _____ _____    ______ ____
ROOT
ATOM      2  O   UNL     1     -17.729   4.345  22.062  0.00  0.00    -0.365 OA
ATOM      9  C   UNL     1     -17.696   3.340  24.221  0.00  0.00    +0.118 C 
ATOM     10  C   UNL     1     -17.074   4.438  23.347  0.00  0.00    +0.155 C 
ATOM     11  C   UNL     1     -18.166   2.316  23.201  0.00  0.00    +0.165 C 
ATOM     12  C   UNL     1     -18.644   3.233  22.080  0.00  0.00    +0.174 C 
ENDROOT
BRANCH   9   6
ATOM      6  N   UNL     1     -16.861   2.816  25.286  0.00  0.00    -0.292 NA
ATOM      7  N   UNL     1     -16.217   2.062  27.964  0.00  0.00    -0.327 N 
ATOM     13  C   UNL     1     -17.481   1.633  25.895  0.00  0.00    +0.104 C 
ATOM     14  C   UNL     1     -16.629   3.842  26.311  0.00  0.00    +0.104 C 
ATOM     16  C   UNL     1     -16.583   1.038  26.981  0.00  0.00    +0.120 C 
ATOM     17  C   UNL     1     -15.701   3.320  27.411  0.00  0.00    +0.120 C 
BRANCH   7  19
ATOM     19  C   UNL     1     -15.783   1.676  29.238  0.00  0.00    +0.030 A 
ATOM     21  C   UNL     1     -15.566   0.328  29.523  0.00  0.00    +0.023 A 
ATOM     22  C   UNL     1     -15.567   2.641  30.222  0.00  0.00    +0.023 A 
ATOM     24  C   UNL     1     -15.133  -0.055  30.792  0.00  0.00    +0.002 A 
ATOM     25  C   UNL     1     -15.134   2.257  31.492  0.00  0.00    +0.002 A 
ATOM     26  C   UNL     1     -14.917   0.909  31.776  0.00  0.00    +0.000 A 
ENDBRANCH   7  19
ENDBRANCH   9   6
BRANCH  11   3
ATOM      3  O   UNL     1     -17.093   1.500  22.749  0.00  0.00    -0.388 OA
ATOM     32  H   UNL     1     -17.416   0.585  22.707  0.00  0.00    +0.210 HD
ENDBRANCH  11   3
BRANCH  10  15
ATOM     15  C   UNL     1     -15.574   4.343  23.097  0.00  0.00    +0.137 C 
BRANCH  15   8
ATOM      5  O   UNL     1     -14.639   7.055  22.965  0.00  0.00    -0.270 OA
ATOM      8  N   UNL     1     -15.202   5.063  21.916  0.00  0.00    -0.309 N 
ATOM     20  C   UNL     1     -14.757   6.382  21.943  0.00  0.00    +0.246 C 
ATOM     33  H   UNL     1     -15.261   4.578  21.024  0.00  0.00    +0.149 HD
BRANCH  20  23
ATOM      1 CL   UNL     1     -11.781   6.668  21.166  0.00  0.00    -0.083 Cl
ATOM     23  C   UNL     1     -14.436   6.996  20.629  0.00  0.00    +0.055 A 
ATOM     27  C   UNL     1     -13.121   7.165  20.196  0.00  0.00    +0.053 A 
ATOM     28  C   UNL     1     -15.496   7.408  19.821  0.00  0.00    +0.014 A 
ATOM     29  C   UNL     1     -12.866   7.745  18.954  0.00  0.00    +0.021 A 
ATOM     30  C   UNL     1     -15.240   7.988  18.579  0.00  0.00    +0.001 A 
ATOM     31  C   UNL     1     -13.924   8.157  18.144  0.00  0.00    +0.001 A 
ENDBRANCH  20  23
ENDBRANCH  15   8
ENDBRANCH  10  15
BRANCH  12  18
ATOM     18  C   UNL     1     -18.696   2.604  20.700  0.00  0.00    +0.190 C 
BRANCH  18   4
ATOM      4  O   UNL     1     -18.042   3.464  19.780  0.00  0.00    -0.392 OA
ATOM     34  H   UNL     1     -18.340   4.370  19.974  0.00  0.00    +0.210 HD
ENDBRANCH  18   4
ENDBRANCH  12  18
TORSDOF 8
ENDMDL
MODEL 4
REMARK VINA RESULT:      -6.2      4.615      7.258
REMARK  Name = 51136972
REMARK  8 active torsions:
REMARK  status: ('A' for Active; 'I' for Inactive)
REMARK    1  A    between atoms: O_3  and  C_11
REMARK    2  A    between atoms: O_4  and  C_18
REMARK    3  A    between atoms: N_6  and  C_9
REMARK    4  A    between atoms: N_7  and  C_19
REMARK    5  A    between atoms: N_8  and  C_15
REMARK    6  A    between atoms: C_10  and  C_15
REMARK    7  A    between atoms: C_12  and  C_18
REMARK    8  A    between atoms: C_20  and  C_23
REMARK                            x       y       z     vdW  Elec       q    Type
REMARK                         _______ _______ _______ _____ _____    ______ ____
ROOT
ATOM      2  O   UNL     1      -3.573 -12.242  15.883  0.00  0.00    -0.365 OA
ATOM      9  C   UNL     1      -5.433 -11.473  17.155  0.00  0.00    +0.118 C 
ATOM     10  C   UNL     1      -4.947 -12.565  16.192  0.00  0.00    +0.155 C 
ATOM     11  C   UNL     1      -4.542 -10.291  16.811  0.00  0.00    +0.165 C 
ATOM     12  C   UNL     1      -3.223 -11.004  16.532  0.00  0.00    +0.174 C 
ENDROOT
BRANCH   9   6
ATOM      6  N   UNL     1      -6.859 -11.198  17.147  0.00  0.00    -0.292 NA
ATOM      7  N   UNL     1      -9.393 -10.533  18.284  0.00  0.00    -0.327 N 
ATOM     13  C   UNL     1      -7.124  -9.836  17.626  0.00  0.00    +0.104 C 
ATOM     14  C   UNL     1      -7.576 -12.171  17.981  0.00  0.00    +0.104 C 
ATOM     16  C   UNL     1      -8.619  -9.514  17.568  0.00  0.00    +0.120 C 
ATOM     17  C   UNL     1      -9.086 -11.926  17.934  0.00  0.00    +0.120 C 
BRANCH   7  19
ATOM     19  C   UNL     1     -10.686 -10.237  18.729  0.00  0.00    +0.030 A 
ATOM     21  C   UNL     1     -11.665  -9.842  17.816  0.00  0.00    +0.023 A 
ATOM     22  C   UNL     1     -10.997 -10.335  20.085  0.00  0.00    +0.023 A 
ATOM     24  C   UNL     1     -12.954  -9.546  18.260  0.00  0.00    +0.002 A 
ATOM     25  C   UNL     1     -12.286 -10.039  20.529  0.00  0.00    +0.002 A 
ATOM     26  C   UNL     1     -13.264  -9.645  19.616  0.00  0.00    +0.000 A 
ENDBRANCH   7  19
ENDBRANCH   9   6
BRANCH  11   3
ATOM      3  O   UNL     1      -4.996  -9.618  15.644  0.00  0.00    -0.388 OA
ATOM     32  H   UNL     1      -5.919  -9.353  15.797  0.00  0.00    +0.210 HD
ENDBRANCH  11   3
BRANCH  10  15
ATOM     15  C   UNL     1      -5.691 -12.688  14.867  0.00  0.00    +0.137 C 
BRANCH  15   8
ATOM      5  O   UNL     1      -6.536 -12.419  12.137  0.00  0.00    -0.270 OA
ATOM      8  N   UNL     1      -5.165 -11.777  13.895  0.00  0.00    -0.309 N 
ATOM     20  C   UNL     1      -5.636 -11.714  12.587  0.00  0.00    +0.246 C 
ATOM     33  H   UNL     1      -4.420 -11.149  14.185  0.00  0.00    +0.149 HD
BRANCH  20  23
ATOM      1 CL   UNL     1      -6.964  -8.950  12.214  0.00  0.00    -0.083 Cl
ATOM     23  C   UNL     1      -4.967 -10.734  11.692  0.00  0.00    +0.055 A 
ATOM     27  C   UNL     1      -5.495  -9.463  11.466  0.00  0.00    +0.053 A 
ATOM     28  C   UNL     1      -3.778 -11.116  11.073  0.00  0.00    +0.014 A 
ATOM     29  C   UNL     1      -4.832  -8.574  10.620  0.00  0.00    +0.021 A 
ATOM     30  C   UNL     1      -3.116 -10.227  10.226  0.00  0.00    +0.001 A 
ATOM     31  C   UNL     1      -3.642  -8.956  10.000  0.00  0.00    +0.001 A 
ENDBRANCH  20  23
ENDBRANCH  15   8
ENDBRANCH  10  15
BRANCH  12  18
ATOM     18  C   UNL     1      -2.240 -10.242  15.662  0.00  0.00    +0.190 C 
BRANCH  18   4
ATOM      4  O   UNL     1      -2.716 -10.243  14.325  0.00  0.00    -0.392 OA
ATOM     34  H   UNL     1      -2.398 -11.063  13.910  0.00  0.00    +0.210 HD
ENDBRANCH  18   4
ENDBRANCH  12  18
TORSDOF 8
ENDMDL
MODEL 5
REMARK VINA RESULT:      -6.1     27.551     29.605
REMARK  Name = 51136972
REMARK  8 active torsions:
REMARK  status: ('A' for Active; 'I' for Inactive)
REMARK    1  A    between atoms: O_3  and  C_11
REMARK    2  A    between atoms: O_4  and  C_18
REMARK    3  A    between atoms: N_6  and  C_9
REMARK    4  A    between atoms: N_7  and  C_19
REMARK    5  A    between atoms: N_8  and  C_15
REMARK    6  A    between atoms: C_10  and  C_15
REMARK    7  A    between atoms: C_12  and  C_18
REMARK    8  A    between atoms: C_20  and  C_23
REMARK                            x       y       z     vdW  Elec       q    Type
REMARK                         _______ _______ _______ _____ _____    ______ ____
ROOT
ATOM      2  O   UNL     1      12.583   9.536   4.720  0.00  0.00    -0.365 OA
ATOM      9  C   UNL     1      12.879   7.884   3.031  0.00  0.00    +0.118 C 
ATOM     10  C   UNL     1      11.980   9.034   3.506  0.00  0.00    +0.155 C 
ATOM     11  C   UNL     1      13.532   7.405   4.317  0.00  0.00    +0.165 C 
ATOM     12  C   UNL     1      13.734   8.731   5.042  0.00  0.00    +0.174 C 
ENDROOT
BRANCH   9   6
ATOM      6  N   UNL     1      12.236   6.851   2.239  0.00  0.00    -0.292 NA
ATOM      7  N   UNL     1      11.883   5.132  -0.014  0.00  0.00    -0.327 N 
ATOM     13  C   UNL     1      13.156   5.731   2.008  0.00  0.00    +0.104 C 
ATOM     14  C   UNL     1      11.778   7.396   0.955  0.00  0.00    +0.104 C 
ATOM     16  C   UNL     1      12.471   4.609   1.223  0.00  0.00    +0.120 C 
ATOM     17  C   UNL     1      11.047   6.329   0.136  0.00  0.00    +0.120 C 
BRANCH   7  19
ATOM     19  C   UNL     1      11.598   4.259  -1.069  0.00  0.00    +0.030 A 
ATOM     21  C   UNL     1      12.358   3.102  -1.243  0.00  0.00    +0.023 A 
ATOM     22  C   UNL     1      10.553   4.545  -1.948  0.00  0.00    +0.023 A 
ATOM     24  C   UNL     1      12.073   2.232  -2.295  0.00  0.00    +0.002 A 
ATOM     25  C   UNL     1      10.269   3.674  -3.001  0.00  0.00    +0.002 A 
ATOM     26  C   UNL     1      11.029   2.518  -3.174  0.00  0.00    +0.000 A 
ENDBRANCH   7  19
ENDBRANCH   9   6
BRANCH  11   3
ATOM      3  O   UNL     1      12.662   6.562   5.061  0.00  0.00    -0.388 OA
ATOM     32  H   UNL     1      11.767   6.933   4.998  0.00  0.00    +0.210 HD
ENDBRANCH  11   3
BRANCH  10  15
ATOM     15  C   UNL     1      10.534   8.679   3.834  0.00  0.00    +0.137 C 
BRANCH  15   8
ATOM      5  O   UNL     1       8.204   7.321   4.818  0.00  0.00    -0.270 OA
ATOM      8  N   UNL     1      10.461   7.833   4.988  0.00  0.00    -0.309 N 
ATOM     20  C   UNL     1       9.283   7.211   5.394  0.00  0.00    +0.246 C 
ATOM     33  H   UNL     1      11.313   7.680   5.521  0.00  0.00    +0.149 HD
BRANCH  20  23
ATOM      1 CL   UNL     1      10.144   4.258   5.109  0.00  0.00    -0.083 Cl
ATOM     23  C   UNL     1       9.366   6.387   6.628  0.00  0.00    +0.055 A 
ATOM     27  C   UNL     1       9.746   5.045   6.593  0.00  0.00    +0.053 A 
ATOM     28  C   UNL     1       9.052   6.992   7.845  0.00  0.00    +0.014 A 
ATOM     29  C   UNL     1       9.812   4.309   7.776  0.00  0.00    +0.021 A 
ATOM     30  C   UNL     1       9.117   6.256   9.027  0.00  0.00    +0.001 A 
ATOM     31  C   UNL     1       9.498   4.914   8.993  0.00  0.00    +0.001 A 
ENDBRANCH  20  23
ENDBRANCH  15   8
ENDBRANCH  10  15
BRANCH  12  18
ATOM     18  C   UNL     1      13.872   8.636   6.551  0.00  0.00    +0.190 C 
BRANCH  18   4
ATOM      4  O   UNL     1      12.578   8.546   7.125  0.00  0.00    -0.392 OA
ATOM     34  H   UNL     1      12.652   8.849   8.046  0.00  0.00    +0.210 HD
ENDBRANCH  18   4
ENDBRANCH  12  18
TORSDOF 8
ENDMDL
MODEL 6
REMARK VINA RESULT:      -6.1     29.028     31.269
REMARK  Name = 51136972
REMARK  8 active torsions:
REMARK  status: ('A' for Active; 'I' for Inactive)
REMARK    1  A    between atoms: O_3  and  C_11
REMARK    2  A    between atoms: O_4  and  C_18
REMARK    3  A    between atoms: N_6  and  C_9
REMARK    4  A    between atoms: N_7  and  C_19
REMARK    5  A    between atoms: N_8  and  C_15
REMARK    6  A    between atoms: C_10  and  C_15
REMARK    7  A    between atoms: C_12  and  C_18
REMARK    8  A    between atoms: C_20  and  C_23
REMARK                            x       y       z     vdW  Elec       q    Type
REMARK                         _______ _______ _______ _____ _____    ______ ____
ROOT
ATOM      2  O   UNL     1       9.297   6.855   4.596  0.00  0.00    -0.365 OA
ATOM      9  C   UNL     1      11.469   7.763   4.953  0.00  0.00    +0.118 C 
ATOM     10  C   UNL     1      10.631   6.858   4.040  0.00  0.00    +0.155 C 
ATOM     11  C   UNL     1      10.739   7.678   6.284  0.00  0.00    +0.165 C 
ATOM     12  C   UNL     1       9.291   7.634   5.808  0.00  0.00    +0.174 C 
ENDROOT
BRANCH   9   6
ATOM      6  N   UNL     1      12.892   7.480   5.007  0.00  0.00    -0.292 NA
ATOM      7  N   UNL     1      15.676   8.112   5.077  0.00  0.00    -0.327 N 
ATOM     13  C   UNL     1      13.490   8.070   6.210  0.00  0.00    +0.104 C 
ATOM     14  C   UNL     1      13.566   7.995   3.809  0.00  0.00    +0.104 C 
ATOM     16  C   UNL     1      14.979   7.730   6.309  0.00  0.00    +0.120 C 
ATOM     17  C   UNL     1      15.057   7.652   3.827  0.00  0.00    +0.120 C 
BRANCH   7  19
ATOM     19  C   UNL     1      17.063   8.299   5.094  0.00  0.00    +0.030 A 
ATOM     21  C   UNL     1      17.818   8.024   3.954  0.00  0.00    +0.023 A 
ATOM     22  C   UNL     1      17.690   8.758   6.252  0.00  0.00    +0.023 A 
ATOM     24  C   UNL     1      19.200   8.210   3.971  0.00  0.00    +0.002 A 
ATOM     25  C   UNL     1      19.073   8.943   6.269  0.00  0.00    +0.002 A 
ATOM     26  C   UNL     1      19.828   8.669   5.129  0.00  0.00    +0.000 A 
ENDBRANCH   7  19
ENDBRANCH   9   6
BRANCH  11   3
ATOM      3  O   UNL     1      11.067   6.485   6.983  0.00  0.00    -0.388 OA
ATOM     32  H   UNL     1      11.601   5.932   6.389  0.00  0.00    +0.210 HD
ENDBRANCH  11   3
BRANCH  10  15
ATOM     15  C   UNL     1      11.075   5.404   3.926  0.00  0.00    +0.137 C 
BRANCH  15   8
ATOM      5  O   UNL     1      11.570   3.015   2.413  0.00  0.00    -0.270 OA
ATOM      8  N   UNL     1      12.037   5.240   2.877  0.00  0.00    -0.309 N 
ATOM     20  C   UNL     1      12.211   4.040   2.193  0.00  0.00    +0.246 C 
ATOM     33  H   UNL     1      12.606   6.043   2.624  0.00  0.00    +0.149 HD
BRANCH  20  23
ATOM      1 CL   UNL     1      11.335   4.229  -0.763  0.00  0.00    -0.083 Cl
ATOM     23  C   UNL     1      13.269   4.024   1.150  0.00  0.00    +0.055 A 
ATOM     27  C   UNL     1      12.966   4.106  -0.208  0.00  0.00    +0.053 A 
ATOM     28  C   UNL     1      14.597   3.926   1.564  0.00  0.00    +0.014 A 
ATOM     29  C   UNL     1      13.992   4.089  -1.154  0.00  0.00    +0.021 A 
ATOM     30  C   UNL     1      15.622   3.909   0.619  0.00  0.00    +0.001 A 
ATOM     31  C   UNL     1      15.320   3.991  -0.740  0.00  0.00    +0.001 A 
ENDBRANCH  20  23
ENDBRANCH  15   8
ENDBRANCH  10  15
BRANCH  12  18
ATOM     18  C   UNL     1       8.300   7.029   6.787  0.00  0.00    +0.190 C 
BRANCH  18   4
ATOM      4  O   UNL     1       8.534   7.579   8.074  0.00  0.00    -0.392 OA
ATOM     34  H   UNL     1       8.630   6.833   8.690  0.00  0.00    +0.210 HD
ENDBRANCH  18   4
ENDBRANCH  12  18
TORSDOF 8
ENDMDL
MODEL 7
REMARK VINA RESULT:      -6.1      3.865      5.978
REMARK  Name = 51136972
REMARK  8 active torsions:
REMARK  status: ('A' for Active; 'I' for Inactive)
REMARK    1  A    between atoms: O_3  and  C_11
REMARK    2  A    between atoms: O_4  and  C_18
REMARK    3  A    between atoms: N_6  and  C_9
REMARK    4  A    between atoms: N_7  and  C_19
REMARK    5  A    between atoms: N_8  and  C_15
REMARK    6  A    between atoms: C_10  and  C_15
REMARK    7  A    between atoms: C_12  and  C_18
REMARK    8  A    between atoms: C_20  and  C_23
REMARK                            x       y       z     vdW  Elec       q    Type
REMARK                         _______ _______ _______ _____ _____    ______ ____
ROOT
ATOM      2  O   UNL     1      -4.053 -12.554  17.203  0.00  0.00    -0.365 OA
ATOM      9  C   UNL     1      -6.210 -11.572  16.973  0.00  0.00    +0.118 C 
ATOM     10  C   UNL     1      -4.883 -11.849  16.253  0.00  0.00    +0.155 C 
ATOM     11  C   UNL     1      -5.808 -11.555  18.439  0.00  0.00    +0.165 C 
ATOM     12  C   UNL     1      -4.757 -12.659  18.456  0.00  0.00    +0.174 C 
ENDROOT
BRANCH   9   6
ATOM      6  N   UNL     1      -6.957 -10.412  16.521  0.00  0.00    -0.292 NA
ATOM      7  N   UNL     1      -9.295  -8.896  15.896  0.00  0.00    -0.327 N 
ATOM     13  C   UNL     1      -7.822  -9.905  17.592  0.00  0.00    +0.104 C 
ATOM     14  C   UNL     1      -7.765 -10.746  15.341  0.00  0.00    +0.104 C 
ATOM     16  C   UNL     1      -8.572  -8.648  17.147  0.00  0.00    +0.120 C 
ATOM     17  C   UNL     1      -8.511  -9.516  14.821  0.00  0.00    +0.120 C 
BRANCH   7  19
ATOM     19  C   UNL     1     -10.364  -8.067  15.537  0.00  0.00    +0.030 A 
ATOM     21  C   UNL     1     -10.658  -6.937  16.300  0.00  0.00    +0.023 A 
ATOM     22  C   UNL     1     -11.138  -8.373  14.417  0.00  0.00    +0.023 A 
ATOM     24  C   UNL     1     -11.724  -6.111  15.941  0.00  0.00    +0.002 A 
ATOM     25  C   UNL     1     -12.204  -7.547  14.060  0.00  0.00    +0.002 A 
ATOM     26  C   UNL     1     -12.497  -6.417  14.822  0.00  0.00    +0.000 A 
ENDBRANCH   7  19
ENDBRANCH   9   6
BRANCH  11   3
ATOM      3  O   UNL     1      -5.225 -10.311  18.804  0.00  0.00    -0.388 OA
ATOM     32  H   UNL     1      -5.296 -10.225  19.770  0.00  0.00    +0.210 HD
ENDBRANCH  11   3
BRANCH  10  15
ATOM     15  C   UNL     1      -4.095 -10.632  15.782  0.00  0.00    +0.137 C 
BRANCH  15   8
ATOM      5  O   UNL     1      -2.587 -11.930  13.713  0.00  0.00    -0.270 OA
ATOM      8  N   UNL     1      -4.240 -10.439  14.370  0.00  0.00    -0.309 N 
ATOM     20  C   UNL     1      -3.463 -11.114  13.433  0.00  0.00    +0.246 C 
ATOM     33  H   UNL     1      -4.949  -9.785  14.049  0.00  0.00    +0.149 HD
BRANCH  20  23
ATOM      1 CL   UNL     1      -5.520 -12.827  11.891  0.00  0.00    -0.083 Cl
ATOM     23  C   UNL     1      -3.717 -10.784  12.006  0.00  0.00    +0.055 A 
ATOM     27  C   UNL     1      -4.628 -11.503  11.234  0.00  0.00    +0.053 A 
ATOM     28  C   UNL     1      -3.013  -9.718  11.444  0.00  0.00    +0.014 A 
ATOM     29  C   UNL     1      -4.836 -11.156   9.899  0.00  0.00    +0.021 A 
ATOM     30  C   UNL     1      -3.221  -9.373  10.110  0.00  0.00    +0.001 A 
ATOM     31  C   UNL     1      -4.133 -10.091   9.336  0.00  0.00    +0.001 A 
ENDBRANCH  20  23
ENDBRANCH  15   8
ENDBRANCH  10  15
BRANCH  12  18
ATOM     18  C   UNL     1      -3.760 -12.594  19.598  0.00  0.00    +0.190 C 
BRANCH  18   4
ATOM      4  O   UNL     1      -2.606 -11.895  19.158  0.00  0.00    -0.392 OA
ATOM     34  H   UNL     1      -2.732 -11.700  18.214  0.00  0.00    +0.210 HD
ENDBRANCH  18   4
ENDBRANCH  12  18
TORSDOF 8
ENDMDL
MODEL 8
REMARK VINA RESULT:      -6.0      3.642      9.569
REMARK  Name = 51136972
REMARK  8 active torsions:
REMARK  status: ('A' for Active; 'I' for Inactive)
REMARK    1  A    between atoms: O_3  and  C_11
REMARK    2  A    between atoms: O_4  and  C_18
REMARK    3  A    between atoms: N_6  and  C_9
REMARK    4  A    between atoms: N_7  and  C_19
REMARK    5  A    between atoms: N_8  and  C_15
REMARK    6  A    between atoms: C_10  and  C_15
REMARK    7  A    between atoms: C_12  and  C_18
REMARK    8  A    between atoms: C_20  and  C_23
REMARK                            x       y       z     vdW  Elec       q    Type
REMARK                         _______ _______ _______ _____ _____    ______ ____
ROOT
ATOM      2  O   UNL     1     -14.646  -6.598  14.427  0.00  0.00    -0.365 OA
ATOM      9  C   UNL     1     -12.880  -7.947  15.283  0.00  0.00    +0.118 C 
ATOM     10  C   UNL     1     -13.397  -6.508  15.149  0.00  0.00    +0.155 C 
ATOM     11  C   UNL     1     -13.516  -8.652  14.096  0.00  0.00    +0.165 C 
ATOM     12  C   UNL     1     -14.880  -7.972  14.062  0.00  0.00    +0.174 C 
ENDROOT
BRANCH   9   6
ATOM      6  N   UNL     1     -11.442  -8.105  15.400  0.00  0.00    -0.292 NA
ATOM      7  N   UNL     1      -9.013  -9.177  16.452  0.00  0.00    -0.327 N 
ATOM     13  C   UNL     1     -11.048  -9.487  15.100  0.00  0.00    +0.104 C 
ATOM     14  C   UNL     1     -10.991  -7.737  16.748  0.00  0.00    +0.104 C 
ATOM     16  C   UNL     1      -9.528  -9.652  15.164  0.00  0.00    +0.120 C 
ATOM     17  C   UNL     1      -9.469  -7.844  16.866  0.00  0.00    +0.120 C 
BRANCH   7  19
ATOM     19  C   UNL     1      -7.761  -9.612  16.902  0.00  0.00    +0.030 A 
ATOM     21  C   UNL     1      -6.659  -9.571  16.047  0.00  0.00    +0.023 A 
ATOM     22  C   UNL     1      -7.616 -10.089  18.205  0.00  0.00    +0.023 A 
ATOM     24  C   UNL     1      -5.412 -10.006  16.496  0.00  0.00    +0.002 A 
ATOM     25  C   UNL     1      -6.368 -10.524  18.653  0.00  0.00    +0.002 A 
ATOM     26  C   UNL     1      -5.267 -10.482  17.799  0.00  0.00    +0.000 A 
ENDBRANCH   7  19
ENDBRANCH   9   6
BRANCH  11   3
ATOM      3  O   UNL     1     -12.804  -8.393  12.893  0.00  0.00    -0.388 OA
ATOM     32  H   UNL     1     -13.416  -8.535  12.152  0.00  0.00    +0.210 HD
ENDBRANCH  11   3
BRANCH  10  15
ATOM     15  C   UNL     1     -12.507  -5.531  14.388  0.00  0.00    +0.137 C 
BRANCH  15   8
ATOM      5  O   UNL     1     -11.911  -3.120  12.948  0.00  0.00    -0.270 OA
ATOM      8  N   UNL     1     -13.154  -5.064  13.199  0.00  0.00    -0.309 N 
ATOM     20  C   UNL     1     -12.799  -3.877  12.563  0.00  0.00    +0.246 C 
ATOM     33  H   UNL     1     -13.897  -5.635  12.806  0.00  0.00    +0.149 HD
BRANCH  20  23
ATOM      1 CL   UNL     1     -11.420  -4.131   9.811  0.00  0.00    -0.083 Cl
ATOM     23  C   UNL     1     -13.585  -3.518  11.354  0.00  0.00    +0.055 A 
ATOM     27  C   UNL     1     -13.043  -3.602  10.072  0.00  0.00    +0.053 A 
ATOM     28  C   UNL     1     -14.900  -3.087  11.530  0.00  0.00    +0.014 A 
ATOM     29  C   UNL     1     -13.818  -3.256   8.964  0.00  0.00    +0.021 A 
ATOM     30  C   UNL     1     -15.673  -2.741  10.422  0.00  0.00    +0.001 A 
ATOM     31  C   UNL     1     -15.133  -2.826   9.139  0.00  0.00    +0.001 A 
ENDBRANCH  20  23
ENDBRANCH  15   8
ENDBRANCH  10  15
BRANCH  12  18
ATOM     18  C   UNL     1     -15.600  -8.019  12.726  0.00  0.00    +0.190 C 
BRANCH  18   4
ATOM      4  O   UNL     1     -15.170  -6.923  11.935  0.00  0.00    -0.392 OA
ATOM     34  H   UNL     1     -15.044  -7.256  11.030  0.00  0.00    +0.210 HD
ENDBRANCH  18   4
ENDBRANCH  12  18
TORSDOF 8
ENDMDL
MODEL 9
REMARK VINA RESULT:      -6.0     23.073     26.888
REMARK  Name = 51136972
REMARK  8 active torsions:
REMARK  status: ('A' for Active; 'I' for Inactive)
REMARK    1  A    between atoms: O_3  and  C_11
REMARK    2  A    between atoms: O_4  and  C_18
REMARK    3  A    between atoms: N_6  and  C_9
REMARK    4  A    between atoms: N_7  and  C_19
REMARK    5  A    between atoms: N_8  and  C_15
REMARK    6  A    between atoms: C_10  and  C_15
REMARK    7  A    between atoms: C_12  and  C_18
REMARK    8  A    between atoms: C_20  and  C_23
REMARK                            x       y       z     vdW  Elec       q    Type
REMARK                         _______ _______ _______ _____ _____    ______ ____
ROOT
ATOM      2  O   UNL     1       8.750  -6.650  36.242  0.00  0.00    -0.365 OA
ATOM      9  C   UNL     1       7.585  -5.148  37.676  0.00  0.00    +0.118 C 
ATOM     10  C   UNL     1       7.752  -6.623  37.287  0.00  0.00    +0.155 C 
ATOM     11  C   UNL     1       7.999  -4.411  36.412  0.00  0.00    +0.165 C 
ATOM     12  C   UNL     1       9.141  -5.299  35.929  0.00  0.00    +0.174 C 
ENDROOT
BRANCH   9   6
ATOM      6  N   UNL     1       6.293  -4.769  38.219  0.00  0.00    -0.292 NA
ATOM      7  N   UNL     1       4.498  -3.645  40.135  0.00  0.00    -0.327 N 
ATOM     13  C   UNL     1       6.217  -3.315  38.403  0.00  0.00    +0.104 C 
ATOM     14  C   UNL     1       6.054  -5.448  39.499  0.00  0.00    +0.104 C 
ATOM     16  C   UNL     1       4.840  -2.897  38.921  0.00  0.00    +0.120 C 
ATOM     17  C   UNL     1       4.670  -5.101  40.054  0.00  0.00    +0.120 C 
BRANCH   7  19
ATOM     19  C   UNL     1       3.524  -3.146  41.007  0.00  0.00    +0.030 A 
ATOM     21  C   UNL     1       2.573  -4.006  41.557  0.00  0.00    +0.023 A 
ATOM     22  C   UNL     1       3.504  -1.788  41.326  0.00  0.00    +0.023 A 
ATOM     24  C   UNL     1       1.603  -3.508  42.426  0.00  0.00    +0.002 A 
ATOM     25  C   UNL     1       2.532  -1.290  42.195  0.00  0.00    +0.002 A 
ATOM     26  C   UNL     1       1.582  -2.150  42.744  0.00  0.00    +0.000 A 
ENDBRANCH   7  19
ENDBRANCH   9   6
BRANCH  11   3
ATOM      3  O   UNL     1       6.950  -4.391  35.453  0.00  0.00    -0.388 OA
ATOM     32  H   UNL     1       6.929  -5.260  35.019  0.00  0.00    +0.210 HD
ENDBRANCH  11   3
BRANCH  10  15
ATOM     15  C   UNL     1       6.515  -7.331  36.748  0.00  0.00    +0.137 C 
BRANCH  15   8
ATOM      5  O   UNL     1       4.760  -8.989  35.193  0.00  0.00    -0.270 OA
ATOM      8  N   UNL     1       6.708  -7.743  35.389  0.00  0.00    -0.309 N 
ATOM     20  C   UNL     1       5.801  -8.551  34.709  0.00  0.00    +0.246 C 
ATOM     33  H   UNL     1       7.542  -7.418  34.908  0.00  0.00    +0.149 HD
BRANCH  20  23
ATOM      1 CL   UNL     1       6.702 -11.452  34.146  0.00  0.00    -0.083 Cl
ATOM     23  C   UNL     1       6.159  -8.911  33.312  0.00  0.00    +0.055 A 
ATOM     27  C   UNL     1       6.576 -10.196  32.967  0.00  0.00    +0.053 A 
ATOM     28  C   UNL     1       6.068  -7.920  32.335  0.00  0.00    +0.014 A 
ATOM     29  C   UNL     1       6.901 -10.491  31.643  0.00  0.00    +0.021 A 
ATOM     30  C   UNL     1       6.393  -8.216  31.011  0.00  0.00    +0.001 A 
ATOM     31  C   UNL     1       6.810  -9.501  30.665  0.00  0.00    +0.001 A 
ENDBRANCH  20  23
ENDBRANCH  15   8
ENDBRANCH  10  15
BRANCH  12  18
ATOM     18  C   UNL     1       9.464  -5.201  34.450  0.00  0.00    +0.190 C 
BRANCH  18   4
ATOM      4  O   UNL     1       8.676  -6.147  33.745  0.00  0.00    -0.392 OA
ATOM     34  H   UNL     1       8.659  -6.959  34.279  0.00  0.00    +0.210 HD
ENDBRANCH  18   4
ENDBRANCH  12  18
TORSDOF 8
ENDMDL
MODEL 10
REMARK VINA RESULT:      -6.0      6.791     11.743
REMARK  Name = 51136972
REMARK  8 active torsions:
REMARK  status: ('A' for Active; 'I' for Inactive)
REMARK    1  A    between atoms: O_3  and  C_11
REMARK    2  A    between atoms: O_4  and  C_18
REMARK    3  A    between atoms: N_6  and  C_9
REMARK    4  A    between atoms: N_7  and  C_19
REMARK    5  A    between atoms: N_8  and  C_15
REMARK    6  A    between atoms: C_10  and  C_15
REMARK    7  A    between atoms: C_12  and  C_18
REMARK    8  A    between atoms: C_20  and  C_23
REMARK                            x       y       z     vdW  Elec       q    Type
REMARK                         _______ _______ _______ _____ _____    ______ ____
ROOT
ATOM      2  O   UNL     1     -10.670  -7.470   6.975  0.00  0.00    -0.365 OA
ATOM      9  C   UNL     1      -8.758  -8.583   7.856  0.00  0.00    +0.118 C 
ATOM     10  C   UNL     1     -10.005  -7.767   8.223  0.00  0.00    +0.155 C 
ATOM     11  C   UNL     1      -8.464  -8.139   6.432  0.00  0.00    +0.165 C 
ATOM     12  C   UNL     1      -9.880  -7.987   5.886  0.00  0.00    +0.174 C 
ENDROOT
BRANCH   9   6
ATOM      6  N   UNL     1      -7.638  -8.495   8.776  0.00  0.00    -0.292 NA
ATOM      7  N   UNL     1      -5.550  -9.498  10.446  0.00  0.00    -0.327 N 
ATOM     13  C   UNL     1      -6.435  -9.093   8.184  0.00  0.00    +0.104 C 
ATOM     14  C   UNL     1      -7.958  -9.165  10.042  0.00  0.00    +0.104 C 
ATOM     16  C   UNL     1      -5.234  -8.956   9.121  0.00  0.00    +0.120 C 
ATOM     17  C   UNL     1      -6.807  -9.029  11.042  0.00  0.00    +0.120 C 
BRANCH   7  19
ATOM     19  C   UNL     1      -4.513  -9.872  11.308  0.00  0.00    +0.030 A 
ATOM     21  C   UNL     1      -4.802 -10.294  12.605  0.00  0.00    +0.023 A 
ATOM     22  C   UNL     1      -3.190  -9.821  10.870  0.00  0.00    +0.023 A 
ATOM     24  C   UNL     1      -3.768 -10.667  13.465  0.00  0.00    +0.002 A 
ATOM     25  C   UNL     1      -2.155 -10.193  11.730  0.00  0.00    +0.002 A 
ATOM     26  C   UNL     1      -2.445 -10.616  13.027  0.00  0.00    +0.000 A 
ENDBRANCH   7  19
ENDBRANCH   9   6
BRANCH  11   3
ATOM      3  O   UNL     1      -7.788  -6.889   6.405  0.00  0.00    -0.388 OA
ATOM     32  H   UNL     1      -7.140  -6.920   5.681  0.00  0.00    +0.210 HD
ENDBRANCH  11   3
BRANCH  10  15
ATOM     15  C   UNL     1      -9.766  -6.439   8.934  0.00  0.00    +0.137 C 
BRANCH  15   8
ATOM      5  O   UNL     1     -10.215  -3.614   9.187  0.00  0.00    -0.270 OA
ATOM      8  N   UNL     1     -11.006  -5.795   9.251  0.00  0.00    -0.309 N 
ATOM     20  C   UNL     1     -11.134  -4.413   9.354  0.00  0.00    +0.246 C 
ATOM     33  H   UNL     1     -11.823  -6.382   9.398  0.00  0.00    +0.149 HD
BRANCH  20  23
ATOM      1 CL   UNL     1     -11.874  -4.278  12.350  0.00  0.00    -0.083 Cl
ATOM     23  C   UNL     1     -12.481  -3.902   9.718  0.00  0.00    +0.055 A 
ATOM     27  C   UNL     1     -12.899  -3.806  11.044  0.00  0.00    +0.053 A 
ATOM     28  C   UNL     1     -13.335  -3.511   8.686  0.00  0.00    +0.014 A 
ATOM     29  C   UNL     1     -14.173  -3.319  11.340  0.00  0.00    +0.021 A 
ATOM     30  C   UNL     1     -14.608  -3.024   8.982  0.00  0.00    +0.001 A 
ATOM     31  C   UNL     1     -15.027  -2.928  10.309  0.00  0.00    +0.001 A 
ENDBRANCH  20  23
ENDBRANCH  15   8
ENDBRANCH  10  15
BRANCH  12  18
ATOM     18  C   UNL     1     -10.023  -7.071   4.685  0.00  0.00    +0.190 C 
BRANCH  18   4
ATOM      4  O   UNL     1      -8.829  -7.130   3.920  0.00  0.00    -0.392 OA
ATOM     34  H   UNL     1      -8.387  -6.270   4.014  0.00  0.00    +0.210 HD
ENDBRANCH  18   4
ENDBRANCH  12  18
TORSDOF 8
ENDMDL
