MODEL 1
REMARK VINA RESULT:      -7.3      0.000      0.000
REMARK  Name = 40778178
REMARK  10 active torsions:
REMARK  status: ('A' for Active; 'I' for Inactive)
REMARK    1  A    between atoms: O_3  and  C_12
REMARK    2  A    between atoms: O_4  and  C_13
REMARK    3  A    between atoms: O_7  and  C_34
REMARK    4  A    between atoms: O_7  and  C_35
REMARK    5  A    between atoms: N_9  and  C_22
REMARK    6  A    between atoms: N_10  and  C_16
REMARK    7  A    between atoms: C_11  and  C_15
REMARK    8  A    between atoms: C_14  and  C_16
REMARK    9  A    between atoms: C_15  and  C_17
REMARK   10  A    between atoms: C_23  and  C_26
REMARK                            x       y       z     vdW  Elec       q    Type
REMARK                         _______ _______ _______ _____ _____    ______ ____
ROOT
ATOM      2  O   UNL     1      12.707  11.124  23.797  0.00  0.00    -0.366 OA
ATOM     11  C   UNL     1      13.196  12.443  23.460  0.00  0.00    +0.159 C 
ATOM     12  C   UNL     1      12.033  13.402  23.688  0.00  0.00    +0.175 C 
ATOM     13  C   UNL     1      10.834  12.512  23.440  0.00  0.00    +0.176 C 
ATOM     14  C   UNL     1      11.295  11.202  24.059  0.00  0.00    +0.167 C 
ENDROOT
BRANCH  12   3
ATOM      3  O   UNL     1      12.066  13.820  25.052  0.00  0.00    -0.387 OA
ATOM     36  H   UNL     1      11.522  14.623  25.124  0.00  0.00    +0.210 HD
ENDBRANCH  12   3
BRANCH  13   4
ATOM      4  O   UNL     1       9.648  12.991  24.035  0.00  0.00    -0.387 OA
ATOM     37  H   UNL     1       9.855  13.845  24.452  0.00  0.00    +0.210 HD
ENDBRANCH  13   4
BRANCH  11  15
ATOM     15  C   UNL     1      13.664  12.408  22.011  0.00  0.00    +0.130 C 
BRANCH  15  17
ATOM      5  O   UNL     1      15.725  13.566  22.234  0.00  0.00    -0.276 OA
ATOM      8  N   UNL     1      15.845  11.342  21.574  0.00  0.00    -0.298 N 
ATOM      9  N   UNL     1      17.357   8.938  21.009  0.00  0.00    -0.327 N 
ATOM     17  C   UNL     1      15.169  12.501  21.955  0.00  0.00    +0.218 C 
ATOM     18  C   UNL     1      15.184  10.077  21.242  0.00  0.00    +0.126 C 
ATOM     19  C   UNL     1      17.304  11.350  21.503  0.00  0.00    +0.126 C 
ATOM     20  C   UNL     1      16.053   9.164  20.378  0.00  0.00    +0.124 C 
ATOM     21  C   UNL     1      17.902   9.993  21.868  0.00  0.00    +0.124 C 
BRANCH   9  22
ATOM      1  F   UNL     1      20.215   4.308  20.069  0.00  0.00    -0.205 F 
ATOM     22  C   UNL     1      18.078   7.771  20.772  0.00  0.00    +0.030 A 
ATOM     24  C   UNL     1      17.521   6.752  19.998  0.00  0.00    +0.026 A 
ATOM     25  C   UNL     1      19.357   7.619  21.308  0.00  0.00    +0.026 A 
ATOM     27  C   UNL     1      18.243   5.582  19.761  0.00  0.00    +0.040 A 
ATOM     28  C   UNL     1      20.078   6.450  21.071  0.00  0.00    +0.040 A 
ATOM     29  C   UNL     1      19.522   5.431  20.297  0.00  0.00    +0.124 A 
ENDBRANCH   9  22
ENDBRANCH  15  17
ENDBRANCH  11  15
BRANCH  14  16
ATOM     16  C   UNL     1      10.600   9.984  23.476  0.00  0.00    +0.138 C 
BRANCH  16  10
ATOM      6  O   UNL     1      10.330   7.451  22.152  0.00  0.00    -0.270 OA
ATOM     10  N   UNL     1      11.175   9.611  22.219  0.00  0.00    -0.309 N 
ATOM     23  C   UNL     1      10.991   8.355  21.648  0.00  0.00    +0.244 C 
ATOM     38  H   UNL     1      11.689  10.330  21.720  0.00  0.00    +0.149 HD
BRANCH  23  26
ATOM     26  C   UNL     1      11.675   8.116  20.350  0.00  0.00    +0.037 A 
ATOM     30  C   UNL     1      11.217   8.748  19.194  0.00  0.00    +0.016 A 
ATOM     31  C   UNL     1      12.774   7.259  20.287  0.00  0.00    +0.016 A 
ATOM     32  C   UNL     1      11.859   8.524  17.976  0.00  0.00    +0.046 A 
ATOM     33  C   UNL     1      13.415   7.034  19.070  0.00  0.00    +0.046 A 
ATOM     34  C   UNL     1      12.958   7.667  17.913  0.00  0.00    +0.120 A 
BRANCH  34   7
ATOM      7  O   UNL     1      13.584   7.448  16.726  0.00  0.00    -0.495 OA
ATOM     35  C   UNL     1      14.012   8.598  15.996  0.00  0.00    +0.277 C 
ENDBRANCH  34   7
ENDBRANCH  23  26
ENDBRANCH  16  10
ENDBRANCH  14  16
TORSDOF 9
ENDMDL
MODEL 2
REMARK VINA RESULT:      -7.2     27.295     31.201
REMARK  Name = 40778178
REMARK  10 active torsions:
REMARK  status: ('A' for Active; 'I' for Inactive)
REMARK    1  A    between atoms: O_3  and  C_12
REMARK    2  A    between atoms: O_4  and  C_13
REMARK    3  A    between atoms: O_7  and  C_34
REMARK    4  A    between atoms: O_7  and  C_35
REMARK    5  A    between atoms: N_9  and  C_22
REMARK    6  A    between atoms: N_10  and  C_16
REMARK    7  A    between atoms: C_11  and  C_15
REMARK    8  A    between atoms: C_14  and  C_16
REMARK    9  A    between atoms: C_15  and  C_17
REMARK   10  A    between atoms: C_23  and  C_26
REMARK                            x       y       z     vdW  Elec       q    Type
REMARK                         _______ _______ _______ _____ _____    ______ ____
ROOT
ATOM      2  O   UNL     1     -15.647   2.817  24.566  0.00  0.00    -0.366 OA
ATOM     11  C   UNL     1     -16.875   2.053  24.582  0.00  0.00    +0.159 C 
ATOM     12  C   UNL     1     -17.616   2.404  23.296  0.00  0.00    +0.175 C 
ATOM     13  C   UNL     1     -17.130   3.811  23.024  0.00  0.00    +0.176 C 
ATOM     14  C   UNL     1     -15.672   3.716  23.442  0.00  0.00    +0.167 C 
ENDROOT
BRANCH  12   3
ATOM      3  O   UNL     1     -17.166   1.518  22.272  0.00  0.00    -0.387 OA
ATOM     36  H   UNL     1     -16.776   0.741  22.709  0.00  0.00    +0.210 HD
ENDBRANCH  12   3
BRANCH  13   4
ATOM      4  O   UNL     1     -17.269   4.201  21.675  0.00  0.00    -0.387 OA
ATOM     37  H   UNL     1     -16.584   4.866  21.491  0.00  0.00    +0.210 HD
ENDBRANCH  13   4
BRANCH  11  15
ATOM     15  C   UNL     1     -17.645   2.440  25.837  0.00  0.00    +0.130 C 
BRANCH  15  17
ATOM      5  O   UNL     1     -17.410   0.274  26.780  0.00  0.00    -0.276 OA
ATOM      8  N   UNL     1     -16.901   2.072  28.160  0.00  0.00    -0.298 N 
ATOM      9  N   UNL     1     -15.835   3.164  30.621  0.00  0.00    -0.327 N 
ATOM     17  C   UNL     1     -17.309   1.490  26.961  0.00  0.00    +0.218 C 
ATOM     18  C   UNL     1     -16.782   3.517  28.373  0.00  0.00    +0.126 C 
ATOM     19  C   UNL     1     -16.552   1.218  29.293  0.00  0.00    +0.126 C 
ATOM     20  C   UNL     1     -16.838   3.904  29.851  0.00  0.00    +0.124 C 
ATOM     21  C   UNL     1     -15.447   1.831  30.151  0.00  0.00    +0.124 C 
BRANCH   9  22
ATOM      1  F   UNL     1     -13.671   5.261  35.248  0.00  0.00    -0.205 F 
ATOM     22  C   UNL     1     -15.290   3.693  31.788  0.00  0.00    +0.030 A 
ATOM     24  C   UNL     1     -15.168   2.894  32.925  0.00  0.00    +0.026 A 
ATOM     25  C   UNL     1     -14.864   5.021  31.819  0.00  0.00    +0.026 A 
ATOM     27  C   UNL     1     -14.622   3.424  34.094  0.00  0.00    +0.040 A 
ATOM     28  C   UNL     1     -14.318   5.551  32.988  0.00  0.00    +0.040 A 
ATOM     29  C   UNL     1     -14.196   4.753  34.125  0.00  0.00    +0.124 A 
ENDBRANCH   9  22
ENDBRANCH  15  17
ENDBRANCH  11  15
BRANCH  14  16
ATOM     16  C   UNL     1     -15.072   5.052  23.845  0.00  0.00    +0.138 C 
BRANCH  16  10
ATOM      6  O   UNL     1     -15.860   6.942  21.833  0.00  0.00    -0.270 OA
ATOM     10  N   UNL     1     -14.247   5.584  22.802  0.00  0.00    -0.309 N 
ATOM     23  C   UNL     1     -14.714   6.502  21.865  0.00  0.00    +0.244 C 
ATOM     38  H   UNL     1     -13.272   5.305  22.802  0.00  0.00    +0.149 HD
BRANCH  23  26
ATOM     26  C   UNL     1     -13.740   6.939  20.831  0.00  0.00    +0.037 A 
ATOM     30  C   UNL     1     -12.373   6.750  21.037  0.00  0.00    +0.016 A 
ATOM     31  C   UNL     1     -14.191   7.539  19.655  0.00  0.00    +0.016 A 
ATOM     32  C   UNL     1     -11.459   7.160  20.067  0.00  0.00    +0.046 A 
ATOM     33  C   UNL     1     -13.277   7.950  18.686  0.00  0.00    +0.046 A 
ATOM     34  C   UNL     1     -11.910   7.761  18.892  0.00  0.00    +0.120 A 
BRANCH  34   7
ATOM      7  O   UNL     1     -11.018   8.161  17.945  0.00  0.00    -0.495 OA
ATOM     35  C   UNL     1     -10.189   9.277  18.267  0.00  0.00    +0.277 C 
ENDBRANCH  34   7
ENDBRANCH  23  26
ENDBRANCH  16  10
ENDBRANCH  14  16
TORSDOF 9
ENDMDL
MODEL 3
REMARK VINA RESULT:      -7.2     27.776     30.446
REMARK  Name = 40778178
REMARK  10 active torsions:
REMARK  status: ('A' for Active; 'I' for Inactive)
REMARK    1  A    between atoms: O_3  and  C_12
REMARK    2  A    between atoms: O_4  and  C_13
REMARK    3  A    between atoms: O_7  and  C_34
REMARK    4  A    between atoms: O_7  and  C_35
REMARK    5  A    between atoms: N_9  and  C_22
REMARK    6  A    between atoms: N_10  and  C_16
REMARK    7  A    between atoms: C_11  and  C_15
REMARK    8  A    between atoms: C_14  and  C_16
REMARK    9  A    between atoms: C_15  and  C_17
REMARK   10  A    between atoms: C_23  and  C_26
REMARK                            x       y       z     vdW  Elec       q    Type
REMARK                         _______ _______ _______ _____ _____    ______ ____
ROOT
ATOM      2  O   UNL     1      -3.881 -11.608  18.254  0.00  0.00    -0.366 OA
ATOM     11  C   UNL     1      -5.206 -12.015  18.666  0.00  0.00    +0.159 C 
ATOM     12  C   UNL     1      -5.850 -12.675  17.451  0.00  0.00    +0.175 C 
ATOM     13  C   UNL     1      -5.159 -11.969  16.305  0.00  0.00    +0.176 C 
ATOM     14  C   UNL     1      -3.743 -11.834  16.839  0.00  0.00    +0.167 C 
ENDROOT
BRANCH  12   3
ATOM      3  O   UNL     1      -5.502 -14.058  17.463  0.00  0.00    -0.387 OA
ATOM     36  H   UNL     1      -5.391 -14.322  18.393  0.00  0.00    +0.210 HD
ENDBRANCH  12   3
BRANCH  13   4
ATOM      4  O   UNL     1      -5.201 -12.693  15.094  0.00  0.00    -0.387 OA
ATOM     37  H   UNL     1      -4.801 -13.564  15.261  0.00  0.00    +0.210 HD
ENDBRANCH  13   4
BRANCH  11  15
ATOM     15  C   UNL     1      -5.950 -10.771  19.133  0.00  0.00    +0.130 C 
BRANCH  15  17
ATOM      5  O   UNL     1      -7.791 -11.954  20.054  0.00  0.00    -0.276 OA
ATOM      8  N   UNL     1      -8.285 -10.316  18.482  0.00  0.00    -0.298 N 
ATOM      9  N   UNL     1     -10.178  -8.658  17.050  0.00  0.00    -0.327 N 
ATOM     17  C   UNL     1      -7.421 -11.073  19.273  0.00  0.00    +0.218 C 
ATOM     18  C   UNL     1      -7.845  -9.271  17.554  0.00  0.00    +0.126 C 
ATOM     19  C   UNL     1      -9.726 -10.545  18.566  0.00  0.00    +0.126 C 
ATOM     20  C   UNL     1      -8.874  -8.977  16.463  0.00  0.00    +0.124 C 
ATOM     21  C   UNL     1     -10.522  -9.262  18.340  0.00  0.00    +0.124 C 
BRANCH   9  22
ATOM      1  F   UNL     1     -13.770  -5.390  14.422  0.00  0.00    -0.205 F 
ATOM     22  C   UNL     1     -11.083  -7.833  16.387  0.00  0.00    +0.030 A 
ATOM     24  C   UNL     1     -12.429  -8.193  16.315  0.00  0.00    +0.026 A 
ATOM     25  C   UNL     1     -10.645  -6.649  15.795  0.00  0.00    +0.026 A 
ATOM     27  C   UNL     1     -13.337  -7.367  15.651  0.00  0.00    +0.040 A 
ATOM     28  C   UNL     1     -11.552  -5.824  15.131  0.00  0.00    +0.040 A 
ATOM     29  C   UNL     1     -12.898  -6.182  15.060  0.00  0.00    +0.124 A 
ENDBRANCH   9  22
ENDBRANCH  15  17
ENDBRANCH  11  15
BRANCH  14  16
ATOM     16  C   UNL     1      -2.969 -10.687  16.214  0.00  0.00    +0.138 C 
BRANCH  16  10
ATOM      6  O   UNL     1      -1.796 -11.429  13.701  0.00  0.00    -0.270 OA
ATOM     10  N   UNL     1      -3.472 -10.373  14.909  0.00  0.00    -0.309 N 
ATOM     23  C   UNL     1      -2.835 -10.776  13.738  0.00  0.00    +0.244 C 
ATOM     38  H   UNL     1      -4.358  -9.882  14.866  0.00  0.00    +0.149 HD
BRANCH  23  26
ATOM     26  C   UNL     1      -3.470 -10.349  12.465  0.00  0.00    +0.037 A 
ATOM     30  C   UNL     1      -2.675 -10.005  11.371  0.00  0.00    +0.016 A 
ATOM     31  C   UNL     1      -4.860 -10.290  12.363  0.00  0.00    +0.016 A 
ATOM     32  C   UNL     1      -3.271  -9.604  10.175  0.00  0.00    +0.046 A 
ATOM     33  C   UNL     1      -5.456  -9.888  11.167  0.00  0.00    +0.046 A 
ATOM     34  C   UNL     1      -4.661  -9.545  10.073  0.00  0.00    +0.120 A 
BRANCH  34   7
ATOM      7  O   UNL     1      -5.243  -9.153   8.907  0.00  0.00    -0.495 OA
ATOM     35  C   UNL     1      -5.131 -10.043   7.796  0.00  0.00    +0.277 C 
ENDBRANCH  34   7
ENDBRANCH  23  26
ENDBRANCH  16  10
ENDBRANCH  14  16
TORSDOF 9
ENDMDL
MODEL 4
REMARK VINA RESULT:      -6.9     28.643     31.947
REMARK  Name = 40778178
REMARK  10 active torsions:
REMARK  status: ('A' for Active; 'I' for Inactive)
REMARK    1  A    between atoms: O_3  and  C_12
REMARK    2  A    between atoms: O_4  and  C_13
REMARK    3  A    between atoms: O_7  and  C_34
REMARK    4  A    between atoms: O_7  and  C_35
REMARK    5  A    between atoms: N_9  and  C_22
REMARK    6  A    between atoms: N_10  and  C_16
REMARK    7  A    between atoms: C_11  and  C_15
REMARK    8  A    between atoms: C_14  and  C_16
REMARK    9  A    between atoms: C_15  and  C_17
REMARK   10  A    between atoms: C_23  and  C_26
REMARK                            x       y       z     vdW  Elec       q    Type
REMARK                         _______ _______ _______ _____ _____    ______ ____
ROOT
ATOM      2  O   UNL     1     -15.649   1.350  31.513  0.00  0.00    -0.366 OA
ATOM     11  C   UNL     1     -15.424   1.274  30.087  0.00  0.00    +0.159 C 
ATOM     12  C   UNL     1     -14.040   1.865  29.838  0.00  0.00    +0.175 C 
ATOM     13  C   UNL     1     -13.905   2.847  30.983  0.00  0.00    +0.176 C 
ATOM     14  C   UNL     1     -14.569   2.085  32.117  0.00  0.00    +0.167 C 
ENDROOT
BRANCH  12   3
ATOM      3  O   UNL     1     -13.082   0.816  29.970  0.00  0.00    -0.387 OA
ATOM     36  H   UNL     1     -12.666   0.691  29.099  0.00  0.00    +0.210 HD
ENDBRANCH  12   3
BRANCH  13   4
ATOM      4  O   UNL     1     -12.567   3.179  31.280  0.00  0.00    -0.387 OA
ATOM     37  H   UNL     1     -12.556   4.103  31.582  0.00  0.00    +0.210 HD
ENDBRANCH  13   4
BRANCH  11  15
ATOM     15  C   UNL     1     -16.537   2.054  29.400  0.00  0.00    +0.130 C 
BRANCH  15  17
ATOM      5  O   UNL     1     -17.493   0.203  28.260  0.00  0.00    -0.276 OA
ATOM      8  N   UNL     1     -16.786   1.984  26.947  0.00  0.00    -0.298 N 
ATOM      9  N   UNL     1     -16.617   3.354  24.401  0.00  0.00    -0.327 N 
ATOM     17  C   UNL     1     -16.986   1.324  28.158  0.00  0.00    +0.218 C 
ATOM     18  C   UNL     1     -16.183   3.315  26.827  0.00  0.00    +0.126 C 
ATOM     19  C   UNL     1     -17.201   1.345  25.700  0.00  0.00    +0.126 C 
ATOM     20  C   UNL     1     -15.605   3.579  25.437  0.00  0.00    +0.124 C 
ATOM     21  C   UNL     1     -17.666   2.364  24.663  0.00  0.00    +0.124 C 
BRANCH   9  22
ATOM      1  F   UNL     1     -16.414   6.043  19.583  0.00  0.00    -0.205 F 
ATOM     22  C   UNL     1     -16.566   4.032  23.186  0.00  0.00    +0.030 A 
ATOM     24  C   UNL     1     -15.422   4.748  22.835  0.00  0.00    +0.026 A 
ATOM     25  C   UNL     1     -17.659   3.995  22.320  0.00  0.00    +0.026 A 
ATOM     27  C   UNL     1     -15.370   5.428  21.617  0.00  0.00    +0.040 A 
ATOM     28  C   UNL     1     -17.608   4.674  21.103  0.00  0.00    +0.040 A 
ATOM     29  C   UNL     1     -16.464   5.390  20.751  0.00  0.00    +0.124 A 
ENDBRANCH   9  22
ENDBRANCH  15  17
ENDBRANCH  11  15
BRANCH  14  16
ATOM     16  C   UNL     1     -15.115   2.986  33.210  0.00  0.00    +0.138 C 
BRANCH  16  10
ATOM      6  O   UNL     1     -14.631   4.704  35.459  0.00  0.00    -0.270 OA
ATOM     10  N   UNL     1     -14.486   4.273  33.183  0.00  0.00    -0.309 N 
ATOM     23  C   UNL     1     -14.291   5.041  34.328  0.00  0.00    +0.244 C 
ATOM     38  H   UNL     1     -14.130   4.589  32.288  0.00  0.00    +0.149 HD
BRANCH  23  26
ATOM     26  C   UNL     1     -13.645   6.365  34.129  0.00  0.00    +0.037 A 
ATOM     30  C   UNL     1     -13.457   6.861  32.839  0.00  0.00    +0.016 A 
ATOM     31  C   UNL     1     -13.226   7.111  35.230  0.00  0.00    +0.016 A 
ATOM     32  C   UNL     1     -12.851   8.103  32.651  0.00  0.00    +0.046 A 
ATOM     33  C   UNL     1     -12.618   8.352  35.043  0.00  0.00    +0.046 A 
ATOM     34  C   UNL     1     -12.431   8.849  33.752  0.00  0.00    +0.120 A 
BRANCH  34   7
ATOM      7  O   UNL     1     -11.840  10.060  33.570  0.00  0.00    -0.495 OA
ATOM     35  C   UNL     1     -10.529  10.063  33.005  0.00  0.00    +0.277 C 
ENDBRANCH  34   7
ENDBRANCH  23  26
ENDBRANCH  16  10
ENDBRANCH  14  16
TORSDOF 9
ENDMDL
MODEL 5
REMARK VINA RESULT:      -6.9     26.960     30.771
REMARK  Name = 40778178
REMARK  10 active torsions:
REMARK  status: ('A' for Active; 'I' for Inactive)
REMARK    1  A    between atoms: O_3  and  C_12
REMARK    2  A    between atoms: O_4  and  C_13
REMARK    3  A    between atoms: O_7  and  C_34
REMARK    4  A    between atoms: O_7  and  C_35
REMARK    5  A    between atoms: N_9  and  C_22
REMARK    6  A    between atoms: N_10  and  C_16
REMARK    7  A    between atoms: C_11  and  C_15
REMARK    8  A    between atoms: C_14  and  C_16
REMARK    9  A    between atoms: C_15  and  C_17
REMARK   10  A    between atoms: C_23  and  C_26
REMARK                            x       y       z     vdW  Elec       q    Type
REMARK                         _______ _______ _______ _____ _____    ______ ____
ROOT
ATOM      2  O   UNL     1     -15.651   4.266  22.579  0.00  0.00    -0.366 OA
ATOM     11  C   UNL     1     -17.025   3.815  22.539  0.00  0.00    +0.159 C 
ATOM     12  C   UNL     1     -17.726   4.668  21.487  0.00  0.00    +0.175 C 
ATOM     13  C   UNL     1     -16.929   5.954  21.540  0.00  0.00    +0.176 C 
ATOM     14  C   UNL     1     -15.518   5.429  21.743  0.00  0.00    +0.167 C 
ENDROOT
BRANCH  12   3
ATOM      3  O   UNL     1     -17.559   4.033  20.221  0.00  0.00    -0.387 OA
ATOM     36  H   UNL     1     -16.609   4.047  20.011  0.00  0.00    +0.210 HD
ENDBRANCH  12   3
BRANCH  13   4
ATOM      4  O   UNL     1     -17.042   6.731  20.367  0.00  0.00    -0.387 OA
ATOM     37  H   UNL     1     -16.143   6.883  20.031  0.00  0.00    +0.210 HD
ENDBRANCH  13   4
BRANCH  11  15
ATOM     15  C   UNL     1     -17.611   3.988  23.934  0.00  0.00    +0.130 C 
BRANCH  15  17
ATOM      5  O   UNL     1     -18.348   1.731  23.916  0.00  0.00    -0.276 OA
ATOM      8  N   UNL     1     -17.420   2.509  25.898  0.00  0.00    -0.298 N 
ATOM      9  N   UNL     1     -16.410   2.068  28.577  0.00  0.00    -0.327 N 
ATOM     17  C   UNL     1     -17.829   2.638  24.572  0.00  0.00    +0.218 C 
ATOM     18  C   UNL     1     -16.804   3.588  26.676  0.00  0.00    +0.126 C 
ATOM     19  C   UNL     1     -17.590   1.230  26.584  0.00  0.00    +0.126 C 
ATOM     20  C   UNL     1     -16.935   3.379  28.185  0.00  0.00    +0.124 C 
ATOM     21  C   UNL     1     -16.481   0.976  27.602  0.00  0.00    +0.124 C 
BRANCH   9  22
ATOM      1  F   UNL     1     -14.348   1.215  33.627  0.00  0.00    -0.205 F 
ATOM     22  C   UNL     1     -15.890   1.853  29.850  0.00  0.00    +0.030 A 
ATOM     24  C   UNL     1     -15.777   2.916  30.745  0.00  0.00    +0.026 A 
ATOM     25  C   UNL     1     -15.482   0.574  30.230  0.00  0.00    +0.026 A 
ATOM     27  C   UNL     1     -15.256   2.701  32.022  0.00  0.00    +0.040 A 
ATOM     28  C   UNL     1     -14.961   0.359  31.506  0.00  0.00    +0.040 A 
ATOM     29  C   UNL     1     -14.848   1.422  32.402  0.00  0.00    +0.124 A 
ENDBRANCH   9  22
ENDBRANCH  15  17
ENDBRANCH  11  15
BRANCH  14  16
ATOM     16  C   UNL     1     -14.592   6.433  22.409  0.00  0.00    +0.138 C 
BRANCH  16  10
ATOM      6  O   UNL     1     -11.941   5.797  21.511  0.00  0.00    -0.270 OA
ATOM     10  N   UNL     1     -13.823   7.152  21.438  0.00  0.00    -0.309 N 
ATOM     23  C   UNL     1     -12.538   6.770  21.060  0.00  0.00    +0.244 C 
ATOM     38  H   UNL     1     -14.278   7.937  20.984  0.00  0.00    +0.149 HD
BRANCH  23  26
ATOM     26  C   UNL     1     -11.863   7.636  20.059  0.00  0.00    +0.037 A 
ATOM     30  C   UNL     1     -11.557   8.960  20.377  0.00  0.00    +0.016 A 
ATOM     31  C   UNL     1     -11.537   7.128  18.802  0.00  0.00    +0.016 A 
ATOM     32  C   UNL     1     -10.924   9.774  19.437  0.00  0.00    +0.046 A 
ATOM     33  C   UNL     1     -10.905   7.941  17.862  0.00  0.00    +0.046 A 
ATOM     34  C   UNL     1     -10.598   9.265  18.180  0.00  0.00    +0.120 A 
BRANCH  34   7
ATOM      7  O   UNL     1      -9.980  10.058  17.263  0.00  0.00    -0.495 OA
ATOM     35  C   UNL     1     -10.440   9.969  15.914  0.00  0.00    +0.277 C 
ENDBRANCH  34   7
ENDBRANCH  23  26
ENDBRANCH  16  10
ENDBRANCH  14  16
TORSDOF 9
ENDMDL
MODEL 6
REMARK VINA RESULT:      -6.7     17.201     22.396
REMARK  Name = 40778178
REMARK  10 active torsions:
REMARK  status: ('A' for Active; 'I' for Inactive)
REMARK    1  A    between atoms: O_3  and  C_12
REMARK    2  A    between atoms: O_4  and  C_13
REMARK    3  A    between atoms: O_7  and  C_34
REMARK    4  A    between atoms: O_7  and  C_35
REMARK    5  A    between atoms: N_9  and  C_22
REMARK    6  A    between atoms: N_10  and  C_16
REMARK    7  A    between atoms: C_11  and  C_15
REMARK    8  A    between atoms: C_14  and  C_16
REMARK    9  A    between atoms: C_15  and  C_17
REMARK   10  A    between atoms: C_23  and  C_26
REMARK                            x       y       z     vdW  Elec       q    Type
REMARK                         _______ _______ _______ _____ _____    ______ ____
ROOT
ATOM      2  O   UNL     1      13.045   3.487   0.180  0.00  0.00    -0.366 OA
ATOM     11  C   UNL     1      14.327   3.680  -0.461  0.00  0.00    +0.159 C 
ATOM     12  C   UNL     1      15.249   4.282   0.594  0.00  0.00    +0.175 C 
ATOM     13  C   UNL     1      14.272   5.025   1.480  0.00  0.00    +0.176 C 
ATOM     14  C   UNL     1      13.087   4.074   1.493  0.00  0.00    +0.167 C 
ENDROOT
BRANCH  12   3
ATOM      3  O   UNL     1      15.854   3.209   1.315  0.00  0.00    -0.387 OA
ATOM     36  H   UNL     1      15.244   2.957   2.029  0.00  0.00    +0.210 HD
ENDBRANCH  12   3
BRANCH  13   4
ATOM      4  O   UNL     1      14.768   5.270   2.778  0.00  0.00    -0.387 OA
ATOM     37  H   UNL     1      15.209   6.137   2.763  0.00  0.00    +0.210 HD
ENDBRANCH  13   4
BRANCH  11  15
ATOM     15  C   UNL     1      14.114   4.597  -1.658  0.00  0.00    +0.130 C 
BRANCH  15  17
ATOM      5  O   UNL     1      13.050   3.035  -3.096  0.00  0.00    -0.276 OA
ATOM      8  N   UNL     1      11.819   4.914  -2.505  0.00  0.00    -0.298 N 
ATOM      9  N   UNL     1       9.342   6.413  -2.442  0.00  0.00    -0.327 N 
ATOM     17  C   UNL     1      12.952   4.102  -2.485  0.00  0.00    +0.218 C 
ATOM     18  C   UNL     1      11.705   6.183  -1.780  0.00  0.00    +0.126 C 
ATOM     19  C   UNL     1      10.650   4.501  -3.278  0.00  0.00    +0.126 C 
ATOM     20  C   UNL     1      10.632   7.103  -2.363  0.00  0.00    +0.124 C 
ATOM     21  C   UNL     1       9.345   4.959  -2.629  0.00  0.00    +0.124 C 
BRANCH   9  22
ATOM      1  F   UNL     1       4.589   9.212  -2.187  0.00  0.00    -0.205 F 
ATOM     22  C   UNL     1       8.143   7.118  -2.378  0.00  0.00    +0.030 A 
ATOM     24  C   UNL     1       8.094   8.351  -1.727  0.00  0.00    +0.026 A 
ATOM     25  C   UNL     1       6.992   6.592  -2.964  0.00  0.00    +0.026 A 
ATOM     27  C   UNL     1       6.893   9.058  -1.663  0.00  0.00    +0.040 A 
ATOM     28  C   UNL     1       5.791   7.299  -2.899  0.00  0.00    +0.040 A 
ATOM     29  C   UNL     1       5.742   8.532  -2.250  0.00  0.00    +0.124 A 
ENDBRANCH   9  22
ENDBRANCH  15  17
ENDBRANCH  11  15
BRANCH  14  16
ATOM     16  C   UNL     1      11.765   4.762   1.787  0.00  0.00    +0.138 C 
BRANCH  16  10
ATOM      6  O   UNL     1      11.174   7.074   3.382  0.00  0.00    -0.270 OA
ATOM     10  N   UNL     1      11.494   4.784   3.193  0.00  0.00    -0.309 N 
ATOM     23  C   UNL     1      11.216   5.957   3.890  0.00  0.00    +0.244 C 
ATOM     38  H   UNL     1      11.458   3.887   3.667  0.00  0.00    +0.149 HD
BRANCH  23  26
ATOM     26  C   UNL     1      10.982   5.814   5.350  0.00  0.00    +0.037 A 
ATOM     30  C   UNL     1       9.997   4.943   5.816  0.00  0.00    +0.016 A 
ATOM     31  C   UNL     1      11.745   6.552   6.255  0.00  0.00    +0.016 A 
ATOM     32  C   UNL     1       9.776   4.809   7.187  0.00  0.00    +0.046 A 
ATOM     33  C   UNL     1      11.524   6.419   7.626  0.00  0.00    +0.046 A 
ATOM     34  C   UNL     1      10.539   5.547   8.092  0.00  0.00    +0.120 A 
BRANCH  34   7
ATOM      7  O   UNL     1      10.325   5.417   9.429  0.00  0.00    -0.495 OA
ATOM     35  C   UNL     1       9.149   4.714   9.832  0.00  0.00    +0.277 C 
ENDBRANCH  34   7
ENDBRANCH  23  26
ENDBRANCH  16  10
ENDBRANCH  14  16
TORSDOF 9
ENDMDL
MODEL 7
REMARK VINA RESULT:      -6.7     27.572     31.257
REMARK  Name = 40778178
REMARK  10 active torsions:
REMARK  status: ('A' for Active; 'I' for Inactive)
REMARK    1  A    between atoms: O_3  and  C_12
REMARK    2  A    between atoms: O_4  and  C_13
REMARK    3  A    between atoms: O_7  and  C_34
REMARK    4  A    between atoms: O_7  and  C_35
REMARK    5  A    between atoms: N_9  and  C_22
REMARK    6  A    between atoms: N_10  and  C_16
REMARK    7  A    between atoms: C_11  and  C_15
REMARK    8  A    between atoms: C_14  and  C_16
REMARK    9  A    between atoms: C_15  and  C_17
REMARK   10  A    between atoms: C_23  and  C_26
REMARK                            x       y       z     vdW  Elec       q    Type
REMARK                         _______ _______ _______ _____ _____    ______ ____
ROOT
ATOM      2  O   UNL     1      -8.694 -10.626  19.544  0.00  0.00    -0.366 OA
ATOM     11  C   UNL     1      -9.842 -10.729  18.671  0.00  0.00    +0.159 C 
ATOM     12  C   UNL     1      -9.466 -11.729  17.582  0.00  0.00    +0.175 C 
ATOM     13  C   UNL     1      -7.964 -11.563  17.506  0.00  0.00    +0.176 C 
ATOM     14  C   UNL     1      -7.604 -11.370  18.970  0.00  0.00    +0.167 C 
ENDROOT
BRANCH  12   3
ATOM      3  O   UNL     1      -9.798 -13.036  18.049  0.00  0.00    -0.387 OA
ATOM     36  H   UNL     1     -10.289 -12.932  18.882  0.00  0.00    +0.210 HD
ENDBRANCH  12   3
BRANCH  13   4
ATOM      4  O   UNL     1      -7.306 -12.676  16.941  0.00  0.00    -0.387 OA
ATOM     37  H   UNL     1      -6.756 -12.350  16.209  0.00  0.00    +0.210 HD
ENDBRANCH  13   4
BRANCH  11  15
ATOM     15  C   UNL     1     -10.137  -9.338  18.126  0.00  0.00    +0.130 C 
BRANCH  15  17
ATOM      5  O   UNL     1     -12.426  -9.848  18.501  0.00  0.00    -0.276 OA
ATOM      8  N   UNL     1     -11.960  -8.331  16.803  0.00  0.00    -0.298 N 
ATOM      9  N   UNL     1     -12.805  -6.390  14.828  0.00  0.00    -0.327 N 
ATOM     17  C   UNL     1     -11.612  -9.201  17.836  0.00  0.00    +0.218 C 
ATOM     18  C   UNL     1     -10.992  -7.564  16.014  0.00  0.00    +0.126 C 
ATOM     19  C   UNL     1     -13.369  -8.139  16.467  0.00  0.00    +0.126 C 
ATOM     20  C   UNL     1     -11.548  -7.125  14.660  0.00  0.00    +0.124 C 
ATOM     21  C   UNL     1     -13.651  -6.720  15.978  0.00  0.00    +0.124 C 
BRANCH   9  22
ATOM      1  F   UNL     1     -14.396  -2.580  11.162  0.00  0.00    -0.205 F 
ATOM     22  C   UNL     1     -13.205  -5.429  13.903  0.00  0.00    +0.030 A 
ATOM     24  C   UNL     1     -14.561  -5.249  13.629  0.00  0.00    +0.026 A 
ATOM     25  C   UNL     1     -12.252  -4.648  13.251  0.00  0.00    +0.026 A 
ATOM     27  C   UNL     1     -14.964  -4.286  12.703  0.00  0.00    +0.040 A 
ATOM     28  C   UNL     1     -12.654  -3.686  12.325  0.00  0.00    +0.040 A 
ATOM     29  C   UNL     1     -14.009  -3.504  12.051  0.00  0.00    +0.124 A 
ENDBRANCH   9  22
ENDBRANCH  15  17
ENDBRANCH  11  15
BRANCH  14  16
ATOM     16  C   UNL     1      -6.305 -10.611  19.176  0.00  0.00    +0.138 C 
BRANCH  16  10
ATOM      6  O   UNL     1      -3.739 -11.786  18.648  0.00  0.00    -0.270 OA
ATOM     10  N   UNL     1      -5.558 -10.522  17.957  0.00  0.00    -0.309 N 
ATOM     23  C   UNL     1      -4.315 -11.126  17.787  0.00  0.00    +0.244 C 
ATOM     38  H   UNL     1      -6.001 -10.036  17.184  0.00  0.00    +0.149 HD
BRANCH  23  26
ATOM     26  C   UNL     1      -3.658 -10.918  16.471  0.00  0.00    +0.037 A 
ATOM     30  C   UNL     1      -2.275 -10.745  16.403  0.00  0.00    +0.016 A 
ATOM     31  C   UNL     1      -4.422 -10.894  15.304  0.00  0.00    +0.016 A 
ATOM     32  C   UNL     1      -1.657 -10.549  15.167  0.00  0.00    +0.046 A 
ATOM     33  C   UNL     1      -3.804 -10.697  14.069  0.00  0.00    +0.046 A 
ATOM     34  C   UNL     1      -2.422 -10.524  14.001  0.00  0.00    +0.120 A 
BRANCH  34   7
ATOM      7  O   UNL     1      -1.820 -10.333  12.796  0.00  0.00    -0.495 OA
ATOM     35  C   UNL     1      -2.639 -10.463  11.634  0.00  0.00    +0.277 C 
ENDBRANCH  34   7
ENDBRANCH  23  26
ENDBRANCH  16  10
ENDBRANCH  14  16
TORSDOF 9
ENDMDL
MODEL 8
REMARK VINA RESULT:      -6.7     15.158     19.458
REMARK  Name = 40778178
REMARK  10 active torsions:
REMARK  status: ('A' for Active; 'I' for Inactive)
REMARK    1  A    between atoms: O_3  and  C_12
REMARK    2  A    between atoms: O_4  and  C_13
REMARK    3  A    between atoms: O_7  and  C_34
REMARK    4  A    between atoms: O_7  and  C_35
REMARK    5  A    between atoms: N_9  and  C_22
REMARK    6  A    between atoms: N_10  and  C_16
REMARK    7  A    between atoms: C_11  and  C_15
REMARK    8  A    between atoms: C_14  and  C_16
REMARK    9  A    between atoms: C_15  and  C_17
REMARK   10  A    between atoms: C_23  and  C_26
REMARK                            x       y       z     vdW  Elec       q    Type
REMARK                         _______ _______ _______ _____ _____    ______ ____
ROOT
ATOM      2  O   UNL     1      11.102   6.918   7.354  0.00  0.00    -0.366 OA
ATOM     11  C   UNL     1      10.025   6.381   8.155  0.00  0.00    +0.159 C 
ATOM     12  C   UNL     1       9.665   5.031   7.542  0.00  0.00    +0.175 C 
ATOM     13  C   UNL     1      10.040   5.234   6.090  0.00  0.00    +0.176 C 
ATOM     14  C   UNL     1      11.307   6.063   6.215  0.00  0.00    +0.167 C 
ENDROOT
BRANCH  12   3
ATOM      3  O   UNL     1      10.502   4.040   8.136  0.00  0.00    -0.387 OA
ATOM     36  H   UNL     1      10.309   3.194   7.697  0.00  0.00    +0.210 HD
ENDBRANCH  12   3
BRANCH  13   4
ATOM      4  O   UNL     1      10.264   4.026   5.396  0.00  0.00    -0.387 OA
ATOM     37  H   UNL     1      10.805   4.234   4.615  0.00  0.00    +0.210 HD
ENDBRANCH  13   4
BRANCH  11  15
ATOM     15  C   UNL     1       8.875   7.378   8.116  0.00  0.00    +0.130 C 
BRANCH  15  17
ATOM      5  O   UNL     1      10.056   9.420   8.385  0.00  0.00    -0.276 OA
ATOM      8  N   UNL     1       9.010   9.084   6.339  0.00  0.00    -0.298 N 
ATOM      9  N   UNL     1       8.498   9.843   3.591  0.00  0.00    -0.327 N 
ATOM     17  C   UNL     1       9.373   8.719   7.635  0.00  0.00    +0.218 C 
ATOM     18  C   UNL     1       8.197   8.250   5.448  0.00  0.00    +0.126 C 
ATOM     19  C   UNL     1       9.459  10.365   5.798  0.00  0.00    +0.126 C 
ATOM     20  C   UNL     1       7.516   9.056   4.342  0.00  0.00    +0.124 C 
ATOM     21  C   UNL     1       9.703  10.295   4.292  0.00  0.00    +0.124 C 
BRANCH   9  22
ATOM      1  F   UNL     1       7.630  11.198  -1.690  0.00  0.00    -0.205 F 
ATOM     22  C   UNL     1       8.280  10.185   2.260  0.00  0.00    +0.030 A 
ATOM     24  C   UNL     1       7.419   9.417   1.475  0.00  0.00    +0.026 A 
ATOM     25  C   UNL     1       8.921  11.295   1.710  0.00  0.00    +0.026 A 
ATOM     27  C   UNL     1       7.200   9.759   0.140  0.00  0.00    +0.040 A 
ATOM     28  C   UNL     1       8.701  11.637   0.376  0.00  0.00    +0.040 A 
ATOM     29  C   UNL     1       7.841  10.870  -0.409  0.00  0.00    +0.124 A 
ENDBRANCH   9  22
ENDBRANCH  15  17
ENDBRANCH  11  15
BRANCH  14  16
ATOM     16  C   UNL     1      11.597   6.910   4.988  0.00  0.00    +0.138 C 
BRANCH  16  10
ATOM      6  O   UNL     1      10.056   6.727   2.573  0.00  0.00    -0.270 OA
ATOM     10  N   UNL     1      11.885   6.090   3.849  0.00  0.00    -0.309 N 
ATOM     23  C   UNL     1      11.079   6.064   2.714  0.00  0.00    +0.244 C 
ATOM     38  H   UNL     1      12.748   5.556   3.876  0.00  0.00    +0.149 HD
BRANCH  23  26
ATOM     26  C   UNL     1      11.502   5.141   1.629  0.00  0.00    +0.037 A 
ATOM     30  C   UNL     1      10.930   5.248   0.361  0.00  0.00    +0.016 A 
ATOM     31  C   UNL     1      12.468   4.166   1.878  0.00  0.00    +0.016 A 
ATOM     32  C   UNL     1      11.326   4.381  -0.658  0.00  0.00    +0.046 A 
ATOM     33  C   UNL     1      12.864   3.299   0.860  0.00  0.00    +0.046 A 
ATOM     34  C   UNL     1      12.292   3.407  -0.409  0.00  0.00    +0.120 A 
BRANCH  34   7
ATOM      7  O   UNL     1      12.679   2.561  -1.402  0.00  0.00    -0.495 OA
ATOM     35  C   UNL     1      11.687   2.187  -2.358  0.00  0.00    +0.277 C 
ENDBRANCH  34   7
ENDBRANCH  23  26
ENDBRANCH  16  10
ENDBRANCH  14  16
TORSDOF 9
ENDMDL
MODEL 9
REMARK VINA RESULT:      -6.7      1.519      2.180
REMARK  Name = 40778178
REMARK  10 active torsions:
REMARK  status: ('A' for Active; 'I' for Inactive)
REMARK    1  A    between atoms: O_3  and  C_12
REMARK    2  A    between atoms: O_4  and  C_13
REMARK    3  A    between atoms: O_7  and  C_34
REMARK    4  A    between atoms: O_7  and  C_35
REMARK    5  A    between atoms: N_9  and  C_22
REMARK    6  A    between atoms: N_10  and  C_16
REMARK    7  A    between atoms: C_11  and  C_15
REMARK    8  A    between atoms: C_14  and  C_16
REMARK    9  A    between atoms: C_15  and  C_17
REMARK   10  A    between atoms: C_23  and  C_26
REMARK                            x       y       z     vdW  Elec       q    Type
REMARK                         _______ _______ _______ _____ _____    ______ ____
ROOT
ATOM      2  O   UNL     1      11.682  12.068  25.432  0.00  0.00    -0.366 OA
ATOM     11  C   UNL     1      12.355  13.345  25.338  0.00  0.00    +0.159 C 
ATOM     12  C   UNL     1      11.756  14.059  24.131  0.00  0.00    +0.175 C 
ATOM     13  C   UNL     1      11.342  12.898  23.251  0.00  0.00    +0.176 C 
ATOM     14  C   UNL     1      10.837  11.901  24.279  0.00  0.00    +0.167 C 
ENDROOT
BRANCH  12   3
ATOM      3  O   UNL     1      10.607  14.781  24.570  0.00  0.00    -0.387 OA
ATOM     36  H   UNL     1      10.215  14.284  25.308  0.00  0.00    +0.210 HD
ENDBRANCH  12   3
BRANCH  13   4
ATOM      4  O   UNL     1      10.348  13.237  22.309  0.00  0.00    -0.387 OA
ATOM     37  H   UNL     1      10.320  14.207  22.250  0.00  0.00    +0.210 HD
ENDBRANCH  13   4
BRANCH  11  15
ATOM     15  C   UNL     1      13.846  13.073  25.189  0.00  0.00    +0.130 C 
BRANCH  15  17
ATOM      5  O   UNL     1      14.234  14.354  23.227  0.00  0.00    -0.276 OA
ATOM      8  N   UNL     1      14.642  12.072  23.080  0.00  0.00    -0.298 N 
ATOM      9  N   UNL     1      15.664   9.759  21.668  0.00  0.00    -0.327 N 
ATOM     17  C   UNL     1      14.258  13.235  23.746  0.00  0.00    +0.218 C 
ATOM     18  C   UNL     1      14.669  10.742  23.697  0.00  0.00    +0.126 C 
ATOM     19  C   UNL     1      15.060  12.147  21.682  0.00  0.00    +0.126 C 
ATOM     20  C   UNL     1      14.605   9.612  22.671  0.00  0.00    +0.124 C 
ATOM     21  C   UNL     1      16.133  11.111  21.351  0.00  0.00    +0.124 C 
BRANCH   9  22
ATOM      1  F   UNL     1      17.745   5.366  19.049  0.00  0.00    -0.205 F 
ATOM     22  C   UNL     1      16.188   8.651  21.008  0.00  0.00    +0.030 A 
ATOM     24  C   UNL     1      17.462   8.185  21.333  0.00  0.00    +0.026 A 
ATOM     25  C   UNL     1      15.440   8.008  20.021  0.00  0.00    +0.026 A 
ATOM     27  C   UNL     1      17.988   7.074  20.671  0.00  0.00    +0.040 A 
ATOM     28  C   UNL     1      15.966   6.899  19.360  0.00  0.00    +0.040 A 
ATOM     29  C   UNL     1      17.239   6.431  19.684  0.00  0.00    +0.124 A 
ENDBRANCH   9  22
ENDBRANCH  15  17
ENDBRANCH  11  15
BRANCH  14  16
ATOM     16  C   UNL     1      10.903  10.460  23.804  0.00  0.00    +0.138 C 
BRANCH  16  10
ATOM      6  O   UNL     1      10.706   8.170  22.084  0.00  0.00    -0.270 OA
ATOM     10  N   UNL     1      11.306  10.385  22.432  0.00  0.00    -0.309 N 
ATOM     23  C   UNL     1      11.173   9.228  21.669  0.00  0.00    +0.244 C 
ATOM     38  H   UNL     1      11.650  11.240  22.008  0.00  0.00    +0.149 HD
BRANCH  23  26
ATOM     26  C   UNL     1      11.662   9.305  20.268  0.00  0.00    +0.037 A 
ATOM     30  C   UNL     1      12.557  10.308  19.896  0.00  0.00    +0.016 A 
ATOM     31  C   UNL     1      11.225   8.376  19.323  0.00  0.00    +0.016 A 
ATOM     32  C   UNL     1      13.016  10.381  18.581  0.00  0.00    +0.046 A 
ATOM     33  C   UNL     1      11.682   8.449  18.008  0.00  0.00    +0.046 A 
ATOM     34  C   UNL     1      12.579   9.452  17.637  0.00  0.00    +0.120 A 
BRANCH  34   7
ATOM      7  O   UNL     1      13.026   9.523  16.354  0.00  0.00    -0.495 OA
ATOM     35  C   UNL     1      14.042   8.597  15.969  0.00  0.00    +0.277 C 
ENDBRANCH  34   7
ENDBRANCH  23  26
ENDBRANCH  16  10
ENDBRANCH  14  16
TORSDOF 9
ENDMDL
MODEL 10
REMARK VINA RESULT:      -6.7     15.045     17.098
REMARK  Name = 40778178
REMARK  10 active torsions:
REMARK  status: ('A' for Active; 'I' for Inactive)
REMARK    1  A    between atoms: O_3  and  C_12
REMARK    2  A    between atoms: O_4  and  C_13
REMARK    3  A    between atoms: O_7  and  C_34
REMARK    4  A    between atoms: O_7  and  C_35
REMARK    5  A    between atoms: N_9  and  C_22
REMARK    6  A    between atoms: N_10  and  C_16
REMARK    7  A    between atoms: C_11  and  C_15
REMARK    8  A    between atoms: C_14  and  C_16
REMARK    9  A    between atoms: C_15  and  C_17
REMARK   10  A    between atoms: C_23  and  C_26
REMARK                            x       y       z     vdW  Elec       q    Type
REMARK                         _______ _______ _______ _____ _____    ______ ____
ROOT
ATOM      2  O   UNL     1      11.216   6.326   6.425  0.00  0.00    -0.366 OA
ATOM     11  C   UNL     1      11.367   7.764   6.450  0.00  0.00    +0.159 C 
ATOM     12  C   UNL     1       9.972   8.338   6.672  0.00  0.00    +0.175 C 
ATOM     13  C   UNL     1       9.090   7.276   6.053  0.00  0.00    +0.176 C 
ATOM     14  C   UNL     1       9.814   6.003   6.459  0.00  0.00    +0.167 C 
ENDROOT
BRANCH  12   3
ATOM      3  O   UNL     1       9.745   8.413   8.079  0.00  0.00    -0.387 OA
ATOM     36  H   UNL     1       9.294   7.593   8.345  0.00  0.00    +0.210 HD
ENDBRANCH  12   3
BRANCH  13   4
ATOM      4  O   UNL     1       7.762   7.304   6.528  0.00  0.00    -0.387 OA
ATOM     37  H   UNL     1       7.795   7.522   7.475  0.00  0.00    +0.210 HD
ENDBRANCH  13   4
BRANCH  11  15
ATOM     15  C   UNL     1      11.981   8.189   5.123  0.00  0.00    +0.130 C 
BRANCH  15  17
ATOM      5  O   UNL     1      12.425  10.479   5.567  0.00  0.00    -0.276 OA
ATOM      8  N   UNL     1      14.269   9.103   5.245  0.00  0.00    -0.298 N 
ATOM      9  N   UNL     1      17.125   8.629   5.297  0.00  0.00    -0.327 N 
ATOM     17  C   UNL     1      12.902   9.365   5.335  0.00  0.00    +0.218 C 
ATOM     18  C   UNL     1      14.835   7.780   4.968  0.00  0.00    +0.126 C 
ATOM     19  C   UNL     1      15.225  10.189   5.446  0.00  0.00    +0.126 C 
ATOM     20  C   UNL     1      16.257   7.849   4.411  0.00  0.00    +0.124 C 
ATOM     21  C   UNL     1      16.518   9.700   6.094  0.00  0.00    +0.124 C 
BRANCH   9  22
ATOM      1  F   UNL     1      22.558   7.672   5.532  0.00  0.00    -0.205 F 
ATOM     22  C   UNL     1      18.495   8.388   5.357  0.00  0.00    +0.030 A 
ATOM     24  C   UNL     1      19.167   7.902   4.235  0.00  0.00    +0.026 A 
ATOM     25  C   UNL     1      19.196   8.632   6.538  0.00  0.00    +0.026 A 
ATOM     27  C   UNL     1      20.540   7.660   4.294  0.00  0.00    +0.040 A 
ATOM     28  C   UNL     1      20.568   8.390   6.597  0.00  0.00    +0.040 A 
ATOM     29  C   UNL     1      21.240   7.905   5.476  0.00  0.00    +0.124 A 
ENDBRANCH   9  22
ENDBRANCH  15  17
ENDBRANCH  11  15
BRANCH  14  16
ATOM     16  C   UNL     1       9.538   4.831   5.534  0.00  0.00    +0.138 C 
BRANCH  16  10
ATOM      6  O   UNL     1       9.858   5.913   2.895  0.00  0.00    -0.270 OA
ATOM     10  N   UNL     1      10.637   4.603   4.645  0.00  0.00    -0.309 N 
ATOM     23  C   UNL     1      10.711   5.172   3.376  0.00  0.00    +0.244 C 
ATOM     38  H   UNL     1      11.405   4.043   4.999  0.00  0.00    +0.149 HD
BRANCH  23  26
ATOM     26  C   UNL     1      11.904   4.817   2.565  0.00  0.00    +0.037 A 
ATOM     30  C   UNL     1      12.845   5.796   2.243  0.00  0.00    +0.016 A 
ATOM     31  C   UNL     1      12.084   3.506   2.123  0.00  0.00    +0.016 A 
ATOM     32  C   UNL     1      13.965   5.463   1.482  0.00  0.00    +0.046 A 
ATOM     33  C   UNL     1      13.204   3.173   1.361  0.00  0.00    +0.046 A 
ATOM     34  C   UNL     1      14.145   4.152   1.040  0.00  0.00    +0.120 A 
BRANCH  34   7
ATOM      7  O   UNL     1      15.237   3.827   0.297  0.00  0.00    -0.495 OA
ATOM     35  C   UNL     1      16.086   4.899  -0.112  0.00  0.00    +0.277 C 
ENDBRANCH  34   7
ENDBRANCH  23  26
ENDBRANCH  16  10
ENDBRANCH  14  16
TORSDOF 9
ENDMDL
