MODEL 1
REMARK VINA RESULT:      -5.6      0.000      0.000
REMARK  Name = 75367809
REMARK  7 active torsions:
REMARK  status: ('A' for Active; 'I' for Inactive)
REMARK    1  A    between atoms: O_2  and  C_13
REMARK    2  A    between atoms: O_2  and  C_17
REMARK    3  A    between atoms: O_3  and  C_18
REMARK    4  A    between atoms: O_3  and  C_19
REMARK    5  A    between atoms: N_4  and  C_6
REMARK    6  A    between atoms: N_5  and  C_16
REMARK    7  A    between atoms: C_17  and  C_18
REMARK                            x       y       z     vdW  Elec       q    Type
REMARK                         _______ _______ _______ _____ _____    ______ ____
ROOT
ATOM      1  O   UNL     1      14.305   6.724  19.933  0.00  0.00    -0.376 OA
ATOM      4  N   UNL     1      12.440   9.127  20.622  0.00  0.00    -0.295 NA
ATOM     11  C   UNL     1      11.784   8.675  19.390  0.00  0.00    +0.118 C 
ATOM     12  C   UNL     1      12.909   8.044  21.488  0.00  0.00    +0.113 C 
ATOM     13  C   UNL     1      12.347   7.425  18.695  0.00  0.00    +0.158 C 
ATOM     14  C   UNL     1      14.306   7.597  21.054  0.00  0.00    +0.175 C 
ATOM     15  C   UNL     1      13.866   7.323  18.719  0.00  0.00    +0.192 C 
ENDROOT
BRANCH   4   6
ATOM      5  N   UNL     1      11.236  12.160  23.348  0.00  0.00    -0.305 NA
ATOM      6  C   UNL     1      11.567  10.052  21.346  0.00  0.00    +0.059 C 
ATOM      7  C   UNL     1      11.997  11.498  21.088  0.00  0.00    +0.034 C 
ATOM      8  C   UNL     1      11.587   9.761  22.850  0.00  0.00    +0.034 C 
ATOM      9  C   UNL     1      11.159  12.476  21.915  0.00  0.00    +0.085 C 
ATOM     10  C   UNL     1      10.762  10.796  23.619  0.00  0.00    +0.085 C 
ATOM     16  C   UNL     1      10.472  13.132  24.128  0.00  0.00    +0.104 C 
ENDBRANCH   4   6
BRANCH  13   2
ATOM      2  O   UNL     1      11.929   7.450  17.330  0.00  0.00    -0.371 OA
BRANCH   2  17
ATOM     17  C   UNL     1      11.183   8.622  17.040  0.00  0.00    +0.188 C 
BRANCH  17  18
ATOM     18  C   UNL     1      11.609   9.159  15.688  0.00  0.00    +0.187 C 
BRANCH  18   3
ATOM      3  O   UNL     1      12.948   8.752  15.429  0.00  0.00    -0.381 OA
ATOM     19  C   UNL     1      13.871   9.798  15.700  0.00  0.00    +0.194 C 
ENDBRANCH  18   3
ENDBRANCH  17  18
ENDBRANCH   2  17
ENDBRANCH  13   2
TORSDOF 5
ENDMDL
MODEL 2
REMARK VINA RESULT:      -5.2      1.544      2.549
REMARK  Name = 75367809
REMARK  7 active torsions:
REMARK  status: ('A' for Active; 'I' for Inactive)
REMARK    1  A    between atoms: O_2  and  C_13
REMARK    2  A    between atoms: O_2  and  C_17
REMARK    3  A    between atoms: O_3  and  C_18
REMARK    4  A    between atoms: O_3  and  C_19
REMARK    5  A    between atoms: N_4  and  C_6
REMARK    6  A    between atoms: N_5  and  C_16
REMARK    7  A    between atoms: C_17  and  C_18
REMARK                            x       y       z     vdW  Elec       q    Type
REMARK                         _______ _______ _______ _____ _____    ______ ____
ROOT
ATOM      1  O   UNL     1      11.145   6.771  20.845  0.00  0.00    -0.376 OA
ATOM      4  N   UNL     1      11.985   9.414  22.269  0.00  0.00    -0.295 NA
ATOM     11  C   UNL     1      12.976   9.413  21.188  0.00  0.00    +0.118 C 
ATOM     12  C   UNL     1      10.651   8.966  21.867  0.00  0.00    +0.113 C 
ATOM     13  C   UNL     1      12.908   8.278  20.155  0.00  0.00    +0.158 C 
ATOM     14  C   UNL     1      10.565   7.442  21.955  0.00  0.00    +0.175 C 
ATOM     15  C   UNL     1      12.557   6.917  20.739  0.00  0.00    +0.192 C 
ENDROOT
BRANCH   4   6
ATOM      5  N   UNL     1      10.375  13.007  23.877  0.00  0.00    -0.305 NA
ATOM      6  C   UNL     1      11.938  10.731  22.907  0.00  0.00    +0.059 C 
ATOM      7  C   UNL     1      11.115  10.667  24.195  0.00  0.00    +0.034 C 
ATOM      8  C   UNL     1      11.344  11.778  21.959  0.00  0.00    +0.034 C 
ATOM      9  C   UNL     1      10.971  12.054  24.825  0.00  0.00    +0.085 C 
ATOM     10  C   UNL     1      11.192  13.129  22.662  0.00  0.00    +0.085 C 
ATOM     16  C   UNL     1      10.197  14.314  24.508  0.00  0.00    +0.104 C 
ENDBRANCH   4   6
BRANCH  13   2
ATOM      2  O   UNL     1      14.187   8.171  19.528  0.00  0.00    -0.371 OA
BRANCH   2  17
ATOM     17  C   UNL     1      14.213   8.862  18.289  0.00  0.00    +0.188 C 
BRANCH  17  18
ATOM     18  C   UNL     1      13.929   7.880  17.168  0.00  0.00    +0.187 C 
BRANCH  18   3
ATOM      3  O   UNL     1      13.134   8.522  16.179  0.00  0.00    -0.381 OA
ATOM     19  C   UNL     1      11.897   8.969  16.716  0.00  0.00    +0.194 C 
ENDBRANCH  18   3
ENDBRANCH  17  18
ENDBRANCH   2  17
ENDBRANCH  13   2
TORSDOF 5
ENDMDL
MODEL 3
REMARK VINA RESULT:      -5.2      3.070      6.337
REMARK  Name = 75367809
REMARK  7 active torsions:
REMARK  status: ('A' for Active; 'I' for Inactive)
REMARK    1  A    between atoms: O_2  and  C_13
REMARK    2  A    between atoms: O_2  and  C_17
REMARK    3  A    between atoms: O_3  and  C_18
REMARK    4  A    between atoms: O_3  and  C_19
REMARK    5  A    between atoms: N_4  and  C_6
REMARK    6  A    between atoms: N_5  and  C_16
REMARK    7  A    between atoms: C_17  and  C_18
REMARK                            x       y       z     vdW  Elec       q    Type
REMARK                         _______ _______ _______ _____ _____    ______ ____
ROOT
ATOM      1  O   UNL     1      11.644   7.417  18.802  0.00  0.00    -0.376 OA
ATOM      4  N   UNL     1      14.547   7.994  19.785  0.00  0.00    -0.295 NA
ATOM     11  C   UNL     1      13.871   7.950  21.085  0.00  0.00    +0.118 C 
ATOM     12  C   UNL     1      14.079   6.991  18.826  0.00  0.00    +0.113 C 
ATOM     13  C   UNL     1      12.370   7.623  21.103  0.00  0.00    +0.158 C 
ATOM     14  C   UNL     1      12.859   7.521  18.072  0.00  0.00    +0.175 C 
ATOM     15  C   UNL     1      11.578   8.243  19.959  0.00  0.00    +0.192 C 
ENDROOT
BRANCH   4   6
ATOM      5  N   UNL     1      18.304   6.858  21.422  0.00  0.00    -0.305 NA
ATOM      6  C   UNL     1      15.997   7.922  19.969  0.00  0.00    +0.059 C 
ATOM      7  C   UNL     1      16.483   6.481  19.788  0.00  0.00    +0.034 C 
ATOM      8  C   UNL     1      16.401   8.439  21.353  0.00  0.00    +0.034 C 
ATOM      9  C   UNL     1      17.983   6.368  20.073  0.00  0.00    +0.085 C 
ATOM     10  C   UNL     1      17.903   8.261  21.587  0.00  0.00    +0.085 C 
ATOM     16  C   UNL     1      19.730   6.696  21.698  0.00  0.00    +0.104 C 
ENDBRANCH   4   6
BRANCH  13   2
ATOM      2  O   UNL     1      11.823   8.107  22.330  0.00  0.00    -0.371 OA
BRANCH   2  17
ATOM     17  C   UNL     1      10.814   9.077  22.097  0.00  0.00    +0.188 C 
BRANCH  17  18
ATOM     18  C   UNL     1      10.928  10.171  23.142  0.00  0.00    +0.187 C 
BRANCH  18   3
ATOM      3  O   UNL     1      12.152  10.871  22.948  0.00  0.00    -0.381 OA
ATOM     19  C   UNL     1      12.185  12.076  23.700  0.00  0.00    +0.194 C 
ENDBRANCH  18   3
ENDBRANCH  17  18
ENDBRANCH   2  17
ENDBRANCH  13   2
TORSDOF 5
ENDMDL
MODEL 4
REMARK VINA RESULT:      -4.9     25.445     27.179
REMARK  Name = 75367809
REMARK  7 active torsions:
REMARK  status: ('A' for Active; 'I' for Inactive)
REMARK    1  A    between atoms: O_2  and  C_13
REMARK    2  A    between atoms: O_2  and  C_17
REMARK    3  A    between atoms: O_3  and  C_18
REMARK    4  A    between atoms: O_3  and  C_19
REMARK    5  A    between atoms: N_4  and  C_6
REMARK    6  A    between atoms: N_5  and  C_16
REMARK    7  A    between atoms: C_17  and  C_18
REMARK                            x       y       z     vdW  Elec       q    Type
REMARK                         _______ _______ _______ _____ _____    ______ ____
ROOT
ATOM      1  O   UNL     1      -1.930 -10.794  16.712  0.00  0.00    -0.376 OA
ATOM      4  N   UNL     1      -3.486 -11.052  14.022  0.00  0.00    -0.295 NA
ATOM     11  C   UNL     1      -4.593 -10.628  14.886  0.00  0.00    +0.118 C 
ATOM     12  C   UNL     1      -2.216 -10.377  14.293  0.00  0.00    +0.113 C 
ATOM     13  C   UNL     1      -4.275 -10.313  16.355  0.00  0.00    +0.158 C 
ATOM     14  C   UNL     1      -1.465 -11.107  15.407  0.00  0.00    +0.175 C 
ATOM     15  C   UNL     1      -3.251 -11.243  16.991  0.00  0.00    +0.192 C 
ENDROOT
BRANCH   4   6
ATOM      5  N   UNL     1      -4.322  -9.240  10.267  0.00  0.00    -0.305 NA
ATOM      6  C   UNL     1      -3.869 -10.926  12.615  0.00  0.00    +0.059 C 
ATOM      7  C   UNL     1      -2.717 -10.330  11.803  0.00  0.00    +0.034 C 
ATOM      8  C   UNL     1      -5.120 -10.056  12.463  0.00  0.00    +0.034 C 
ATOM      9  C   UNL     1      -3.132 -10.099  10.348  0.00  0.00    +0.085 C 
ATOM     10  C   UNL     1      -5.457  -9.834  10.986  0.00  0.00    +0.085 C 
ATOM     16  C   UNL     1      -4.676  -8.988   8.870  0.00  0.00    +0.104 C 
ENDBRANCH   4   6
BRANCH  13   2
ATOM      2  O   UNL     1      -5.487 -10.415  17.104  0.00  0.00    -0.371 OA
BRANCH   2  17
ATOM     17  C   UNL     1      -5.266 -11.040  18.359  0.00  0.00    +0.188 C 
BRANCH  17  18
ATOM     18  C   UNL     1      -6.181 -10.412  19.392  0.00  0.00    +0.187 C 
BRANCH  18   3
ATOM      3  O   UNL     1      -6.592 -11.412  20.316  0.00  0.00    -0.381 OA
ATOM     19  C   UNL     1      -7.487 -12.339  19.716  0.00  0.00    +0.194 C 
ENDBRANCH  18   3
ENDBRANCH  17  18
ENDBRANCH   2  17
ENDBRANCH  13   2
TORSDOF 5
ENDMDL
MODEL 5
REMARK VINA RESULT:      -4.8      2.450      3.473
REMARK  Name = 75367809
REMARK  7 active torsions:
REMARK  status: ('A' for Active; 'I' for Inactive)
REMARK    1  A    between atoms: O_2  and  C_13
REMARK    2  A    between atoms: O_2  and  C_17
REMARK    3  A    between atoms: O_3  and  C_18
REMARK    4  A    between atoms: O_3  and  C_19
REMARK    5  A    between atoms: N_4  and  C_6
REMARK    6  A    between atoms: N_5  and  C_16
REMARK    7  A    between atoms: C_17  and  C_18
REMARK                            x       y       z     vdW  Elec       q    Type
REMARK                         _______ _______ _______ _____ _____    ______ ____
ROOT
ATOM      1  O   UNL     1      11.204   6.566  20.761  0.00  0.00    -0.376 OA
ATOM      4  N   UNL     1      12.154   9.211  22.112  0.00  0.00    -0.295 NA
ATOM     11  C   UNL     1      13.098   9.176  20.991  0.00  0.00    +0.118 C 
ATOM     12  C   UNL     1      10.795   8.784  21.771  0.00  0.00    +0.113 C 
ATOM     13  C   UNL     1      12.966   8.029  19.977  0.00  0.00    +0.158 C 
ATOM     14  C   UNL     1      10.684   7.263  21.884  0.00  0.00    +0.175 C 
ATOM     15  C   UNL     1      12.613   6.683  20.595  0.00  0.00    +0.192 C 
ENDROOT
BRANCH   4   6
ATOM      5  N   UNL     1      12.713  13.404  22.548  0.00  0.00    -0.305 NA
ATOM      6  C   UNL     1      12.158  10.537  22.733  0.00  0.00    +0.059 C 
ATOM      7  C   UNL     1      11.261  11.494  21.944  0.00  0.00    +0.034 C 
ATOM      8  C   UNL     1      13.580  11.100  22.812  0.00  0.00    +0.034 C 
ATOM      9  C   UNL     1      11.329  12.911  22.519  0.00  0.00    +0.085 C 
ATOM     10  C   UNL     1      13.573  12.530  23.359  0.00  0.00    +0.085 C 
ATOM     16  C   UNL     1      12.756  14.776  23.053  0.00  0.00    +0.104 C 
ENDBRANCH   4   6
BRANCH  13   2
ATOM      2  O   UNL     1      14.215   7.888  19.300  0.00  0.00    -0.371 OA
BRANCH   2  17
ATOM     17  C   UNL     1      15.260   8.539  20.006  0.00  0.00    +0.188 C 
BRANCH  17  18
ATOM     18  C   UNL     1      16.407   7.567  20.201  0.00  0.00    +0.187 C 
BRANCH  18   3
ATOM      3  O   UNL     1      16.062   6.319  19.610  0.00  0.00    -0.381 OA
ATOM     19  C   UNL     1      17.142   5.784  18.858  0.00  0.00    +0.194 C 
ENDBRANCH  18   3
ENDBRANCH  17  18
ENDBRANCH   2  17
ENDBRANCH  13   2
TORSDOF 5
ENDMDL
MODEL 6
REMARK VINA RESULT:      -4.7     26.042     27.743
REMARK  Name = 75367809
REMARK  7 active torsions:
REMARK  status: ('A' for Active; 'I' for Inactive)
REMARK    1  A    between atoms: O_2  and  C_13
REMARK    2  A    between atoms: O_2  and  C_17
REMARK    3  A    between atoms: O_3  and  C_18
REMARK    4  A    between atoms: O_3  and  C_19
REMARK    5  A    between atoms: N_4  and  C_6
REMARK    6  A    between atoms: N_5  and  C_16
REMARK    7  A    between atoms: C_17  and  C_18
REMARK                            x       y       z     vdW  Elec       q    Type
REMARK                         _______ _______ _______ _____ _____    ______ ____
ROOT
ATOM      1  O   UNL     1      -7.162 -10.677  20.003  0.00  0.00    -0.376 OA
ATOM      4  N   UNL     1      -5.830 -11.368  17.269  0.00  0.00    -0.295 NA
ATOM     11  C   UNL     1      -6.945 -10.551  16.779  0.00  0.00    +0.118 C 
ATOM     12  C   UNL     1      -5.211 -10.870  18.499  0.00  0.00    +0.113 C 
ATOM     13  C   UNL     1      -7.881  -9.917  17.820  0.00  0.00    +0.158 C 
ATOM     14  C   UNL     1      -5.972 -11.397  19.716  0.00  0.00    +0.175 C 
ATOM     15  C   UNL     1      -8.182 -10.807  19.018  0.00  0.00    +0.192 C 
ENDROOT
BRANCH   4   6
ATOM      5  N   UNL     1      -2.905 -10.409  14.335  0.00  0.00    -0.305 NA
ATOM      6  C   UNL     1      -4.839 -11.555  16.209  0.00  0.00    +0.059 C 
ATOM      7  C   UNL     1      -3.473 -11.033  16.662  0.00  0.00    +0.034 C 
ATOM      8  C   UNL     1      -5.270 -10.843  14.923  0.00  0.00    +0.034 C 
ATOM      9  C   UNL     1      -2.446 -11.130  15.531  0.00  0.00    +0.085 C 
ATOM     10  C   UNL     1      -4.184 -10.945  13.849  0.00  0.00    +0.085 C 
ATOM     16  C   UNL     1      -1.892 -10.468  13.282  0.00  0.00    +0.104 C 
ENDBRANCH   4   6
BRANCH  13   2
ATOM      2  O   UNL     1      -9.119  -9.612  17.176  0.00  0.00    -0.371 OA
BRANCH   2  17
ATOM     17  C   UNL     1      -9.357  -8.214  17.153  0.00  0.00    +0.188 C 
BRANCH  17  18
ATOM     18  C   UNL     1     -10.469  -7.917  16.166  0.00  0.00    +0.187 C 
BRANCH  18   3
ATOM      3  O   UNL     1     -10.240  -6.641  15.579  0.00  0.00    -0.381 OA
ATOM     19  C   UNL     1     -11.442  -5.889  15.482  0.00  0.00    +0.194 C 
ENDBRANCH  18   3
ENDBRANCH  17  18
ENDBRANCH   2  17
ENDBRANCH  13   2
TORSDOF 5
ENDMDL
MODEL 7
REMARK VINA RESULT:      -4.7     25.240     26.669
REMARK  Name = 75367809
REMARK  7 active torsions:
REMARK  status: ('A' for Active; 'I' for Inactive)
REMARK    1  A    between atoms: O_2  and  C_13
REMARK    2  A    between atoms: O_2  and  C_17
REMARK    3  A    between atoms: O_3  and  C_18
REMARK    4  A    between atoms: O_3  and  C_19
REMARK    5  A    between atoms: N_4  and  C_6
REMARK    6  A    between atoms: N_5  and  C_16
REMARK    7  A    between atoms: C_17  and  C_18
REMARK                            x       y       z     vdW  Elec       q    Type
REMARK                         _______ _______ _______ _____ _____    ______ ____
ROOT
ATOM      1  O   UNL     1      -1.442 -11.195  14.848  0.00  0.00    -0.376 OA
ATOM      4  N   UNL     1      -4.137 -10.227  16.080  0.00  0.00    -0.295 NA
ATOM     11  C   UNL     1      -4.629 -10.662  14.769  0.00  0.00    +0.118 C 
ATOM     12  C   UNL     1      -3.117 -11.099  16.663  0.00  0.00    +0.113 C 
ATOM     13  C   UNL     1      -3.620 -11.293  13.798  0.00  0.00    +0.158 C 
ATOM     14  C   UNL     1      -1.734 -10.700  16.147  0.00  0.00    +0.175 C 
ATOM     15  C   UNL     1      -2.244 -10.641  13.811  0.00  0.00    +0.192 C 
ENDROOT
BRANCH   4   6
ATOM      5  N   UNL     1      -7.530 -11.133  18.479  0.00  0.00    -0.305 NA
ATOM      6  C   UNL     1      -5.260 -10.029  16.999  0.00  0.00    +0.059 C 
ATOM      7  C   UNL     1      -5.078 -10.890  18.251  0.00  0.00    +0.034 C 
ATOM      8  C   UNL     1      -6.590 -10.369  16.320  0.00  0.00    +0.034 C 
ATOM      9  C   UNL     1      -6.289 -10.773  19.180  0.00  0.00    +0.085 C 
ATOM     10  C   UNL     1      -7.752 -10.269  17.312  0.00  0.00    +0.085 C 
ATOM     16  C   UNL     1      -8.671 -11.065  19.391  0.00  0.00    +0.104 C 
ENDBRANCH   4   6
BRANCH  13   2
ATOM      2  O   UNL     1      -4.147 -11.181  12.475  0.00  0.00    -0.371 OA
BRANCH   2  17
ATOM     17  C   UNL     1      -3.115 -11.240  11.503  0.00  0.00    +0.188 C 
BRANCH  17  18
ATOM     18  C   UNL     1      -3.583 -10.543  10.240  0.00  0.00    +0.187 C 
BRANCH  18   3
ATOM      3  O   UNL     1      -3.457  -9.136  10.412  0.00  0.00    -0.381 OA
ATOM     19  C   UNL     1      -4.699  -8.474  10.217  0.00  0.00    +0.194 C 
ENDBRANCH  18   3
ENDBRANCH  17  18
ENDBRANCH   2  17
ENDBRANCH  13   2
TORSDOF 5
ENDMDL
MODEL 8
REMARK VINA RESULT:      -4.7     23.573     24.711
REMARK  Name = 75367809
REMARK  7 active torsions:
REMARK  status: ('A' for Active; 'I' for Inactive)
REMARK    1  A    between atoms: O_2  and  C_13
REMARK    2  A    between atoms: O_2  and  C_17
REMARK    3  A    between atoms: O_3  and  C_18
REMARK    4  A    between atoms: O_3  and  C_19
REMARK    5  A    between atoms: N_4  and  C_6
REMARK    6  A    between atoms: N_5  and  C_16
REMARK    7  A    between atoms: C_17  and  C_18
REMARK                            x       y       z     vdW  Elec       q    Type
REMARK                         _______ _______ _______ _____ _____    ______ ____
ROOT
ATOM      1  O   UNL     1     -11.341  12.198  19.017  0.00  0.00    -0.376 OA
ATOM      4  N   UNL     1     -12.208   9.456  20.223  0.00  0.00    -0.295 NA
ATOM     11  C   UNL     1     -11.149   8.985  19.324  0.00  0.00    +0.118 C 
ATOM     12  C   UNL     1     -11.903  10.712  20.910  0.00  0.00    +0.113 C 
ATOM     13  C   UNL     1     -10.363  10.038  18.528  0.00  0.00    +0.158 C 
ATOM     14  C   UNL     1     -12.294  11.898  20.027  0.00  0.00    +0.175 C 
ATOM     15  C   UNL     1     -11.208  11.196  18.014  0.00  0.00    +0.192 C 
ENDROOT
BRANCH   4   6
ATOM      5  N   UNL     1     -14.028   5.935  21.763  0.00  0.00    -0.305 NA
ATOM      6  C   UNL     1     -12.569   8.401  21.171  0.00  0.00    +0.059 C 
ATOM      7  C   UNL     1     -12.116   7.037  20.645  0.00  0.00    +0.034 C 
ATOM      8  C   UNL     1     -14.079   8.387  21.427  0.00  0.00    +0.034 C 
ATOM      9  C   UNL     1     -12.571   5.910  21.576  0.00  0.00    +0.085 C 
ATOM     10  C   UNL     1     -14.470   7.216  22.332  0.00  0.00    +0.085 C 
ATOM     16  C   UNL     1     -14.453   4.824  22.613  0.00  0.00    +0.104 C 
ENDBRANCH   4   6
BRANCH  13   2
ATOM      2  O   UNL     1      -9.771   9.392  17.400  0.00  0.00    -0.371 OA
BRANCH   2  17
ATOM     17  C   UNL     1     -10.587   8.332  16.927  0.00  0.00    +0.188 C 
BRANCH  17  18
ATOM     18  C   UNL     1     -10.636   8.383  15.412  0.00  0.00    +0.187 C 
BRANCH  18   3
ATOM      3  O   UNL     1     -11.977   8.619  15.000  0.00  0.00    -0.381 OA
ATOM     19  C   UNL     1     -12.890   8.447  16.075  0.00  0.00    +0.194 C 
ENDBRANCH  18   3
ENDBRANCH  17  18
ENDBRANCH   2  17
ENDBRANCH  13   2
TORSDOF 5
ENDMDL
MODEL 9
REMARK VINA RESULT:      -4.5     14.141     18.510
REMARK  Name = 75367809
REMARK  7 active torsions:
REMARK  status: ('A' for Active; 'I' for Inactive)
REMARK    1  A    between atoms: O_2  and  C_13
REMARK    2  A    between atoms: O_2  and  C_17
REMARK    3  A    between atoms: O_3  and  C_18
REMARK    4  A    between atoms: O_3  and  C_19
REMARK    5  A    between atoms: N_4  and  C_6
REMARK    6  A    between atoms: N_5  and  C_16
REMARK    7  A    between atoms: C_17  and  C_18
REMARK                            x       y       z     vdW  Elec       q    Type
REMARK                         _______ _______ _______ _____ _____    ______ ____
ROOT
ATOM      1  O   UNL     1      11.998   7.462   4.692  0.00  0.00    -0.376 OA
ATOM      4  N   UNL     1      11.821   5.018   2.764  0.00  0.00    -0.295 NA
ATOM     11  C   UNL     1      10.703   4.688   3.655  0.00  0.00    +0.118 C 
ATOM     12  C   UNL     1      11.936   6.442   2.443  0.00  0.00    +0.113 C 
ATOM     13  C   UNL     1      10.361   5.682   4.775  0.00  0.00    +0.158 C 
ATOM     14  C   UNL     1      12.747   7.156   3.525  0.00  0.00    +0.175 C 
ATOM     15  C   UNL     1      11.572   6.325   5.435  0.00  0.00    +0.192 C 
ENDROOT
BRANCH   4   6
ATOM      5  N   UNL     1      12.397   3.835  -1.279  0.00  0.00    -0.305 NA
ATOM      6  C   UNL     1      11.758   4.199   1.553  0.00  0.00    +0.059 C 
ATOM      7  C   UNL     1      13.170   3.856   1.072  0.00  0.00    +0.034 C 
ATOM      8  C   UNL     1      10.989   4.921   0.442  0.00  0.00    +0.034 C 
ATOM      9  C   UNL     1      13.127   3.082  -0.249  0.00  0.00    +0.085 C 
ATOM     10  C   UNL     1      11.018   4.114  -0.858  0.00  0.00    +0.085 C 
ATOM     16  C   UNL     1      12.408   3.107  -2.548  0.00  0.00    +0.104 C 
ENDBRANCH   4   6
BRANCH  13   2
ATOM      2  O   UNL     1       9.631   4.981   5.783  0.00  0.00    -0.371 OA
BRANCH   2  17
ATOM     17  C   UNL     1       9.567   5.730   6.987  0.00  0.00    +0.188 C 
BRANCH  17  18
ATOM     18  C   UNL     1       9.645   4.779   8.166  0.00  0.00    +0.187 C 
BRANCH  18   3
ATOM      3  O   UNL     1       9.187   5.449   9.334  0.00  0.00    -0.381 OA
ATOM     19  C   UNL     1       8.921   4.535  10.388  0.00  0.00    +0.194 C 
ENDBRANCH  18   3
ENDBRANCH  17  18
ENDBRANCH   2  17
ENDBRANCH  13   2
TORSDOF 5
ENDMDL
MODEL 10
REMARK VINA RESULT:      -4.5      2.242      2.871
REMARK  Name = 75367809
REMARK  7 active torsions:
REMARK  status: ('A' for Active; 'I' for Inactive)
REMARK    1  A    between atoms: O_2  and  C_13
REMARK    2  A    between atoms: O_2  and  C_17
REMARK    3  A    between atoms: O_3  and  C_18
REMARK    4  A    between atoms: O_3  and  C_19
REMARK    5  A    between atoms: N_4  and  C_6
REMARK    6  A    between atoms: N_5  and  C_16
REMARK    7  A    between atoms: C_17  and  C_18
REMARK                            x       y       z     vdW  Elec       q    Type
REMARK                         _______ _______ _______ _____ _____    ______ ____
ROOT
ATOM      1  O   UNL     1      10.627   6.798  21.285  0.00  0.00    -0.376 OA
ATOM      4  N   UNL     1      12.366   9.311  21.905  0.00  0.00    -0.295 NA
ATOM     11  C   UNL     1      12.998   8.901  20.646  0.00  0.00    +0.118 C 
ATOM     12  C   UNL     1      10.910   9.168  21.925  0.00  0.00    +0.113 C 
ATOM     13  C   UNL     1      12.410   7.687  19.911  0.00  0.00    +0.158 C 
ATOM     14  C   UNL     1      10.531   7.746  22.339  0.00  0.00    +0.175 C 
ATOM     15  C   UNL     1      11.953   6.559  20.826  0.00  0.00    +0.192 C 
ENDROOT
BRANCH   4   6
ATOM      5  N   UNL     1      14.407  13.036  21.693  0.00  0.00    -0.305 NA
ATOM      6  C   UNL     1      12.776  10.672  22.254  0.00  0.00    +0.059 C 
ATOM      7  C   UNL     1      12.454  11.633  21.106  0.00  0.00    +0.034 C 
ATOM      8  C   UNL     1      14.271  10.729  22.579  0.00  0.00    +0.034 C 
ATOM      9  C   UNL     1      12.964  13.044  21.412  0.00  0.00    +0.085 C 
ATOM     10  C   UNL     1      14.722  12.169  22.836  0.00  0.00    +0.085 C 
ATOM     16  C   UNL     1      14.888  14.396  21.932  0.00  0.00    +0.104 C 
ENDBRANCH   4   6
BRANCH  13   2
ATOM      2  O   UNL     1      13.414   7.167  19.039  0.00  0.00    -0.371 OA
BRANCH   2  17
ATOM     17  C   UNL     1      14.254   8.200  18.546  0.00  0.00    +0.188 C 
BRANCH  17  18
ATOM     18  C   UNL     1      14.138   8.253  17.035  0.00  0.00    +0.187 C 
BRANCH  18   3
ATOM      3  O   UNL     1      12.789   7.993  16.664  0.00  0.00    -0.381 OA
ATOM     19  C   UNL     1      12.085   9.196  16.388  0.00  0.00    +0.194 C 
ENDBRANCH  18   3
ENDBRANCH  17  18
ENDBRANCH   2  17
ENDBRANCH  13   2
TORSDOF 5
ENDMDL
