MODEL 1
REMARK VINA RESULT:      -6.4      0.000      0.000
REMARK  Name = 56775669
REMARK  9 active torsions:
REMARK  status: ('A' for Active; 'I' for Inactive)
REMARK    1  A    between atoms: N_4  and  C_7
REMARK    2  A    between atoms: N_4  and  C_8
REMARK    3  A    between atoms: C_7  and  C_11
REMARK    4  A    between atoms: C_11  and  C_16
REMARK    5  A    between atoms: C_17  and  C_21
REMARK    6  A    between atoms: C_19  and  C_20
REMARK    7  A    between atoms: C_20  and  C_22
REMARK    8  A    between atoms: C_22  and  C_23
REMARK    9  A    between atoms: C_22  and  C_24
REMARK                            x       y       z     vdW  Elec       q    Type
REMARK                         _______ _______ _______ _____ _____    ______ ____
ROOT
ATOM      1  O   UNL     1      10.716   8.691  21.260  0.00  0.00    -0.376 OA
ATOM      7  C   UNL     1      12.348   7.426  20.720  0.00  0.00    +0.072 C 
ATOM      9  C   UNL     1      11.936   8.878  20.509  0.00  0.00    +0.184 C 
ATOM     10  C   UNL     1      11.000   7.282  21.416  0.00  0.00    +0.184 C 
ENDROOT
BRANCH   7   4
ATOM      4  N   UNL     1      13.409   7.379  21.730  0.00  0.00    -0.304 NA
ATOM     25  H   UNL     1      13.469   6.508  22.256  0.00  0.00    +0.123 HD
BRANCH   4   8
ATOM      3  O   UNL     1      19.512   6.628  21.677  0.00  0.00    -0.276 OA
ATOM      5  N   UNL     1      17.580   7.832  21.216  0.00  0.00    -0.302 N 
ATOM      8  C   UNL     1      14.691   7.676  21.096  0.00  0.00    +0.057 C 
ATOM     12  C   UNL     1      15.404   8.805  21.851  0.00  0.00    +0.037 C 
ATOM     13  C   UNL     1      15.567   6.417  21.063  0.00  0.00    +0.037 C 
ATOM     14  C   UNL     1      16.790   9.069  21.263  0.00  0.00    +0.109 C 
ATOM     15  C   UNL     1      16.948   6.728  20.490  0.00  0.00    +0.109 C 
ATOM     17  C   UNL     1      18.852   7.667  21.761  0.00  0.00    +0.212 C 
ATOM     21  C   UNL     1      19.432   8.850  22.495  0.00  0.00    +0.109 C 
ENDBRANCH   4   8
ENDBRANCH   7   4
BRANCH   7  11
ATOM     11  C   UNL     1      12.643   6.574  19.525  0.00  0.00    +0.085 C 
BRANCH  11  16
ATOM      2  O   UNL     1      12.210   8.455  16.469  0.00  0.00    -0.359 OA
ATOM      6  N   UNL     1      11.733   7.653  17.500  0.00  0.00    -0.083 NA
ATOM     16  C   UNL     1      12.793   7.426  18.281  0.00  0.00    +0.086 A 
ATOM     18  C   UNL     1      13.955   8.051  17.798  0.00  0.00    +0.071 A 
ATOM     19  C   UNL     1      13.534   8.685  16.658  0.00  0.00    +0.138 A 
BRANCH  19  20
ATOM     20  C   UNL     1      14.205   9.520  15.655  0.00  0.00    +0.080 C 
BRANCH  20  22
ATOM     22  C   UNL     1      14.070  11.057  15.870  0.00  0.00    -0.010 C 
ATOM     23  C   UNL     1      13.907  11.790  14.536  0.00  0.00    +0.007 C 
ATOM     24  C   UNL     1      15.274  11.625  16.626  0.00  0.00    +0.007 C 
ENDBRANCH  20  22
ENDBRANCH  19  20
ENDBRANCH  11  16
ENDBRANCH   7  11
TORSDOF 6
ENDMDL
MODEL 2
REMARK VINA RESULT:      -6.2      3.316      6.551
REMARK  Name = 56775669
REMARK  9 active torsions:
REMARK  status: ('A' for Active; 'I' for Inactive)
REMARK    1  A    between atoms: N_4  and  C_7
REMARK    2  A    between atoms: N_4  and  C_8
REMARK    3  A    between atoms: C_7  and  C_11
REMARK    4  A    between atoms: C_11  and  C_16
REMARK    5  A    between atoms: C_17  and  C_21
REMARK    6  A    between atoms: C_19  and  C_20
REMARK    7  A    between atoms: C_20  and  C_22
REMARK    8  A    between atoms: C_22  and  C_23
REMARK    9  A    between atoms: C_22  and  C_24
REMARK                            x       y       z     vdW  Elec       q    Type
REMARK                         _______ _______ _______ _____ _____    ______ ____
ROOT
ATOM      1  O   UNL     1      11.577   6.677  20.398  0.00  0.00    -0.376 OA
ATOM      7  C   UNL     1      12.933   8.278  20.790  0.00  0.00    +0.072 C 
ATOM      9  C   UNL     1      11.549   8.105  20.176  0.00  0.00    +0.184 C 
ATOM     10  C   UNL     1      12.930   6.759  20.904  0.00  0.00    +0.184 C 
ENDROOT
BRANCH   7   4
ATOM      4  N   UNL     1      12.785   8.853  22.130  0.00  0.00    -0.304 NA
ATOM     25  H   UNL     1      13.517   8.600  22.794  0.00  0.00    +0.123 HD
BRANCH   4   8
ATOM      3  O   UNL     1      12.464  14.296  24.974  0.00  0.00    -0.276 OA
ATOM      5  N   UNL     1      12.028  12.875  23.189  0.00  0.00    -0.302 N 
ATOM      8  C   UNL     1      12.680  10.306  22.022  0.00  0.00    +0.057 C 
ATOM     12  C   UNL     1      11.226  10.747  22.231  0.00  0.00    +0.037 C 
ATOM     13  C   UNL     1      13.597  10.979  23.052  0.00  0.00    +0.037 C 
ATOM     14  C   UNL     1      11.107  12.271  22.217  0.00  0.00    +0.109 C 
ATOM     15  C   UNL     1      13.433  12.497  23.020  0.00  0.00    +0.109 C 
ATOM     17  C   UNL     1      11.666  13.774  24.191  0.00  0.00    +0.212 C 
ATOM     21  C   UNL     1      10.200  14.110  24.301  0.00  0.00    +0.109 C 
ENDBRANCH   4   8
ENDBRANCH   7   4
BRANCH   7  11
ATOM     11  C   UNL     1      14.006   8.945  19.985  0.00  0.00    +0.085 C 
BRANCH  11  16
ATOM      2  O   UNL     1      17.201   8.328  21.557  0.00  0.00    -0.359 OA
ATOM      6  N   UNL     1      15.989   9.001  21.454  0.00  0.00    -0.083 NA
ATOM     16  C   UNL     1      15.376   8.452  20.401  0.00  0.00    +0.086 A 
ATOM     18  C   UNL     1      16.145   7.437  19.806  0.00  0.00    +0.071 A 
ATOM     19  C   UNL     1      17.281   7.399  20.571  0.00  0.00    +0.138 A 
BRANCH  19  20
ATOM     20  C   UNL     1      18.505   6.590  20.531  0.00  0.00    +0.080 C 
BRANCH  20  22
ATOM     22  C   UNL     1      19.710   7.165  21.333  0.00  0.00    -0.010 C 
ATOM     23  C   UNL     1      21.015   7.030  20.544  0.00  0.00    +0.007 C 
ATOM     24  C   UNL     1      19.858   6.478  22.693  0.00  0.00    +0.007 C 
ENDBRANCH  20  22
ENDBRANCH  19  20
ENDBRANCH  11  16
ENDBRANCH   7  11
TORSDOF 6
ENDMDL
MODEL 3
REMARK VINA RESULT:      -6.0     26.680     28.153
REMARK  Name = 56775669
REMARK  9 active torsions:
REMARK  status: ('A' for Active; 'I' for Inactive)
REMARK    1  A    between atoms: N_4  and  C_7
REMARK    2  A    between atoms: N_4  and  C_8
REMARK    3  A    between atoms: C_7  and  C_11
REMARK    4  A    between atoms: C_11  and  C_16
REMARK    5  A    between atoms: C_17  and  C_21
REMARK    6  A    between atoms: C_19  and  C_20
REMARK    7  A    between atoms: C_20  and  C_22
REMARK    8  A    between atoms: C_22  and  C_23
REMARK    9  A    between atoms: C_22  and  C_24
REMARK                            x       y       z     vdW  Elec       q    Type
REMARK                         _______ _______ _______ _____ _____    ______ ____
ROOT
ATOM      1  O   UNL     1      -2.179 -13.835  12.808  0.00  0.00    -0.376 OA
ATOM      7  C   UNL     1      -3.000 -12.440  14.200  0.00  0.00    +0.072 C 
ATOM      9  C   UNL     1      -3.494 -13.276  13.024  0.00  0.00    +0.184 C 
ATOM     10  C   UNL     1      -1.626 -12.999  13.850  0.00  0.00    +0.184 C 
ENDROOT
BRANCH   7   4
ATOM      4  N   UNL     1      -3.460 -13.061  15.445  0.00  0.00    -0.304 NA
ATOM     25  H   UNL     1      -2.722 -13.316  16.101  0.00  0.00    +0.123 HD
BRANCH   4   8
ATOM      3  O   UNL     1      -6.166 -11.190  20.640  0.00  0.00    -0.276 OA
ATOM      5  N   UNL     1      -6.134 -11.541  18.344  0.00  0.00    -0.302 N 
ATOM      8  C   UNL     1      -4.430 -12.182  16.093  0.00  0.00    +0.057 C 
ATOM     12  C   UNL     1      -5.739 -12.938  16.350  0.00  0.00    +0.037 C 
ATOM     13  C   UNL     1      -3.856 -11.642  17.409  0.00  0.00    +0.037 C 
ATOM     14  C   UNL     1      -6.737 -12.066  17.112  0.00  0.00    +0.109 C 
ATOM     15  C   UNL     1      -4.889 -10.795  18.149  0.00  0.00    +0.109 C 
ATOM     17  C   UNL     1      -6.673 -11.671  19.624  0.00  0.00    +0.212 C 
ATOM     21  C   UNL     1      -7.955 -12.456  19.742  0.00  0.00    +0.109 C 
ENDBRANCH   4   8
ENDBRANCH   7   4
BRANCH   7  11
ATOM     11  C   UNL     1      -3.210 -10.958  14.175  0.00  0.00    +0.085 C 
BRANCH  11  16
ATOM      2  O   UNL     1      -2.108  -9.741  10.956  0.00  0.00    -0.359 OA
ATOM      6  N   UNL     1      -1.869 -10.234  12.234  0.00  0.00    -0.083 NA
ATOM     16  C   UNL     1      -3.080 -10.419  12.766  0.00  0.00    +0.086 A 
ATOM     18  C   UNL     1      -4.112 -10.063  11.880  0.00  0.00    +0.071 A 
ATOM     19  C   UNL     1      -3.446  -9.645  10.757  0.00  0.00    +0.138 A 
BRANCH  19  20
ATOM     20  C   UNL     1      -3.880  -9.137   9.450  0.00  0.00    +0.080 C 
BRANCH  20  22
ATOM     22  C   UNL     1      -5.277  -9.637   8.973  0.00  0.00    -0.010 C 
ATOM     23  C   UNL     1      -5.224 -10.125   7.523  0.00  0.00    +0.007 C 
ATOM     24  C   UNL     1      -6.340  -8.543   9.109  0.00  0.00    +0.007 C 
ENDBRANCH  20  22
ENDBRANCH  19  20
ENDBRANCH  11  16
ENDBRANCH   7  11
TORSDOF 6
ENDMDL
MODEL 4
REMARK VINA RESULT:      -6.0     26.446     28.555
REMARK  Name = 56775669
REMARK  9 active torsions:
REMARK  status: ('A' for Active; 'I' for Inactive)
REMARK    1  A    between atoms: N_4  and  C_7
REMARK    2  A    between atoms: N_4  and  C_8
REMARK    3  A    between atoms: C_7  and  C_11
REMARK    4  A    between atoms: C_11  and  C_16
REMARK    5  A    between atoms: C_17  and  C_21
REMARK    6  A    between atoms: C_19  and  C_20
REMARK    7  A    between atoms: C_20  and  C_22
REMARK    8  A    between atoms: C_22  and  C_23
REMARK    9  A    between atoms: C_22  and  C_24
REMARK                            x       y       z     vdW  Elec       q    Type
REMARK                         _______ _______ _______ _____ _____    ______ ____
ROOT
ATOM      1  O   UNL     1      -4.638 -11.792  19.426  0.00  0.00    -0.376 OA
ATOM      7  C   UNL     1      -5.592 -11.242  17.597  0.00  0.00    +0.072 C 
ATOM      9  C   UNL     1      -5.587 -10.770  19.047  0.00  0.00    +0.184 C 
ATOM     10  C   UNL     1      -4.668 -12.349  18.091  0.00  0.00    +0.184 C 
ENDROOT
BRANCH   7   4
ATOM      4  N   UNL     1      -4.811 -10.298  16.792  0.00  0.00    -0.304 NA
ATOM     25  H   UNL     1      -3.985  -9.915  17.252  0.00  0.00    +0.123 HD
BRANCH   4   8
ATOM      3  O   UNL     1      -1.395 -10.164  11.681  0.00  0.00    -0.276 OA
ATOM      5  N   UNL     1      -3.288 -10.777  12.878  0.00  0.00    -0.302 N 
ATOM      8  C   UNL     1      -4.437 -10.935  15.531  0.00  0.00    +0.057 C 
ATOM     12  C   UNL     1      -5.192 -10.282  14.367  0.00  0.00    +0.037 C 
ATOM     13  C   UNL     1      -2.922 -10.827  15.315  0.00  0.00    +0.037 C 
ATOM     14  C   UNL     1      -4.747 -10.867  13.027  0.00  0.00    +0.109 C 
ATOM     15  C   UNL     1      -2.522 -11.403  13.958  0.00  0.00    +0.109 C 
ATOM     17  C   UNL     1      -2.622 -10.195  11.801  0.00  0.00    +0.212 C 
ATOM     21  C   UNL     1      -3.482  -9.570  10.731  0.00  0.00    +0.109 C 
ENDBRANCH   4   8
ENDBRANCH   7   4
BRANCH   7  11
ATOM     11  C   UNL     1      -6.895 -11.613  16.959  0.00  0.00    +0.085 C 
BRANCH  11  16
ATOM      2  O   UNL     1      -8.634  -8.445  16.908  0.00  0.00    -0.359 OA
ATOM      6  N   UNL     1      -7.506  -9.234  16.710  0.00  0.00    -0.083 NA
ATOM     16  C   UNL     1      -7.884 -10.469  17.052  0.00  0.00    +0.086 A 
ATOM     18  C   UNL     1      -9.225 -10.521  17.470  0.00  0.00    +0.071 A 
ATOM     19  C   UNL     1      -9.650  -9.223  17.360  0.00  0.00    +0.138 A 
BRANCH  19  20
ATOM     20  C   UNL     1     -10.926  -8.547  17.625  0.00  0.00    +0.080 C 
BRANCH  20  22
ATOM     22  C   UNL     1     -11.597  -7.883  16.385  0.00  0.00    -0.010 C 
ATOM     23  C   UNL     1     -11.347  -6.373  16.364  0.00  0.00    +0.007 C 
ATOM     24  C   UNL     1     -13.103  -8.157  16.350  0.00  0.00    +0.007 C 
ENDBRANCH  20  22
ENDBRANCH  19  20
ENDBRANCH  11  16
ENDBRANCH   7  11
TORSDOF 6
ENDMDL
MODEL 5
REMARK VINA RESULT:      -5.9      2.908      5.395
REMARK  Name = 56775669
REMARK  9 active torsions:
REMARK  status: ('A' for Active; 'I' for Inactive)
REMARK    1  A    between atoms: N_4  and  C_7
REMARK    2  A    between atoms: N_4  and  C_8
REMARK    3  A    between atoms: C_7  and  C_11
REMARK    4  A    between atoms: C_11  and  C_16
REMARK    5  A    between atoms: C_17  and  C_21
REMARK    6  A    between atoms: C_19  and  C_20
REMARK    7  A    between atoms: C_20  and  C_22
REMARK    8  A    between atoms: C_22  and  C_23
REMARK    9  A    between atoms: C_22  and  C_24
REMARK                            x       y       z     vdW  Elec       q    Type
REMARK                         _______ _______ _______ _____ _____    ______ ____
ROOT
ATOM      1  O   UNL     1      10.806   8.449  18.654  0.00  0.00    -0.376 OA
ATOM      7  C   UNL     1      12.637   7.973  19.643  0.00  0.00    +0.072 C 
ATOM      9  C   UNL     1      12.074   7.901  18.228  0.00  0.00    +0.184 C 
ATOM     10  C   UNL     1      11.245   8.456  20.032  0.00  0.00    +0.184 C 
ENDROOT
BRANCH   7   4
ATOM      4  N   UNL     1      13.568   9.103  19.722  0.00  0.00    -0.304 NA
ATOM     25  H   UNL     1      13.637   9.668  18.877  0.00  0.00    +0.123 HD
BRANCH   4   8
ATOM      3  O   UNL     1      14.167  14.478  22.647  0.00  0.00    -0.276 OA
ATOM      5  N   UNL     1      13.764  12.191  22.601  0.00  0.00    -0.302 N 
ATOM      8  C   UNL     1      13.213   9.941  20.865  0.00  0.00    +0.057 C 
ATOM     12  C   UNL     1      14.319   9.885  21.925  0.00  0.00    +0.037 C 
ATOM     13  C   UNL     1      12.983  11.387  20.406  0.00  0.00    +0.037 C 
ATOM     14  C   UNL     1      14.014  10.828  23.088  0.00  0.00    +0.109 C 
ATOM     15  C   UNL     1      12.703  12.300  21.598  0.00  0.00    +0.109 C 
ATOM     17  C   UNL     1      14.420  13.339  23.046  0.00  0.00    +0.212 C 
ATOM     21  C   UNL     1      15.502  13.143  24.077  0.00  0.00    +0.109 C 
ENDBRANCH   4   8
ENDBRANCH   7   4
BRANCH   7  11
ATOM     11  C   UNL     1      13.178   6.727  20.273  0.00  0.00    +0.085 C 
BRANCH  11  16
ATOM      2  O   UNL     1      16.634   6.672  19.219  0.00  0.00    -0.359 OA
ATOM      6  N   UNL     1      15.269   6.735  18.962  0.00  0.00    -0.083 NA
ATOM     16  C   UNL     1      14.688   6.680  20.164  0.00  0.00    +0.086 A 
ATOM     18  C   UNL     1      15.626   6.581  21.206  0.00  0.00    +0.071 A 
ATOM     19  C   UNL     1      16.833   6.581  20.558  0.00  0.00    +0.138 A 
BRANCH  19  20
ATOM     20  C   UNL     1      18.227   6.504  21.011  0.00  0.00    +0.080 C 
BRANCH  20  22
ATOM     22  C   UNL     1      18.788   7.803  21.662  0.00  0.00    -0.010 C 
ATOM     23  C   UNL     1      17.995   9.033  21.216  0.00  0.00    +0.007 C 
ATOM     24  C   UNL     1      20.271   7.999  21.334  0.00  0.00    +0.007 C 
ENDBRANCH  20  22
ENDBRANCH  19  20
ENDBRANCH  11  16
ENDBRANCH   7  11
TORSDOF 6
ENDMDL
MODEL 6
REMARK VINA RESULT:      -5.8     26.461     29.544
REMARK  Name = 56775669
REMARK  9 active torsions:
REMARK  status: ('A' for Active; 'I' for Inactive)
REMARK    1  A    between atoms: N_4  and  C_7
REMARK    2  A    between atoms: N_4  and  C_8
REMARK    3  A    between atoms: C_7  and  C_11
REMARK    4  A    between atoms: C_11  and  C_16
REMARK    5  A    between atoms: C_17  and  C_21
REMARK    6  A    between atoms: C_19  and  C_20
REMARK    7  A    between atoms: C_20  and  C_22
REMARK    8  A    between atoms: C_22  and  C_23
REMARK    9  A    between atoms: C_22  and  C_24
REMARK                            x       y       z     vdW  Elec       q    Type
REMARK                         _______ _______ _______ _____ _____    ______ ____
ROOT
ATOM      1  O   UNL     1      -8.177 -13.207  19.460  0.00  0.00    -0.376 OA
ATOM      7  C   UNL     1      -7.632 -11.401  18.461  0.00  0.00    +0.072 C 
ATOM      9  C   UNL     1      -7.262 -12.878  18.391  0.00  0.00    +0.184 C 
ATOM     10  C   UNL     1      -8.503 -11.810  19.643  0.00  0.00    +0.184 C 
ENDROOT
BRANCH   7   4
ATOM      4  N   UNL     1      -8.499 -11.078  17.324  0.00  0.00    -0.304 NA
ATOM     25  H   UNL     1      -9.033 -11.862  16.950  0.00  0.00    +0.123 HD
BRANCH   4   8
ATOM      3  O   UNL     1     -13.489  -7.734  16.008  0.00  0.00    -0.276 OA
ATOM      5  N   UNL     1     -11.400  -8.023  16.982  0.00  0.00    -0.302 N 
ATOM      8  C   UNL     1      -9.397  -9.987  17.697  0.00  0.00    +0.057 C 
ATOM     12  C   UNL     1      -9.033  -8.717  16.919  0.00  0.00    +0.037 C 
ATOM     13  C   UNL     1     -10.853 -10.385  17.423  0.00  0.00    +0.037 C 
ATOM     14  C   UNL     1     -10.018  -7.587  17.222  0.00  0.00    +0.109 C 
ATOM     15  C   UNL     1     -11.801  -9.224  17.717  0.00  0.00    +0.109 C 
ATOM     17  C   UNL     1     -12.321  -7.368  16.166  0.00  0.00    +0.212 C 
ATOM     21  C   UNL     1     -11.830  -6.140  15.441  0.00  0.00    +0.109 C 
ENDBRANCH   4   8
ENDBRANCH   7   4
BRANCH   7  11
ATOM     11  C   UNL     1      -6.548 -10.390  18.672  0.00  0.00    +0.085 C 
BRANCH  11  16
ATOM      2  O   UNL     1      -4.731 -10.234  15.552  0.00  0.00    -0.359 OA
ATOM      6  N   UNL     1      -5.875 -10.054  16.321  0.00  0.00    -0.083 NA
ATOM     16  C   UNL     1      -5.531 -10.449  17.550  0.00  0.00    +0.086 A 
ATOM     18  C   UNL     1      -4.197 -10.885  17.617  0.00  0.00    +0.071 A 
ATOM     19  C   UNL     1      -3.739 -10.728  16.335  0.00  0.00    +0.138 A 
BRANCH  19  20
ATOM     20  C   UNL     1      -2.450 -10.980  15.680  0.00  0.00    +0.080 C 
BRANCH  20  22
ATOM     22  C   UNL     1      -2.539 -11.505  14.216  0.00  0.00    -0.010 C 
ATOM     23  C   UNL     1      -1.707 -12.776  14.033  0.00  0.00    +0.007 C 
ATOM     24  C   UNL     1      -2.085 -10.443  13.211  0.00  0.00    +0.007 C 
ENDBRANCH  20  22
ENDBRANCH  19  20
ENDBRANCH  11  16
ENDBRANCH   7  11
TORSDOF 6
ENDMDL
MODEL 7
REMARK VINA RESULT:      -5.7     15.355     18.935
REMARK  Name = 56775669
REMARK  9 active torsions:
REMARK  status: ('A' for Active; 'I' for Inactive)
REMARK    1  A    between atoms: N_4  and  C_7
REMARK    2  A    between atoms: N_4  and  C_8
REMARK    3  A    between atoms: C_7  and  C_11
REMARK    4  A    between atoms: C_11  and  C_16
REMARK    5  A    between atoms: C_17  and  C_21
REMARK    6  A    between atoms: C_19  and  C_20
REMARK    7  A    between atoms: C_20  and  C_22
REMARK    8  A    between atoms: C_22  and  C_23
REMARK    9  A    between atoms: C_22  and  C_24
REMARK                            x       y       z     vdW  Elec       q    Type
REMARK                         _______ _______ _______ _____ _____    ______ ____
ROOT
ATOM      1  O   UNL     1      15.170   6.707   1.314  0.00  0.00    -0.376 OA
ATOM      7  C   UNL     1      13.316   5.793   1.845  0.00  0.00    +0.072 C 
ATOM      9  C   UNL     1      14.643   6.116   2.523  0.00  0.00    +0.184 C 
ATOM     10  C   UNL     1      13.974   6.345   0.587  0.00  0.00    +0.184 C 
ENDROOT
BRANCH   7   4
ATOM      4  N   UNL     1      12.306   6.749   2.309  0.00  0.00    -0.304 NA
ATOM     25  H   UNL     1      11.593   6.993   1.622  0.00  0.00    +0.123 HD
BRANCH   4   8
ATOM      3  O   UNL     1       7.943   7.360   6.599  0.00  0.00    -0.276 OA
ATOM      5  N   UNL     1      10.030   6.646   5.869  0.00  0.00    -0.302 N 
ATOM      8  C   UNL     1      11.681   6.237   3.527  0.00  0.00    +0.057 C 
ATOM     12  C   UNL     1      12.197   7.008   4.748  0.00  0.00    +0.037 C 
ATOM     13  C   UNL     1      10.155   6.353   3.425  0.00  0.00    +0.037 C 
ATOM     14  C   UNL     1      11.487   6.555   6.024  0.00  0.00    +0.109 C 
ATOM     15  C   UNL     1       9.486   5.911   4.725  0.00  0.00    +0.109 C 
ATOM     17  C   UNL     1       9.169   7.327   6.729  0.00  0.00    +0.212 C 
ATOM     21  C   UNL     1       9.807   8.062   7.882  0.00  0.00    +0.109 C 
ENDBRANCH   4   8
ENDBRANCH   7   4
BRANCH   7  11
ATOM     11  C   UNL     1      12.825   4.378   1.849  0.00  0.00    +0.085 C 
BRANCH  11  16
ATOM      2  O   UNL     1      10.569   4.073  -0.957  0.00  0.00    -0.359 OA
ATOM      6  N   UNL     1      10.917   4.567   0.295  0.00  0.00    -0.083 NA
ATOM     16  C   UNL     1      12.122   4.049   0.549  0.00  0.00    +0.086 A 
ATOM     18  C   UNL     1      12.580   3.228  -0.496  0.00  0.00    +0.071 A 
ATOM     19  C   UNL     1      11.567   3.278  -1.417  0.00  0.00    +0.138 A 
BRANCH  19  20
ATOM     20  C   UNL     1      11.364   2.667  -2.736  0.00  0.00    +0.080 C 
BRANCH  20  22
ATOM     22  C   UNL     1       9.920   2.781  -3.307  0.00  0.00    -0.010 C 
ATOM     23  C   UNL     1       9.307   1.398  -3.543  0.00  0.00    +0.007 C 
ATOM     24  C   UNL     1       9.894   3.584  -4.610  0.00  0.00    +0.007 C 
ENDBRANCH  20  22
ENDBRANCH  19  20
ENDBRANCH  11  16
ENDBRANCH   7  11
TORSDOF 6
ENDMDL
MODEL 8
REMARK VINA RESULT:      -5.7     13.108     16.715
REMARK  Name = 56775669
REMARK  9 active torsions:
REMARK  status: ('A' for Active; 'I' for Inactive)
REMARK    1  A    between atoms: N_4  and  C_7
REMARK    2  A    between atoms: N_4  and  C_8
REMARK    3  A    between atoms: C_7  and  C_11
REMARK    4  A    between atoms: C_11  and  C_16
REMARK    5  A    between atoms: C_17  and  C_21
REMARK    6  A    between atoms: C_19  and  C_20
REMARK    7  A    between atoms: C_20  and  C_22
REMARK    8  A    between atoms: C_22  and  C_23
REMARK    9  A    between atoms: C_22  and  C_24
REMARK                            x       y       z     vdW  Elec       q    Type
REMARK                         _______ _______ _______ _____ _____    ______ ____
ROOT
ATOM      1  O   UNL     1       7.340  10.102   3.113  0.00  0.00    -0.376 OA
ATOM      7  C   UNL     1       8.818   8.590   3.410  0.00  0.00    +0.072 C 
ATOM      9  C   UNL     1       8.359   9.864   4.110  0.00  0.00    +0.184 C 
ATOM     10  C   UNL     1       7.788   8.957   2.349  0.00  0.00    +0.184 C 
ENDROOT
BRANCH   7   4
ATOM      4  N   UNL     1       8.327   7.435   4.167  0.00  0.00    -0.304 NA
ATOM     25  H   UNL     1       8.291   6.559   3.646  0.00  0.00    +0.123 HD
BRANCH   4   8
ATOM      3  O   UNL     1      10.195   3.786   8.750  0.00  0.00    -0.276 OA
ATOM      5  N   UNL     1       9.713   5.868   7.839  0.00  0.00    -0.302 N 
ATOM      8  C   UNL     1       9.131   7.272   5.375  0.00  0.00    +0.057 C 
ATOM     12  C   UNL     1       8.253   7.438   6.620  0.00  0.00    +0.037 C 
ATOM     13  C   UNL     1       9.808   5.895   5.376  0.00  0.00    +0.037 C 
ATOM     14  C   UNL     1       9.053   7.179   7.897  0.00  0.00    +0.109 C 
ATOM     15  C   UNL     1      10.579   5.667   6.675  0.00  0.00    +0.109 C 
ATOM     17  C   UNL     1       9.602   4.866   8.803  0.00  0.00    +0.212 C 
ATOM     21  C   UNL     1       8.689   5.149   9.969  0.00  0.00    +0.109 C 
ENDBRANCH   4   8
ENDBRANCH   7   4
BRANCH   7  11
ATOM     11  C   UNL     1      10.256   8.458   3.013  0.00  0.00    +0.085 C 
BRANCH  11  16
ATOM      2  O   UNL     1      10.126   5.589   0.819  0.00  0.00    -0.359 OA
ATOM      6  N   UNL     1       9.623   6.789   1.307  0.00  0.00    -0.083 NA
ATOM     16  C   UNL     1      10.488   7.168   2.252  0.00  0.00    +0.086 A 
ATOM     18  C   UNL     1      11.545   6.255   2.405  0.00  0.00    +0.071 A 
ATOM     19  C   UNL     1      11.271   5.282   1.480  0.00  0.00    +0.138 A 
BRANCH  19  20
ATOM     20  C   UNL     1      11.941   4.036   1.089  0.00  0.00    +0.080 C 
BRANCH  20  22
ATOM     22  C   UNL     1      13.412   4.196   0.602  0.00  0.00    -0.010 C 
ATOM     23  C   UNL     1      13.603   3.586  -0.789  0.00  0.00    +0.007 C 
ATOM     24  C   UNL     1      14.400   3.560   1.583  0.00  0.00    +0.007 C 
ENDBRANCH  20  22
ENDBRANCH  19  20
ENDBRANCH  11  16
ENDBRANCH   7  11
TORSDOF 6
ENDMDL
MODEL 9
REMARK VINA RESULT:      -5.6     26.274     28.814
REMARK  Name = 56775669
REMARK  9 active torsions:
REMARK  status: ('A' for Active; 'I' for Inactive)
REMARK    1  A    between atoms: N_4  and  C_7
REMARK    2  A    between atoms: N_4  and  C_8
REMARK    3  A    between atoms: C_7  and  C_11
REMARK    4  A    between atoms: C_11  and  C_16
REMARK    5  A    between atoms: C_17  and  C_21
REMARK    6  A    between atoms: C_19  and  C_20
REMARK    7  A    between atoms: C_20  and  C_22
REMARK    8  A    between atoms: C_22  and  C_23
REMARK    9  A    between atoms: C_22  and  C_24
REMARK                            x       y       z     vdW  Elec       q    Type
REMARK                         _______ _______ _______ _____ _____    ______ ____
ROOT
ATOM      1  O   UNL     1      -4.594 -15.036  16.097  0.00  0.00    -0.376 OA
ATOM      7  C   UNL     1      -4.963 -12.936  16.196  0.00  0.00    +0.072 C 
ATOM      9  C   UNL     1      -4.466 -13.941  15.163  0.00  0.00    +0.184 C 
ATOM     10  C   UNL     1      -4.981 -14.124  17.150  0.00  0.00    +0.184 C 
ENDROOT
BRANCH   7   4
ATOM      4  N   UNL     1      -6.345 -12.571  15.870  0.00  0.00    -0.304 NA
ATOM     25  H   UNL     1      -7.024 -13.327  15.949  0.00  0.00    +0.123 HD
BRANCH   4   8
ATOM      3  O   UNL     1     -10.846  -9.621  18.845  0.00  0.00    -0.276 OA
ATOM      5  N   UNL     1      -8.815  -9.682  17.720  0.00  0.00    -0.302 N 
ATOM      8  C   UNL     1      -6.752 -11.438  16.698  0.00  0.00    +0.057 C 
ATOM     12  C   UNL     1      -7.382 -10.346  15.825  0.00  0.00    +0.037 C 
ATOM     13  C   UNL     1      -7.741 -11.900  17.775  0.00  0.00    +0.037 C 
ATOM     14  C   UNL     1      -7.902  -9.190  16.680  0.00  0.00    +0.109 C 
ATOM     15  C   UNL     1      -8.252 -10.715  18.592  0.00  0.00    +0.109 C 
ATOM     17  C   UNL     1     -10.110  -9.217  17.941  0.00  0.00    +0.212 C 
ATOM     21  C   UNL     1     -10.618  -8.155  16.998  0.00  0.00    +0.109 C 
ENDBRANCH   4   8
ENDBRANCH   7   4
BRANCH   7  11
ATOM     11  C   UNL     1      -4.109 -11.751  16.525  0.00  0.00    +0.085 C 
BRANCH  11  16
ATOM      2  O   UNL     1      -1.549 -10.942  14.107  0.00  0.00    -0.359 OA
ATOM      6  N   UNL     1      -1.967 -11.409  15.348  0.00  0.00    -0.083 NA
ATOM     16  C   UNL     1      -3.299 -11.320  15.320  0.00  0.00    +0.086 A 
ATOM     18  C   UNL     1      -3.774 -10.808  14.100  0.00  0.00    +0.071 A 
ATOM     19  C   UNL     1      -2.634 -10.588  13.373  0.00  0.00    +0.138 A 
BRANCH  19  20
ATOM     20  C   UNL     1      -2.374 -10.070  12.025  0.00  0.00    +0.080 C 
BRANCH  20  22
ATOM     22  C   UNL     1      -3.544 -10.236  11.010  0.00  0.00    -0.010 C 
ATOM     23  C   UNL     1      -3.598 -11.662  10.457  0.00  0.00    +0.007 C 
ATOM     24  C   UNL     1      -3.429  -9.238   9.854  0.00  0.00    +0.007 C 
ENDBRANCH  20  22
ENDBRANCH  19  20
ENDBRANCH  11  16
ENDBRANCH   7  11
TORSDOF 6
ENDMDL
MODEL 10
REMARK VINA RESULT:      -5.6     13.423     17.516
REMARK  Name = 56775669
REMARK  9 active torsions:
REMARK  status: ('A' for Active; 'I' for Inactive)
REMARK    1  A    between atoms: N_4  and  C_7
REMARK    2  A    between atoms: N_4  and  C_8
REMARK    3  A    between atoms: C_7  and  C_11
REMARK    4  A    between atoms: C_11  and  C_16
REMARK    5  A    between atoms: C_17  and  C_21
REMARK    6  A    between atoms: C_19  and  C_20
REMARK    7  A    between atoms: C_20  and  C_22
REMARK    8  A    between atoms: C_22  and  C_23
REMARK    9  A    between atoms: C_22  and  C_24
REMARK                            x       y       z     vdW  Elec       q    Type
REMARK                         _______ _______ _______ _____ _____    ______ ____
ROOT
ATOM      1  O   UNL     1       8.924  10.401   1.219  0.00  0.00    -0.376 OA
ATOM      7  C   UNL     1       9.050   8.701   2.503  0.00  0.00    +0.072 C 
ATOM      9  C   UNL     1       8.722   8.981   1.041  0.00  0.00    +0.184 C 
ATOM     10  C   UNL     1       9.153  10.215   2.635  0.00  0.00    +0.184 C 
ENDROOT
BRANCH   7   4
ATOM      4  N   UNL     1      10.397   8.128   2.581  0.00  0.00    -0.304 NA
ATOM     25  H   UNL     1      10.886   8.287   3.461  0.00  0.00    +0.123 HD
BRANCH   4   8
ATOM      3  O   UNL     1      13.378   2.806   1.803  0.00  0.00    -0.276 OA
ATOM      5  N   UNL     1      11.596   4.245   1.417  0.00  0.00    -0.302 N 
ATOM      8  C   UNL     1      10.330   6.697   2.292  0.00  0.00    +0.057 C 
ATOM     12  C   UNL     1      10.648   6.441   0.814  0.00  0.00    +0.037 C 
ATOM     13  C   UNL     1      11.308   5.931   3.192  0.00  0.00    +0.037 C 
ATOM     14  C   UNL     1      10.677   4.944   0.510  0.00  0.00    +0.109 C 
ATOM     15  C   UNL     1      11.322   4.444   2.842  0.00  0.00    +0.109 C 
ATOM     17  C   UNL     1      12.641   3.411   1.021  0.00  0.00    +0.212 C 
ATOM     21  C   UNL     1      12.860   3.260  -0.463  0.00  0.00    +0.109 C 
ENDBRANCH   4   8
ENDBRANCH   7   4
BRANCH   7  11
ATOM     11  C   UNL     1       8.053   7.963   3.342  0.00  0.00    +0.085 C 
BRANCH  11  16
ATOM      2  O   UNL     1       9.576   8.455   6.582  0.00  0.00    -0.359 OA
ATOM      6  N   UNL     1       9.380   8.798   5.249  0.00  0.00    -0.083 NA
ATOM     16  C   UNL     1       8.508   7.897   4.785  0.00  0.00    +0.086 A 
ATOM     18  C   UNL     1       8.124   6.971   5.770  0.00  0.00    +0.071 A 
ATOM     19  C   UNL     1       8.823   7.366   6.880  0.00  0.00    +0.138 A 
BRANCH  19  20
ATOM     20  C   UNL     1       8.910   6.865   8.256  0.00  0.00    +0.080 C 
BRANCH  20  22
ATOM     22  C   UNL     1       9.861   5.649   8.462  0.00  0.00    -0.010 C 
ATOM     23  C   UNL     1      10.092   4.897   7.149  0.00  0.00    +0.007 C 
ATOM     24  C   UNL     1       9.316   4.684   9.519  0.00  0.00    +0.007 C 
ENDBRANCH  20  22
ENDBRANCH  19  20
ENDBRANCH  11  16
ENDBRANCH   7  11
TORSDOF 6
ENDMDL
