MODEL 1
REMARK VINA RESULT:      -7.4      0.000      0.000
REMARK  Name = 75536343
REMARK  9 active torsions:
REMARK  status: ('A' for Active; 'I' for Inactive)
REMARK    1  A    between atoms: O_2  and  C_9
REMARK    2  A    between atoms: O_5  and  C_23
REMARK    3  A    between atoms: O_5  and  C_24
REMARK    4  A    between atoms: N_6  and  C_13
REMARK    5  A    between atoms: N_6  and  C_14
REMARK    6  A    between atoms: C_8  and  C_13
REMARK    7  A    between atoms: C_10  and  C_15
REMARK    8  A    between atoms: C_15  and  C_20
REMARK    9  A    between atoms: C_22  and  C_23
REMARK                            x       y       z     vdW  Elec       q    Type
REMARK                         _______ _______ _______ _____ _____    ______ ____
ROOT
ATOM      1  O   UNL     1      10.701   8.232  19.634  0.00  0.00    -0.369 OA
ATOM      8  C   UNL     1      10.916   8.130  21.048  0.00  0.00    +0.161 C 
ATOM      9  C   UNL     1      11.800   6.925  21.393  0.00  0.00    +0.145 C 
ATOM     10  C   UNL     1      11.890   8.287  18.840  0.00  0.00    +0.125 C 
ATOM     11  C   UNL     1      13.070   6.874  20.548  0.00  0.00    +0.036 C 
ATOM     12  C   UNL     1      12.747   7.042  19.066  0.00  0.00    +0.034 C 
ENDROOT
BRANCH   9   2
ATOM      2  O   UNL     1      11.061   5.726  21.144  0.00  0.00    -0.389 OA
ATOM     31  H   UNL     1      11.662   5.095  20.713  0.00  0.00    +0.210 HD
ENDBRANCH   9   2
BRANCH   8  13
ATOM     13  C   UNL     1      11.449   9.444  21.618  0.00  0.00    +0.115 C 
BRANCH  13   6
ATOM      6  N   UNL     1      11.256   9.501  23.058  0.00  0.00    -0.311 NA
ATOM     30  H   UNL     1      12.146   9.314  23.519  0.00  0.00    +0.122 HD
BRANCH   6  14
ATOM      3  O   UNL     1      11.307  13.515  24.289  0.00  0.00    -0.380 OA
ATOM     14  C   UNL     1      10.756  10.811  23.469  0.00  0.00    +0.058 C 
ATOM     16  C   UNL     1      11.180  11.899  22.477  0.00  0.00    +0.047 C 
ATOM     17  C   UNL     1      11.258  11.156  24.873  0.00  0.00    +0.047 C 
ATOM     18  C   UNL     1      10.764  13.274  22.991  0.00  0.00    +0.161 C 
ATOM     19  C   UNL     1      10.839  12.572  25.253  0.00  0.00    +0.161 C 
ENDBRANCH   6  14
ENDBRANCH  13   6
ENDBRANCH   8  13
BRANCH  10  15
ATOM     15  C   UNL     1      11.461   8.394  17.382  0.00  0.00    +0.090 C 
BRANCH  15  20
ATOM      4  O   UNL     1      13.295  10.220  14.874  0.00  0.00    -0.356 OA
ATOM      7  N   UNL     1      12.369   9.262  15.266  0.00  0.00    -0.083 NA
ATOM     20  C   UNL     1      12.365   9.311  16.601  0.00  0.00    +0.086 A 
ATOM     21  C   UNL     1      13.261  10.271  17.103  0.00  0.00    +0.074 A 
ATOM     22  C   UNL     1      13.820  10.814  15.977  0.00  0.00    +0.175 A 
BRANCH  22  23
ATOM     23  C   UNL     1      14.823  11.860  15.744  0.00  0.00    +0.306 C 
BRANCH  23   5
ATOM      5  O   UNL     1      16.076  11.273  15.379  0.00  0.00    -0.484 OA
BRANCH   5  24
ATOM     24  C   UNL     1      16.625  11.694  14.200  0.00  0.00    +0.121 A 
ATOM     25  C   UNL     1      17.970  12.055  14.147  0.00  0.00    +0.045 A 
ATOM     26  C   UNL     1      15.839  11.761  13.050  0.00  0.00    +0.045 A 
ATOM     27  C   UNL     1      18.530  12.485  12.944  0.00  0.00    +0.004 A 
ATOM     28  C   UNL     1      16.399  12.189  11.847  0.00  0.00    +0.004 A 
ATOM     29  C   UNL     1      17.745  12.552  11.793  0.00  0.00    +0.000 A 
ENDBRANCH   5  24
ENDBRANCH  23   5
ENDBRANCH  22  23
ENDBRANCH  15  20
ENDBRANCH  10  15
TORSDOF 9
ENDMDL
MODEL 2
REMARK VINA RESULT:      -7.3      1.691      2.468
REMARK  Name = 75536343
REMARK  9 active torsions:
REMARK  status: ('A' for Active; 'I' for Inactive)
REMARK    1  A    between atoms: O_2  and  C_9
REMARK    2  A    between atoms: O_5  and  C_23
REMARK    3  A    between atoms: O_5  and  C_24
REMARK    4  A    between atoms: N_6  and  C_13
REMARK    5  A    between atoms: N_6  and  C_14
REMARK    6  A    between atoms: C_8  and  C_13
REMARK    7  A    between atoms: C_10  and  C_15
REMARK    8  A    between atoms: C_15  and  C_20
REMARK    9  A    between atoms: C_22  and  C_23
REMARK                            x       y       z     vdW  Elec       q    Type
REMARK                         _______ _______ _______ _____ _____    ______ ____
ROOT
ATOM      1  O   UNL     1      10.807   8.262  19.753  0.00  0.00    -0.369 OA
ATOM      8  C   UNL     1      11.097   7.971  21.127  0.00  0.00    +0.161 C 
ATOM      9  C   UNL     1      11.934   6.692  21.262  0.00  0.00    +0.145 C 
ATOM     10  C   UNL     1      11.950   8.364  18.899  0.00  0.00    +0.125 C 
ATOM     11  C   UNL     1      13.148   6.692  20.339  0.00  0.00    +0.036 C 
ATOM     12  C   UNL     1      12.751   7.063  18.913  0.00  0.00    +0.034 C 
ENDROOT
BRANCH   9   2
ATOM      2  O   UNL     1      11.119   5.569  20.912  0.00  0.00    -0.389 OA
ATOM     31  H   UNL     1      10.378   5.900  20.377  0.00  0.00    +0.210 HD
ENDBRANCH   9   2
BRANCH   8  13
ATOM     13  C   UNL     1      11.731   9.175  21.822  0.00  0.00    +0.115 C 
BRANCH  13   6
ATOM      6  N   UNL     1      11.206   9.332  23.169  0.00  0.00    -0.311 NA
ATOM     30  H   UNL     1      11.942   9.108  23.838  0.00  0.00    +0.122 HD
BRANCH   6  14
ATOM      3  O   UNL     1      11.353  13.464  23.894  0.00  0.00    -0.380 OA
ATOM     14  C   UNL     1      10.738  10.697  23.393  0.00  0.00    +0.058 C 
ATOM     16  C   UNL     1      11.236  11.639  22.293  0.00  0.00    +0.047 C 
ATOM     17  C   UNL     1      11.200  11.200  24.764  0.00  0.00    +0.047 C 
ATOM     18  C   UNL     1      10.850  13.079  22.615  0.00  0.00    +0.161 C 
ATOM     19  C   UNL     1      10.817  12.664  24.948  0.00  0.00    +0.161 C 
ENDBRANCH   6  14
ENDBRANCH  13   6
ENDBRANCH   8  13
BRANCH  10  15
ATOM     15  C   UNL     1      11.446   8.676  17.495  0.00  0.00    +0.090 C 
BRANCH  15  20
ATOM      4  O   UNL     1      13.722   9.719  14.904  0.00  0.00    -0.356 OA
ATOM      7  N   UNL     1      12.680   8.936  15.382  0.00  0.00    -0.083 NA
ATOM     20  C   UNL     1      12.512   9.321  16.650  0.00  0.00    +0.086 A 
ATOM     21  C   UNL     1      13.412  10.335  17.024  0.00  0.00    +0.074 A 
ATOM     22  C   UNL     1      14.150  10.548  15.891  0.00  0.00    +0.175 A 
BRANCH  22  23
ATOM     23  C   UNL     1      15.256  11.453  15.553  0.00  0.00    +0.306 C 
BRANCH  23   5
ATOM      5  O   UNL     1      15.350  12.503  16.520  0.00  0.00    -0.484 OA
BRANCH   5  24
ATOM     24  C   UNL     1      16.534  12.604  17.196  0.00  0.00    +0.121 A 
ATOM     25  C   UNL     1      17.711  12.885  16.502  0.00  0.00    +0.045 A 
ATOM     26  C   UNL     1      16.565  12.427  18.579  0.00  0.00    +0.045 A 
ATOM     27  C   UNL     1      18.919  12.987  17.191  0.00  0.00    +0.004 A 
ATOM     28  C   UNL     1      17.774  12.531  19.268  0.00  0.00    +0.004 A 
ATOM     29  C   UNL     1      18.951  12.811  18.574  0.00  0.00    +0.000 A 
ENDBRANCH   5  24
ENDBRANCH  23   5
ENDBRANCH  22  23
ENDBRANCH  15  20
ENDBRANCH  10  15
TORSDOF 9
ENDMDL
MODEL 3
REMARK VINA RESULT:      -7.1     28.854     31.892
REMARK  Name = 75536343
REMARK  9 active torsions:
REMARK  status: ('A' for Active; 'I' for Inactive)
REMARK    1  A    between atoms: O_2  and  C_9
REMARK    2  A    between atoms: O_5  and  C_23
REMARK    3  A    between atoms: O_5  and  C_24
REMARK    4  A    between atoms: N_6  and  C_13
REMARK    5  A    between atoms: N_6  and  C_14
REMARK    6  A    between atoms: C_8  and  C_13
REMARK    7  A    between atoms: C_10  and  C_15
REMARK    8  A    between atoms: C_15  and  C_20
REMARK    9  A    between atoms: C_22  and  C_23
REMARK                            x       y       z     vdW  Elec       q    Type
REMARK                         _______ _______ _______ _____ _____    ______ ____
ROOT
ATOM      1  O   UNL     1     -13.848   1.850  31.253  0.00  0.00    -0.369 OA
ATOM      8  C   UNL     1     -13.914   1.409  29.890  0.00  0.00    +0.161 C 
ATOM      9  C   UNL     1     -14.000  -0.120  29.801  0.00  0.00    +0.145 C 
ATOM     10  C   UNL     1     -14.916   1.398  32.091  0.00  0.00    +0.125 C 
ATOM     11  C   UNL     1     -15.081  -0.695  30.712  0.00  0.00    +0.036 C 
ATOM     12  C   UNL     1     -14.963  -0.129  32.125  0.00  0.00    +0.034 C 
ENDROOT
BRANCH   9   2
ATOM      2  O   UNL     1     -12.746  -0.676  30.207  0.00  0.00    -0.389 OA
ATOM     31  H   UNL     1     -12.516  -0.285  31.067  0.00  0.00    +0.210 HD
ENDBRANCH   9   2
BRANCH   8  13
ATOM     13  C   UNL     1     -15.041   2.115  29.138  0.00  0.00    +0.115 C 
BRANCH  13   6
ATOM      6  N   UNL     1     -14.853   3.556  29.154  0.00  0.00    -0.311 NA
ATOM     30  H   UNL     1     -14.391   3.839  28.289  0.00  0.00    +0.122 HD
BRANCH   6  14
ATOM      3  O   UNL     1     -18.274   5.194  30.954  0.00  0.00    -0.380 OA
ATOM     14  C   UNL     1     -16.132   4.251  29.277  0.00  0.00    +0.058 C 
ATOM     16  C   UNL     1     -15.999   5.500  30.154  0.00  0.00    +0.047 C 
ATOM     17  C   UNL     1     -17.193   3.313  29.859  0.00  0.00    +0.047 C 
ATOM     18  C   UNL     1     -17.366   6.136  30.380  0.00  0.00    +0.161 C 
ATOM     19  C   UNL     1     -18.494   4.070  30.102  0.00  0.00    +0.161 C 
ENDBRANCH   6  14
ENDBRANCH  13   6
ENDBRANCH   8  13
BRANCH  10  15
ATOM     15  C   UNL     1     -14.675   1.964  33.484  0.00  0.00    +0.090 C 
BRANCH  15  20
ATOM      4  O   UNL     1     -16.172   5.242  33.535  0.00  0.00    -0.356 OA
ATOM      7  N   UNL     1     -16.244   3.859  33.430  0.00  0.00    -0.083 NA
ATOM     20  C   UNL     1     -14.983   3.437  33.549  0.00  0.00    +0.086 A 
ATOM     21  C   UNL     1     -14.078   4.499  33.728  0.00  0.00    +0.074 A 
ATOM     22  C   UNL     1     -14.877   5.611  33.711  0.00  0.00    +0.175 A 
BRANCH  22  23
ATOM     23  C   UNL     1     -14.617   7.050  33.842  0.00  0.00    +0.306 C 
BRANCH  23   5
ATOM      5  O   UNL     1     -14.849   7.711  32.595  0.00  0.00    -0.484 OA
BRANCH   5  24
ATOM     24  C   UNL     1     -13.790   8.391  32.060  0.00  0.00    +0.121 A 
ATOM     25  C   UNL     1     -14.013   9.426  31.153  0.00  0.00    +0.045 A 
ATOM     26  C   UNL     1     -12.488   8.049  32.423  0.00  0.00    +0.045 A 
ATOM     27  C   UNL     1     -12.933  10.120  30.608  0.00  0.00    +0.004 A 
ATOM     28  C   UNL     1     -11.408   8.743  31.878  0.00  0.00    +0.004 A 
ATOM     29  C   UNL     1     -11.630   9.778  30.970  0.00  0.00    +0.000 A 
ENDBRANCH   5  24
ENDBRANCH  23   5
ENDBRANCH  22  23
ENDBRANCH  15  20
ENDBRANCH  10  15
TORSDOF 9
ENDMDL
MODEL 4
REMARK VINA RESULT:      -6.9     28.618     31.836
REMARK  Name = 75536343
REMARK  9 active torsions:
REMARK  status: ('A' for Active; 'I' for Inactive)
REMARK    1  A    between atoms: O_2  and  C_9
REMARK    2  A    between atoms: O_5  and  C_23
REMARK    3  A    between atoms: O_5  and  C_24
REMARK    4  A    between atoms: N_6  and  C_13
REMARK    5  A    between atoms: N_6  and  C_14
REMARK    6  A    between atoms: C_8  and  C_13
REMARK    7  A    between atoms: C_10  and  C_15
REMARK    8  A    between atoms: C_15  and  C_20
REMARK    9  A    between atoms: C_22  and  C_23
REMARK                            x       y       z     vdW  Elec       q    Type
REMARK                         _______ _______ _______ _____ _____    ______ ____
ROOT
ATOM      1  O   UNL     1     -14.169   2.370  31.146  0.00  0.00    -0.369 OA
ATOM      8  C   UNL     1     -14.356   1.909  29.800  0.00  0.00    +0.161 C 
ATOM      9  C   UNL     1     -14.266   0.380  29.716  0.00  0.00    +0.145 C 
ATOM     10  C   UNL     1     -15.055   1.800  32.113  0.00  0.00    +0.125 C 
ATOM     11  C   UNL     1     -15.141  -0.312  30.757  0.00  0.00    +0.036 C 
ATOM     12  C   UNL     1     -14.911   0.278  32.145  0.00  0.00    +0.034 C 
ENDROOT
BRANCH   9   2
ATOM      2  O   UNL     1     -12.911  -0.015  29.953  0.00  0.00    -0.389 OA
ATOM     31  H   UNL     1     -12.915  -0.963  30.167  0.00  0.00    +0.210 HD
ENDBRANCH   9   2
BRANCH   8  13
ATOM     13  C   UNL     1     -15.649   2.464  29.205  0.00  0.00    +0.115 C 
BRANCH  13   6
ATOM      6  N   UNL     1     -15.386   3.171  27.962  0.00  0.00    -0.311 NA
ATOM     30  H   UNL     1     -14.440   2.950  27.650  0.00  0.00    +0.122 HD
BRANCH   6  14
ATOM      3  O   UNL     1     -16.921   1.326  24.517  0.00  0.00    -0.380 OA
ATOM     14  C   UNL     1     -16.345   2.789  26.928  0.00  0.00    +0.058 C 
ATOM     16  C   UNL     1     -16.578   1.275  26.923  0.00  0.00    +0.047 C 
ATOM     17  C   UNL     1     -15.857   3.250  25.552  0.00  0.00    +0.047 C 
ATOM     18  C   UNL     1     -17.477   0.882  25.755  0.00  0.00    +0.161 C 
ATOM     19  C   UNL     1     -16.795   2.747  24.461  0.00  0.00    +0.161 C 
ENDBRANCH   6  14
ENDBRANCH  13   6
ENDBRANCH   8  13
BRANCH  10  15
ATOM     15  C   UNL     1     -14.707   2.406  33.466  0.00  0.00    +0.090 C 
BRANCH  15  20
ATOM      4  O   UNL     1     -16.275   5.647  33.614  0.00  0.00    -0.356 OA
ATOM      7  N   UNL     1     -16.322   4.260  33.566  0.00  0.00    -0.083 NA
ATOM     20  C   UNL     1     -15.045   3.872  33.524  0.00  0.00    +0.086 A 
ATOM     21  C   UNL     1     -14.155   4.961  33.543  0.00  0.00    +0.074 A 
ATOM     22  C   UNL     1     -14.980   6.053  33.600  0.00  0.00    +0.175 A 
BRANCH  22  23
ATOM     23  C   UNL     1     -14.746   7.502  33.646  0.00  0.00    +0.306 C 
BRANCH  23   5
ATOM      5  O   UNL     1     -13.608   7.794  34.463  0.00  0.00    -0.484 OA
BRANCH   5  24
ATOM     24  C   UNL     1     -12.558   8.414  33.845  0.00  0.00    +0.121 A 
ATOM     25  C   UNL     1     -11.709   9.243  34.577  0.00  0.00    +0.045 A 
ATOM     26  C   UNL     1     -12.337   8.216  32.482  0.00  0.00    +0.045 A 
ATOM     27  C   UNL     1     -10.638   9.876  33.945  0.00  0.00    +0.004 A 
ATOM     28  C   UNL     1     -11.265   8.848  31.852  0.00  0.00    +0.004 A 
ATOM     29  C   UNL     1     -10.416   9.679  32.583  0.00  0.00    +0.000 A 
ENDBRANCH   5  24
ENDBRANCH  23   5
ENDBRANCH  22  23
ENDBRANCH  15  20
ENDBRANCH  10  15
TORSDOF 9
ENDMDL
MODEL 5
REMARK VINA RESULT:      -6.9      4.926      8.680
REMARK  Name = 75536343
REMARK  9 active torsions:
REMARK  status: ('A' for Active; 'I' for Inactive)
REMARK    1  A    between atoms: O_2  and  C_9
REMARK    2  A    between atoms: O_5  and  C_23
REMARK    3  A    between atoms: O_5  and  C_24
REMARK    4  A    between atoms: N_6  and  C_13
REMARK    5  A    between atoms: N_6  and  C_14
REMARK    6  A    between atoms: C_8  and  C_13
REMARK    7  A    between atoms: C_10  and  C_15
REMARK    8  A    between atoms: C_15  and  C_20
REMARK    9  A    between atoms: C_22  and  C_23
REMARK                            x       y       z     vdW  Elec       q    Type
REMARK                         _______ _______ _______ _____ _____    ______ ____
ROOT
ATOM      1  O   UNL     1      12.613   7.838  21.620  0.00  0.00    -0.369 OA
ATOM      8  C   UNL     1      13.541   7.465  20.591  0.00  0.00    +0.161 C 
ATOM      9  C   UNL     1      12.817   7.140  19.278  0.00  0.00    +0.145 C 
ATOM     10  C   UNL     1      11.744   8.924  21.289  0.00  0.00    +0.125 C 
ATOM     11  C   UNL     1      11.823   8.225  18.878  0.00  0.00    +0.036 C 
ATOM     12  C   UNL     1      10.915   8.593  20.049  0.00  0.00    +0.034 C 
ENDROOT
BRANCH   9   2
ATOM      2  O   UNL     1      12.089   5.920  19.443  0.00  0.00    -0.389 OA
ATOM     31  H   UNL     1      11.531   6.015  20.233  0.00  0.00    +0.210 HD
ENDBRANCH   9   2
BRANCH   8  13
ATOM     13  C   UNL     1      14.632   8.521  20.426  0.00  0.00    +0.115 C 
BRANCH  13   6
ATOM      6  N   UNL     1      15.644   8.388  21.461  0.00  0.00    -0.311 NA
ATOM     30  H   UNL     1      15.353   7.663  22.116  0.00  0.00    +0.122 HD
BRANCH   6  14
ATOM      3  O   UNL     1      19.488   6.728  21.162  0.00  0.00    -0.380 OA
ATOM     14  C   UNL     1      16.940   8.039  20.886  0.00  0.00    +0.058 C 
ATOM     16  C   UNL     1      17.099   6.520  20.765  0.00  0.00    +0.047 C 
ATOM     17  C   UNL     1      18.074   8.619  21.736  0.00  0.00    +0.047 C 
ATOM     18  C   UNL     1      18.505   6.171  20.289  0.00  0.00    +0.161 C 
ATOM     19  C   UNL     1      19.426   8.153  21.206  0.00  0.00    +0.161 C 
ENDBRANCH   6  14
ENDBRANCH  13   6
ENDBRANCH   8  13
BRANCH  10  15
ATOM     15  C   UNL     1      10.843   9.172  22.492  0.00  0.00    +0.090 C 
BRANCH  15  20
ATOM      4  O   UNL     1      10.941  12.255  24.356  0.00  0.00    -0.356 OA
ATOM      7  N   UNL     1      10.821  10.874  24.270  0.00  0.00    -0.083 NA
ATOM     20  C   UNL     1      10.926  10.599  22.967  0.00  0.00    +0.086 A 
ATOM     21  C   UNL     1      11.112  11.756  22.190  0.00  0.00    +0.074 A 
ATOM     22  C   UNL     1      11.113  12.769  23.111  0.00  0.00    +0.175 A 
BRANCH  22  23
ATOM     23  C   UNL     1      11.258  14.227  23.018  0.00  0.00    +0.306 C 
BRANCH  23   5
ATOM      5  O   UNL     1      10.688  14.705  21.796  0.00  0.00    -0.484 OA
BRANCH   5  24
ATOM     24  C   UNL     1       9.347  14.970  21.813  0.00  0.00    +0.121 A 
ATOM     25  C   UNL     1       8.615  14.936  20.626  0.00  0.00    +0.045 A 
ATOM     26  C   UNL     1       8.712  15.273  23.016  0.00  0.00    +0.045 A 
ATOM     27  C   UNL     1       7.247  15.206  20.643  0.00  0.00    +0.004 A 
ATOM     28  C   UNL     1       7.343  15.542  23.033  0.00  0.00    +0.004 A 
ATOM     29  C   UNL     1       6.611  15.510  21.846  0.00  0.00    +0.000 A 
ENDBRANCH   5  24
ENDBRANCH  23   5
ENDBRANCH  22  23
ENDBRANCH  15  20
ENDBRANCH  10  15
TORSDOF 9
ENDMDL
MODEL 6
REMARK VINA RESULT:      -6.7     26.485     28.536
REMARK  Name = 75536343
REMARK  9 active torsions:
REMARK  status: ('A' for Active; 'I' for Inactive)
REMARK    1  A    between atoms: O_2  and  C_9
REMARK    2  A    between atoms: O_5  and  C_23
REMARK    3  A    between atoms: O_5  and  C_24
REMARK    4  A    between atoms: N_6  and  C_13
REMARK    5  A    between atoms: N_6  and  C_14
REMARK    6  A    between atoms: C_8  and  C_13
REMARK    7  A    between atoms: C_10  and  C_15
REMARK    8  A    between atoms: C_15  and  C_20
REMARK    9  A    between atoms: C_22  and  C_23
REMARK                            x       y       z     vdW  Elec       q    Type
REMARK                         _______ _______ _______ _____ _____    ______ ____
ROOT
ATOM      1  O   UNL     1      -6.727 -11.650  17.159  0.00  0.00    -0.369 OA
ATOM      8  C   UNL     1      -7.730 -10.843  17.791  0.00  0.00    +0.161 C 
ATOM      9  C   UNL     1      -7.589 -10.871  19.319  0.00  0.00    +0.145 C 
ATOM     10  C   UNL     1      -5.378 -11.326  17.506  0.00  0.00    +0.125 C 
ATOM     11  C   UNL     1      -6.161 -10.591  19.776  0.00  0.00    +0.036 C 
ATOM     12  C   UNL     1      -5.162 -11.457  19.013  0.00  0.00    +0.034 C 
ENDROOT
BRANCH   9   2
ATOM      2  O   UNL     1      -7.951 -12.172  19.790  0.00  0.00    -0.389 OA
ATOM     31  H   UNL     1      -8.838 -12.106  20.182  0.00  0.00    +0.210 HD
ENDBRANCH   9   2
BRANCH   8  13
ATOM     13  C   UNL     1      -7.735  -9.426  17.219  0.00  0.00    +0.115 C 
BRANCH  13   6
ATOM      6  N   UNL     1      -8.802  -8.633  17.807  0.00  0.00    -0.311 NA
ATOM     30  H   UNL     1      -8.465  -7.681  17.953  0.00  0.00    +0.122 HD
BRANCH   6  14
ATOM      3  O   UNL     1     -12.531  -7.456  16.278  0.00  0.00    -0.380 OA
ATOM     14  C   UNL     1      -9.978  -8.609  16.940  0.00  0.00    +0.058 C 
ATOM     16  C   UNL     1     -10.108  -7.261  16.224  0.00  0.00    +0.047 C 
ATOM     17  C   UNL     1     -11.244  -8.897  17.752  0.00  0.00    +0.047 C 
ATOM     18  C   UNL     1     -11.409  -7.208  15.430  0.00  0.00    +0.161 C 
ATOM     19  C   UNL     1     -12.481  -8.753  16.873  0.00  0.00    +0.161 C 
ENDBRANCH   6  14
ENDBRANCH  13   6
ENDBRANCH   8  13
BRANCH  10  15
ATOM     15  C   UNL     1      -4.467 -12.280  16.743  0.00  0.00    +0.090 C 
BRANCH  15  20
ATOM      4  O   UNL     1      -1.884 -10.251  15.263  0.00  0.00    -0.356 OA
ATOM      7  N   UNL     1      -2.563 -10.771  16.357  0.00  0.00    -0.083 NA
ATOM     20  C   UNL     1      -3.521 -11.541  15.835  0.00  0.00    +0.086 A 
ATOM     21  C   UNL     1      -3.496 -11.546  14.429  0.00  0.00    +0.074 A 
ATOM     22  C   UNL     1      -2.449 -10.719  14.120  0.00  0.00    +0.175 A 
BRANCH  22  23
ATOM     23  C   UNL     1      -1.850 -10.265  12.859  0.00  0.00    +0.306 C 
BRANCH  23   5
ATOM      5  O   UNL     1      -2.141 -11.193  11.810  0.00  0.00    -0.484 OA
BRANCH   5  24
ATOM     24  C   UNL     1      -2.981 -10.753  10.824  0.00  0.00    +0.121 A 
ATOM     25  C   UNL     1      -2.995  -9.404  10.471  0.00  0.00    +0.045 A 
ATOM     26  C   UNL     1      -3.821 -11.654  10.172  0.00  0.00    +0.045 A 
ATOM     27  C   UNL     1      -3.851  -8.955   9.466  0.00  0.00    +0.004 A 
ATOM     28  C   UNL     1      -4.677 -11.205   9.166  0.00  0.00    +0.004 A 
ATOM     29  C   UNL     1      -4.693  -9.855   8.813  0.00  0.00    +0.000 A 
ENDBRANCH   5  24
ENDBRANCH  23   5
ENDBRANCH  22  23
ENDBRANCH  15  20
ENDBRANCH  10  15
TORSDOF 9
ENDMDL
MODEL 7
REMARK VINA RESULT:      -6.7     26.507     30.418
REMARK  Name = 75536343
REMARK  9 active torsions:
REMARK  status: ('A' for Active; 'I' for Inactive)
REMARK    1  A    between atoms: O_2  and  C_9
REMARK    2  A    between atoms: O_5  and  C_23
REMARK    3  A    between atoms: O_5  and  C_24
REMARK    4  A    between atoms: N_6  and  C_13
REMARK    5  A    between atoms: N_6  and  C_14
REMARK    6  A    between atoms: C_8  and  C_13
REMARK    7  A    between atoms: C_10  and  C_15
REMARK    8  A    between atoms: C_15  and  C_20
REMARK    9  A    between atoms: C_22  and  C_23
REMARK                            x       y       z     vdW  Elec       q    Type
REMARK                         _______ _______ _______ _____ _____    ______ ____
ROOT
ATOM      1  O   UNL     1     -13.753   5.024  33.137  0.00  0.00    -0.369 OA
ATOM      8  C   UNL     1     -13.894   3.705  32.589  0.00  0.00    +0.161 C 
ATOM      9  C   UNL     1     -15.088   2.968  33.210  0.00  0.00    +0.145 C 
ATOM     10  C   UNL     1     -14.914   5.852  33.033  0.00  0.00    +0.125 C 
ATOM     11  C   UNL     1     -16.362   3.806  33.193  0.00  0.00    +0.036 C 
ATOM     12  C   UNL     1     -16.103   5.206  33.744  0.00  0.00    +0.034 C 
ENDROOT
BRANCH   9   2
ATOM      2  O   UNL     1     -14.783   2.664  34.574  0.00  0.00    -0.389 OA
ATOM     31  H   UNL     1     -15.432   3.127  35.130  0.00  0.00    +0.210 HD
ENDBRANCH   9   2
BRANCH   8  13
ATOM     13  C   UNL     1     -13.946   3.747  31.063  0.00  0.00    +0.115 C 
BRANCH  13   6
ATOM      6  N   UNL     1     -13.073   2.738  30.486  0.00  0.00    -0.311 NA
ATOM     30  H   UNL     1     -12.470   2.364  31.219  0.00  0.00    +0.122 HD
BRANCH   6  14
ATOM      3  O   UNL     1     -16.126  -0.101  29.996  0.00  0.00    -0.380 OA
ATOM     14  C   UNL     1     -13.847   1.654  29.887  0.00  0.00    +0.058 C 
ATOM     16  C   UNL     1     -15.261   2.121  29.525  0.00  0.00    +0.047 C 
ATOM     17  C   UNL     1     -13.918   0.459  30.841  0.00  0.00    +0.047 C 
ATOM     18  C   UNL     1     -16.094   0.945  29.025  0.00  0.00    +0.161 C 
ATOM     19  C   UNL     1     -14.826  -0.623  30.269  0.00  0.00    +0.161 C 
ENDBRANCH   6  14
ENDBRANCH  13   6
ENDBRANCH   8  13
BRANCH  10  15
ATOM     15  C   UNL     1     -14.574   7.198  33.661  0.00  0.00    +0.090 C 
BRANCH  15  20
ATOM      4  O   UNL     1     -11.964   8.722  31.697  0.00  0.00    -0.356 OA
ATOM      7  N   UNL     1     -12.431   7.770  32.595  0.00  0.00    -0.083 NA
ATOM     20  C   UNL     1     -13.730   8.043  32.744  0.00  0.00    +0.086 A 
ATOM     21  C   UNL     1     -14.136   9.147  31.973  0.00  0.00    +0.074 A 
ATOM     22  C   UNL     1     -12.989   9.536  31.335  0.00  0.00    +0.175 A 
BRANCH  22  23
ATOM     23  C   UNL     1     -12.669  10.607  30.382  0.00  0.00    +0.306 C 
BRANCH  23   5
ATOM      5  O   UNL     1     -13.403  10.427  29.168  0.00  0.00    -0.484 OA
BRANCH   5  24
ATOM     24  C   UNL     1     -12.687  10.507  28.006  0.00  0.00    +0.121 A 
ATOM     25  C   UNL     1     -13.348  10.676  26.790  0.00  0.00    +0.045 A 
ATOM     26  C   UNL     1     -11.296  10.420  28.038  0.00  0.00    +0.045 A 
ATOM     27  C   UNL     1     -12.618  10.757  25.605  0.00  0.00    +0.004 A 
ATOM     28  C   UNL     1     -10.565  10.502  26.852  0.00  0.00    +0.004 A 
ATOM     29  C   UNL     1     -11.226  10.670  25.635  0.00  0.00    +0.000 A 
ENDBRANCH   5  24
ENDBRANCH  23   5
ENDBRANCH  22  23
ENDBRANCH  15  20
ENDBRANCH  10  15
TORSDOF 9
ENDMDL
MODEL 8
REMARK VINA RESULT:      -6.7      5.567      7.041
REMARK  Name = 75536343
REMARK  9 active torsions:
REMARK  status: ('A' for Active; 'I' for Inactive)
REMARK    1  A    between atoms: O_2  and  C_9
REMARK    2  A    between atoms: O_5  and  C_23
REMARK    3  A    between atoms: O_5  and  C_24
REMARK    4  A    between atoms: N_6  and  C_13
REMARK    5  A    between atoms: N_6  and  C_14
REMARK    6  A    between atoms: C_8  and  C_13
REMARK    7  A    between atoms: C_10  and  C_15
REMARK    8  A    between atoms: C_15  and  C_20
REMARK    9  A    between atoms: C_22  and  C_23
REMARK                            x       y       z     vdW  Elec       q    Type
REMARK                         _______ _______ _______ _____ _____    ______ ____
ROOT
ATOM      1  O   UNL     1      13.456   8.831  19.819  0.00  0.00    -0.369 OA
ATOM      8  C   UNL     1      12.410   9.474  20.560  0.00  0.00    +0.161 C 
ATOM      9  C   UNL     1      11.145   8.606  20.608  0.00  0.00    +0.145 C 
ATOM     10  C   UNL     1      13.809   7.522  20.275  0.00  0.00    +0.125 C 
ATOM     11  C   UNL     1      11.440   7.171  21.033  0.00  0.00    +0.036 C 
ATOM     12  C   UNL     1      12.599   6.590  20.227  0.00  0.00    +0.034 C 
ENDROOT
BRANCH   9   2
ATOM      2  O   UNL     1      10.566   8.565  19.301  0.00  0.00    -0.389 OA
ATOM     31  H   UNL     1       9.976   9.333  19.217  0.00  0.00    +0.210 HD
ENDBRANCH   9   2
BRANCH   8  13
ATOM     13  C   UNL     1      12.898   9.895  21.945  0.00  0.00    +0.115 C 
BRANCH  13   6
ATOM      6  N   UNL     1      11.787   9.998  22.878  0.00  0.00    -0.311 NA
ATOM     30  H   UNL     1      11.916   9.313  23.622  0.00  0.00    +0.122 HD
BRANCH   6  14
ATOM      3  O   UNL     1      12.386  13.152  25.584  0.00  0.00    -0.380 OA
ATOM     14  C   UNL     1      11.708  11.338  23.453  0.00  0.00    +0.058 C 
ATOM     16  C   UNL     1      13.099  11.965  23.586  0.00  0.00    +0.047 C 
ATOM     17  C   UNL     1      11.022  11.291  24.821  0.00  0.00    +0.047 C 
ATOM     18  C   UNL     1      13.009  13.305  24.309  0.00  0.00    +0.161 C 
ATOM     19  C   UNL     1      11.047  12.667  25.475  0.00  0.00    +0.161 C 
ENDBRANCH   6  14
ENDBRANCH  13   6
ENDBRANCH   8  13
BRANCH  10  15
ATOM     15  C   UNL     1      14.925   7.009  19.374  0.00  0.00    +0.090 C 
BRANCH  15  20
ATOM      4  O   UNL     1      17.767   7.677  21.487  0.00  0.00    -0.356 OA
ATOM      7  N   UNL     1      16.448   7.877  21.101  0.00  0.00    -0.083 NA
ATOM     20  C   UNL     1      16.264   7.060  20.060  0.00  0.00    +0.086 A 
ATOM     21  C   UNL     1      17.422   6.326  19.747  0.00  0.00    +0.074 A 
ATOM     22  C   UNL     1      18.337   6.751  20.673  0.00  0.00    +0.175 A 
BRANCH  22  23
ATOM     23  C   UNL     1      19.741   6.416  20.942  0.00  0.00    +0.306 C 
BRANCH  23   5
ATOM      5  O   UNL     1      20.095   5.197  20.283  0.00  0.00    -0.484 OA
BRANCH   5  24
ATOM     24  C   UNL     1      21.335   4.693  20.561  0.00  0.00    +0.121 A 
ATOM     25  C   UNL     1      21.462   3.421  21.117  0.00  0.00    +0.045 A 
ATOM     26  C   UNL     1      22.473   5.451  20.287  0.00  0.00    +0.045 A 
ATOM     27  C   UNL     1      22.727   2.907  21.401  0.00  0.00    +0.004 A 
ATOM     28  C   UNL     1      23.738   4.937  20.569  0.00  0.00    +0.004 A 
ATOM     29  C   UNL     1      23.865   3.665  21.127  0.00  0.00    +0.000 A 
ENDBRANCH   5  24
ENDBRANCH  23   5
ENDBRANCH  22  23
ENDBRANCH  15  20
ENDBRANCH  10  15
TORSDOF 9
ENDMDL
MODEL 9
REMARK VINA RESULT:      -6.4     26.964     29.352
REMARK  Name = 75536343
REMARK  9 active torsions:
REMARK  status: ('A' for Active; 'I' for Inactive)
REMARK    1  A    between atoms: O_2  and  C_9
REMARK    2  A    between atoms: O_5  and  C_23
REMARK    3  A    between atoms: O_5  and  C_24
REMARK    4  A    between atoms: N_6  and  C_13
REMARK    5  A    between atoms: N_6  and  C_14
REMARK    6  A    between atoms: C_8  and  C_13
REMARK    7  A    between atoms: C_10  and  C_15
REMARK    8  A    between atoms: C_15  and  C_20
REMARK    9  A    between atoms: C_22  and  C_23
REMARK                            x       y       z     vdW  Elec       q    Type
REMARK                         _______ _______ _______ _____ _____    ______ ____
ROOT
ATOM      1  O   UNL     1      -2.496 -11.437  15.632  0.00  0.00    -0.369 OA
ATOM      8  C   UNL     1      -2.079 -11.740  14.294  0.00  0.00    +0.161 C 
ATOM      9  C   UNL     1      -2.688 -13.061  13.805  0.00  0.00    +0.145 C 
ATOM     10  C   UNL     1      -3.911 -11.397  15.834  0.00  0.00    +0.125 C 
ATOM     11  C   UNL     1      -4.194 -13.127  14.035  0.00  0.00    +0.036 C 
ATOM     12  C   UNL     1      -4.546 -12.739  15.469  0.00  0.00    +0.034 C 
ENDROOT
BRANCH   9   2
ATOM      2  O   UNL     1      -2.088 -14.140  14.527  0.00  0.00    -0.389 OA
ATOM     31  H   UNL     1      -2.598 -14.944  14.333  0.00  0.00    +0.210 HD
ENDBRANCH   9   2
BRANCH   8  13
ATOM     13  C   UNL     1      -2.358 -10.570  13.353  0.00  0.00    +0.115 C 
BRANCH  13   6
ATOM      6  N   UNL     1      -2.211 -10.973  11.964  0.00  0.00    -0.311 NA
ATOM     30  H   UNL     1      -2.151 -11.991  11.920  0.00  0.00    +0.122 HD
BRANCH   6  14
ATOM      3  O   UNL     1      -5.179  -8.409  10.467  0.00  0.00    -0.380 OA
ATOM     14  C   UNL     1      -3.342 -10.514  11.161  0.00  0.00    +0.058 C 
ATOM     16  C   UNL     1      -2.941  -9.336  10.268  0.00  0.00    +0.047 C 
ATOM     17  C   UNL     1      -4.509 -10.112  12.066  0.00  0.00    +0.047 C 
ATOM     18  C   UNL     1      -4.162  -8.785   9.538  0.00  0.00    +0.161 C 
ATOM     19  C   UNL     1      -5.642  -9.518  11.238  0.00  0.00    +0.161 C 
ENDBRANCH   6  14
ENDBRANCH  13   6
ENDBRANCH   8  13
BRANCH  10  15
ATOM     15  C   UNL     1      -4.156 -11.063  17.299  0.00  0.00    +0.090 C 
BRANCH  15  20
ATOM      4  O   UNL     1      -7.484 -10.324  18.468  0.00  0.00    -0.356 OA
ATOM      7  N   UNL     1      -6.276 -11.006  18.547  0.00  0.00    -0.083 NA
ATOM     20  C   UNL     1      -5.549 -10.540  17.528  0.00  0.00    +0.086 A 
ATOM     21  C   UNL     1      -6.240  -9.571  16.778  0.00  0.00    +0.074 A 
ATOM     22  C   UNL     1      -7.450  -9.473  17.411  0.00  0.00    +0.175 A 
BRANCH  22  23
ATOM     23  C   UNL     1      -8.655  -8.666  17.180  0.00  0.00    +0.306 C 
BRANCH  23   5
ATOM      5  O   UNL     1      -9.294  -9.066  15.965  0.00  0.00    -0.484 OA
BRANCH   5  24
ATOM     24  C   UNL     1     -10.222  -8.203  15.452  0.00  0.00    +0.121 A 
ATOM     25  C   UNL     1     -11.027  -8.598  14.384  0.00  0.00    +0.045 A 
ATOM     26  C   UNL     1     -10.363  -6.927  15.997  0.00  0.00    +0.045 A 
ATOM     27  C   UNL     1     -11.973  -7.717  13.860  0.00  0.00    +0.004 A 
ATOM     28  C   UNL     1     -11.309  -6.047  15.473  0.00  0.00    +0.004 A 
ATOM     29  C   UNL     1     -12.114  -6.441  14.405  0.00  0.00    +0.000 A 
ENDBRANCH   5  24
ENDBRANCH  23   5
ENDBRANCH  22  23
ENDBRANCH  15  20
ENDBRANCH  10  15
TORSDOF 9
ENDMDL
MODEL 10
REMARK VINA RESULT:      -6.3     16.320     20.444
REMARK  Name = 75536343
REMARK  9 active torsions:
REMARK  status: ('A' for Active; 'I' for Inactive)
REMARK    1  A    between atoms: O_2  and  C_9
REMARK    2  A    between atoms: O_5  and  C_23
REMARK    3  A    between atoms: O_5  and  C_24
REMARK    4  A    between atoms: N_6  and  C_13
REMARK    5  A    between atoms: N_6  and  C_14
REMARK    6  A    between atoms: C_8  and  C_13
REMARK    7  A    between atoms: C_10  and  C_15
REMARK    8  A    between atoms: C_15  and  C_20
REMARK    9  A    between atoms: C_22  and  C_23
REMARK                            x       y       z     vdW  Elec       q    Type
REMARK                         _______ _______ _______ _____ _____    ______ ____
ROOT
ATOM      1  O   UNL     1      12.724   2.857   0.588  0.00  0.00    -0.369 OA
ATOM      8  C   UNL     1      13.069   3.577   1.780  0.00  0.00    +0.161 C 
ATOM      9  C   UNL     1      14.470   4.194   1.673  0.00  0.00    +0.145 C 
ATOM     10  C   UNL     1      12.808   3.612  -0.624  0.00  0.00    +0.125 C 
ATOM     11  C   UNL     1      14.665   4.974   0.377  0.00  0.00    +0.036 C 
ATOM     12  C   UNL     1      14.224   4.148  -0.829  0.00  0.00    +0.034 C 
ENDROOT
BRANCH   9   2
ATOM      2  O   UNL     1      15.439   3.143   1.701  0.00  0.00    -0.389 OA
ATOM     31  H   UNL     1      15.306   2.599   0.907  0.00  0.00    +0.210 HD
ENDBRANCH   9   2
BRANCH   8  13
ATOM     13  C   UNL     1      11.992   4.601   2.134  0.00  0.00    +0.115 C 
BRANCH  13   6
ATOM      6  N   UNL     1      12.481   5.550   3.120  0.00  0.00    -0.311 NA
ATOM     30  H   UNL     1      12.876   6.356   2.635  0.00  0.00    +0.122 HD
BRANCH   6  14
ATOM      3  O   UNL     1      10.075   5.797   6.552  0.00  0.00    -0.380 OA
ATOM     14  C   UNL     1      11.406   5.988   4.006  0.00  0.00    +0.058 C 
ATOM     16  C   UNL     1      11.966   6.636   5.276  0.00  0.00    +0.047 C 
ATOM     17  C   UNL     1      10.504   4.807   4.374  0.00  0.00    +0.047 C 
ATOM     18  C   UNL     1      10.836   6.966   6.245  0.00  0.00    +0.161 C 
ATOM     19  C   UNL     1       9.456   5.237   5.393  0.00  0.00    +0.161 C 
ENDBRANCH   6  14
ENDBRANCH  13   6
ENDBRANCH   8  13
BRANCH  10  15
ATOM     15  C   UNL     1      12.407   2.687  -1.767  0.00  0.00    +0.090 C 
BRANCH  15  20
ATOM      4  O   UNL     1       9.288   3.262  -3.478  0.00  0.00    -0.356 OA
ATOM      7  N   UNL     1      10.162   2.465  -2.749  0.00  0.00    -0.083 NA
ATOM     20  C   UNL     1      11.236   3.232  -2.541  0.00  0.00    +0.086 A 
ATOM     21  C   UNL     1      11.099   4.510  -3.111  0.00  0.00    +0.074 A 
ATOM     22  C   UNL     1       9.858   4.477  -3.688  0.00  0.00    +0.175 A 
BRANCH  22  23
ATOM     23  C   UNL     1       9.064   5.450  -4.449  0.00  0.00    +0.306 C 
BRANCH  23   5
ATOM      5  O   UNL     1       7.744   4.946  -4.673  0.00  0.00    -0.484 OA
BRANCH   5  24
ATOM     24  C   UNL     1       6.712   5.714  -4.209  0.00  0.00    +0.121 A 
ATOM     25  C   UNL     1       6.939   6.652  -3.203  0.00  0.00    +0.045 A 
ATOM     26  C   UNL     1       5.434   5.559  -4.744  0.00  0.00    +0.045 A 
ATOM     27  C   UNL     1       5.886   7.434  -2.729  0.00  0.00    +0.004 A 
ATOM     28  C   UNL     1       4.381   6.343  -4.271  0.00  0.00    +0.004 A 
ATOM     29  C   UNL     1       4.607   7.280  -3.263  0.00  0.00    +0.000 A 
ENDBRANCH   5  24
ENDBRANCH  23   5
ENDBRANCH  22  23
ENDBRANCH  15  20
ENDBRANCH  10  15
TORSDOF 9
ENDMDL
