MODEL 1
REMARK VINA RESULT:      -7.1      0.000      0.000
REMARK  Name = 45361017
REMARK  8 active torsions:
REMARK  status: ('A' for Active; 'I' for Inactive)
REMARK    1  A    between atoms: N_4  and  C_15
REMARK    2  A    between atoms: N_5  and  C_17
REMARK    3  A    between atoms: N_7  and  C_26
REMARK    4  A    between atoms: C_12  and  C_16
REMARK    5  A    between atoms: C_15  and  C_19
REMARK    6  A    between atoms: C_16  and  C_18
REMARK    7  A    between atoms: C_18  and  C_20
REMARK    8  A    between atoms: C_26  and  C_27
REMARK                            x       y       z     vdW  Elec       q    Type
REMARK                         _______ _______ _______ _____ _____    ______ ____
ROOT
ATOM      2  O   UNL     1      14.347  10.325  22.283  0.00  0.00    -0.274 OA
ATOM      4  N   UNL     1      11.963   9.341  21.481  0.00  0.00    -0.286 NA
ATOM      5  N   UNL     1      14.525   7.653  19.487  0.00  0.00    -0.296 NA
ATOM      6  N   UNL     1      15.450   8.326  22.136  0.00  0.00    -0.312 N 
ATOM      8  C   UNL     1      13.190   7.752  20.116  0.00  0.00    +0.084 C 
ATOM      9  C   UNL     1      13.083   8.383  21.536  0.00  0.00    +0.161 C 
ATOM     10  C   UNL     1      12.183   8.596  19.314  0.00  0.00    +0.036 C 
ATOM     11  C   UNL     1      11.134   8.964  20.341  0.00  0.00    +0.087 C 
ATOM     12  C   UNL     1      15.482   6.769  20.210  0.00  0.00    +0.074 C 
ATOM     13  C   UNL     1      14.332   9.126  22.007  0.00  0.00    +0.232 C 
ATOM     14  C   UNL     1      15.486   6.931  21.742  0.00  0.00    +0.123 C 
ATOM     17  C   UNL     1      14.411   7.237  18.078  0.00  0.00    +0.105 C 
ATOM     31  H   UNL     1      16.309   8.754  22.467  0.00  0.00    +0.149 HD
ENDROOT
BRANCH   4  15
ATOM     15  C   UNL     1      11.197   9.404  22.719  0.00  0.00    +0.120 C 
BRANCH  15  19
ATOM     19  C   UNL     1      11.073  10.814  23.231  0.00  0.00    -0.033 A 
ATOM     21  C   UNL     1      11.081  11.884  22.336  0.00  0.00    +0.005 A 
ATOM     22  C   UNL     1      10.949  11.051  24.601  0.00  0.00    +0.005 A 
ATOM     23  C   UNL     1      10.965  13.191  22.811  0.00  0.00    +0.000 A 
ATOM     24  C   UNL     1      10.834  12.357  25.075  0.00  0.00    +0.000 A 
ATOM     25  C   UNL     1      10.841  13.428  24.180  0.00  0.00    +0.000 A 
ENDBRANCH  15  19
ENDBRANCH   4  15
BRANCH  12  16
ATOM     16  C   UNL     1      16.923   7.014  19.714  0.00  0.00    +0.029 C 
BRANCH  16  18
ATOM     18  C   UNL     1      17.804   5.813  20.007  0.00  0.00    +0.097 C 
BRANCH  18  20
ATOM      3  O   UNL     1      19.026   6.778  21.861  0.00  0.00    -0.276 OA
ATOM      7  N   UNL     1      20.206   5.848  20.091  0.00  0.00    -0.311 N 
ATOM     20  C   UNL     1      19.053   6.209  20.773  0.00  0.00    +0.213 C 
ATOM     32  H   UNL     1      20.132   5.364  19.201  0.00  0.00    +0.149 HD
BRANCH   7  26
ATOM     26  C   UNL     1      21.525   6.117  20.612  0.00  0.00    +0.146 C 
BRANCH  26  27
ATOM      1  S   UNL     1      23.905   4.713  20.293  0.00  0.00    -0.100 S 
ATOM     27  C   UNL     1      22.297   4.850  20.867  0.00  0.00    +0.007 A 
ATOM     28  C   UNL     1      21.886   3.714  21.530  0.00  0.00    +0.013 A 
ATOM     29  C   UNL     1      22.905   2.718  21.567  0.00  0.00    +0.008 A 
ATOM     30  C   UNL     1      24.055   3.131  20.932  0.00  0.00    +0.045 A 
ENDBRANCH  26  27
ENDBRANCH   7  26
ENDBRANCH  18  20
ENDBRANCH  16  18
ENDBRANCH  12  16
TORSDOF 7
ENDMDL
MODEL 2
REMARK VINA RESULT:      -7.0     27.825     31.616
REMARK  Name = 45361017
REMARK  8 active torsions:
REMARK  status: ('A' for Active; 'I' for Inactive)
REMARK    1  A    between atoms: N_4  and  C_15
REMARK    2  A    between atoms: N_5  and  C_17
REMARK    3  A    between atoms: N_7  and  C_26
REMARK    4  A    between atoms: C_12  and  C_16
REMARK    5  A    between atoms: C_15  and  C_19
REMARK    6  A    between atoms: C_16  and  C_18
REMARK    7  A    between atoms: C_18  and  C_20
REMARK    8  A    between atoms: C_26  and  C_27
REMARK                            x       y       z     vdW  Elec       q    Type
REMARK                         _______ _______ _______ _____ _____    ______ ____
ROOT
ATOM      2  O   UNL     1     -12.966   4.832  22.594  0.00  0.00    -0.274 OA
ATOM      4  N   UNL     1     -14.246   6.875  21.379  0.00  0.00    -0.286 NA
ATOM      5  N   UNL     1     -16.771   4.324  22.092  0.00  0.00    -0.296 NA
ATOM      6  N   UNL     1     -14.661   4.373  24.059  0.00  0.00    -0.312 N 
ATOM      8  C   UNL     1     -16.328   5.712  21.835  0.00  0.00    +0.084 C 
ATOM      9  C   UNL     1     -14.982   6.188  22.457  0.00  0.00    +0.161 C 
ATOM     10  C   UNL     1     -16.124   6.036  20.343  0.00  0.00    +0.036 C 
ATOM     11  C   UNL     1     -15.227   7.255  20.367  0.00  0.00    +0.087 C 
ATOM     12  C   UNL     1     -17.054   4.023  23.524  0.00  0.00    +0.074 C 
ATOM     13  C   UNL     1     -14.097   5.074  23.011  0.00  0.00    +0.232 C 
ATOM     14  C   UNL     1     -16.020   4.580  24.520  0.00  0.00    +0.123 C 
ATOM     17  C   UNL     1     -17.937   3.983  21.259  0.00  0.00    +0.105 C 
ATOM     31  H   UNL     1     -14.116   3.633  24.489  0.00  0.00    +0.149 HD
ENDROOT
BRANCH   4  15
ATOM     15  C   UNL     1     -13.470   8.016  21.846  0.00  0.00    +0.120 C 
BRANCH  15  19
ATOM     19  C   UNL     1     -12.433   8.438  20.841  0.00  0.00    -0.033 A 
ATOM     21  C   UNL     1     -11.820   7.484  20.029  0.00  0.00    +0.005 A 
ATOM     22  C   UNL     1     -12.084   9.784  20.721  0.00  0.00    +0.005 A 
ATOM     23  C   UNL     1     -10.859   7.876  19.097  0.00  0.00    +0.000 A 
ATOM     24  C   UNL     1     -11.123  10.175  19.790  0.00  0.00    +0.000 A 
ATOM     25  C   UNL     1     -10.510   9.222  18.977  0.00  0.00    +0.000 A 
ENDBRANCH  15  19
ENDBRANCH   4  15
BRANCH  12  16
ATOM     16  C   UNL     1     -17.140   2.498  23.748  0.00  0.00    +0.029 C 
BRANCH  16  18
ATOM     18  C   UNL     1     -17.819   2.187  25.069  0.00  0.00    +0.097 C 
BRANCH  18  20
ATOM      3  O   UNL     1     -16.451   0.226  25.453  0.00  0.00    -0.276 OA
ATOM      7  N   UNL     1     -16.944   1.628  27.237  0.00  0.00    -0.311 N 
ATOM     20  C   UNL     1     -16.996   1.229  25.910  0.00  0.00    +0.213 C 
ATOM     32  H   UNL     1     -17.413   2.483  27.522  0.00  0.00    +0.149 HD
BRANCH   7  26
ATOM     26  C   UNL     1     -16.222   0.881  28.239  0.00  0.00    +0.146 C 
BRANCH  26  27
ATOM      1  S   UNL     1     -14.134   1.097  30.065  0.00  0.00    -0.100 S 
ATOM     27  C   UNL     1     -15.385   1.778  29.113  0.00  0.00    +0.007 A 
ATOM     28  C   UNL     1     -15.475   3.142  29.276  0.00  0.00    +0.013 A 
ATOM     29  C   UNL     1     -14.503   3.636  30.195  0.00  0.00    +0.008 A 
ATOM     30  C   UNL     1     -13.709   2.629  30.698  0.00  0.00    +0.045 A 
ENDBRANCH  26  27
ENDBRANCH   7  26
ENDBRANCH  18  20
ENDBRANCH  16  18
ENDBRANCH  12  16
TORSDOF 7
ENDMDL
MODEL 3
REMARK VINA RESULT:      -6.8      1.913      2.248
REMARK  Name = 45361017
REMARK  8 active torsions:
REMARK  status: ('A' for Active; 'I' for Inactive)
REMARK    1  A    between atoms: N_4  and  C_15
REMARK    2  A    between atoms: N_5  and  C_17
REMARK    3  A    between atoms: N_7  and  C_26
REMARK    4  A    between atoms: C_12  and  C_16
REMARK    5  A    between atoms: C_15  and  C_19
REMARK    6  A    between atoms: C_16  and  C_18
REMARK    7  A    between atoms: C_18  and  C_20
REMARK    8  A    between atoms: C_26  and  C_27
REMARK                            x       y       z     vdW  Elec       q    Type
REMARK                         _______ _______ _______ _____ _____    ______ ____
ROOT
ATOM      2  O   UNL     1      14.199  10.356  22.344  0.00  0.00    -0.274 OA
ATOM      4  N   UNL     1      11.807   9.340  21.612  0.00  0.00    -0.286 NA
ATOM      5  N   UNL     1      14.330   7.692  19.537  0.00  0.00    -0.296 NA
ATOM      6  N   UNL     1      15.326   8.373  22.158  0.00  0.00    -0.312 N 
ATOM      8  C   UNL     1      13.013   7.771  20.206  0.00  0.00    +0.084 C 
ATOM      9  C   UNL     1      12.941   8.398  21.631  0.00  0.00    +0.161 C 
ATOM     10  C   UNL     1      11.971   8.603  19.437  0.00  0.00    +0.036 C 
ATOM     11  C   UNL     1      10.948   8.954  20.497  0.00  0.00    +0.087 C 
ATOM     12  C   UNL     1      15.321   6.820  20.229  0.00  0.00    +0.074 C 
ATOM     13  C   UNL     1      14.192   9.157  22.065  0.00  0.00    +0.232 C 
ATOM     14  C   UNL     1      15.369   6.980  21.760  0.00  0.00    +0.123 C 
ATOM     17  C   UNL     1      14.180   7.278  18.132  0.00  0.00    +0.105 C 
ATOM     31  H   UNL     1      16.187   8.812  22.465  0.00  0.00    +0.149 HD
ENDROOT
BRANCH   4  15
ATOM     15  C   UNL     1      11.077   9.390  22.873  0.00  0.00    +0.120 C 
BRANCH  15  19
ATOM     19  C   UNL     1      11.004  10.788  23.424  0.00  0.00    -0.033 A 
ATOM     21  C   UNL     1      10.921  11.877  22.556  0.00  0.00    +0.005 A 
ATOM     22  C   UNL     1      11.019  10.996  24.804  0.00  0.00    +0.005 A 
ATOM     23  C   UNL     1      10.853  13.173  23.067  0.00  0.00    +0.000 A 
ATOM     24  C   UNL     1      10.951  12.292  25.315  0.00  0.00    +0.000 A 
ATOM     25  C   UNL     1      10.868  13.381  24.447  0.00  0.00    +0.000 A 
ENDBRANCH  15  19
ENDBRANCH   4  15
BRANCH  12  16
ATOM     16  C   UNL     1      16.743   7.087  19.690  0.00  0.00    +0.029 C 
BRANCH  16  18
ATOM     18  C   UNL     1      17.459   5.782  19.396  0.00  0.00    +0.097 C 
BRANCH  18  20
ATOM      3  O   UNL     1      19.613   4.810  19.924  0.00  0.00    -0.276 OA
ATOM      7  N   UNL     1      18.931   6.723  21.048  0.00  0.00    -0.311 N 
ATOM     20  C   UNL     1      18.785   5.693  20.130  0.00  0.00    +0.213 C 
ATOM     32  H   UNL     1      18.198   7.420  21.140  0.00  0.00    +0.149 HD
BRANCH   7  26
ATOM     26  C   UNL     1      20.107   6.858  21.874  0.00  0.00    +0.146 C 
BRANCH  26  27
ATOM      1  S   UNL     1      21.174   9.396  21.478  0.00  0.00    -0.100 S 
ATOM     27  C   UNL     1      21.163   7.704  21.212  0.00  0.00    +0.007 A 
ATOM     28  C   UNL     1      22.181   7.305  20.375  0.00  0.00    +0.013 A 
ATOM     29  C   UNL     1      22.982   8.404  19.946  0.00  0.00    +0.008 A 
ATOM     30  C   UNL     1      22.545   9.599  20.472  0.00  0.00    +0.045 A 
ENDBRANCH  26  27
ENDBRANCH   7  26
ENDBRANCH  18  20
ENDBRANCH  16  18
ENDBRANCH  12  16
TORSDOF 7
ENDMDL
MODEL 4
REMARK VINA RESULT:      -6.5     27.436     30.248
REMARK  Name = 45361017
REMARK  8 active torsions:
REMARK  status: ('A' for Active; 'I' for Inactive)
REMARK    1  A    between atoms: N_4  and  C_15
REMARK    2  A    between atoms: N_5  and  C_17
REMARK    3  A    between atoms: N_7  and  C_26
REMARK    4  A    between atoms: C_12  and  C_16
REMARK    5  A    between atoms: C_15  and  C_19
REMARK    6  A    between atoms: C_16  and  C_18
REMARK    7  A    between atoms: C_18  and  C_20
REMARK    8  A    between atoms: C_26  and  C_27
REMARK                            x       y       z     vdW  Elec       q    Type
REMARK                         _______ _______ _______ _____ _____    ______ ____
ROOT
ATOM      2  O   UNL     1      -5.948  -9.581  13.285  0.00  0.00    -0.274 OA
ATOM      4  N   UNL     1      -3.825 -10.663  12.015  0.00  0.00    -0.286 NA
ATOM      5  N   UNL     1      -3.107 -10.832  15.599  0.00  0.00    -0.296 NA
ATOM      6  N   UNL     1      -5.924 -11.069  15.023  0.00  0.00    -0.312 N 
ATOM      8  C   UNL     1      -2.959 -11.281  14.198  0.00  0.00    +0.084 C 
ATOM      9  C   UNL     1      -4.222 -11.297  13.286  0.00  0.00    +0.161 C 
ATOM     10  C   UNL     1      -1.978 -10.430  13.370  0.00  0.00    +0.036 C 
ATOM     11  C   UNL     1      -2.369 -10.732  11.939  0.00  0.00    +0.087 C 
ATOM     12  C   UNL     1      -3.988 -11.698  16.433  0.00  0.00    +0.074 C 
ATOM     13  C   UNL     1      -5.429 -10.547  13.844  0.00  0.00    +0.232 C 
ATOM     14  C   UNL     1      -5.289 -12.153  15.746  0.00  0.00    +0.123 C 
ATOM     17  C   UNL     1      -1.791 -10.675  16.241  0.00  0.00    +0.105 C 
ATOM     31  H   UNL     1      -6.741 -10.630  15.435  0.00  0.00    +0.149 HD
ENDROOT
BRANCH   4  15
ATOM     15  C   UNL     1      -4.463 -11.259  10.849  0.00  0.00    +0.120 C 
BRANCH  15  19
ATOM     19  C   UNL     1      -5.331 -10.271  10.118  0.00  0.00    -0.033 A 
ATOM     21  C   UNL     1      -4.957  -8.928  10.053  0.00  0.00    +0.005 A 
ATOM     22  C   UNL     1      -6.509 -10.697   9.503  0.00  0.00    +0.005 A 
ATOM     23  C   UNL     1      -5.761  -8.013   9.375  0.00  0.00    +0.000 A 
ATOM     24  C   UNL     1      -7.313  -9.781   8.825  0.00  0.00    +0.000 A 
ATOM     25  C   UNL     1      -6.939  -8.438   8.760  0.00  0.00    +0.000 A 
ENDBRANCH  15  19
ENDBRANCH   4  15
BRANCH  12  16
ATOM     16  C   UNL     1      -4.381 -10.971  17.737  0.00  0.00    +0.029 C 
BRANCH  16  18
ATOM     18  C   UNL     1      -4.768 -11.969  18.812  0.00  0.00    +0.097 C 
BRANCH  18  20
ATOM      3  O   UNL     1      -6.110 -11.172  20.664  0.00  0.00    -0.276 OA
ATOM      7  N   UNL     1      -7.156 -11.724  18.666  0.00  0.00    -0.311 N 
ATOM     20  C   UNL     1      -6.060 -11.573  19.504  0.00  0.00    +0.213 C 
ATOM     32  H   UNL     1      -7.017 -12.048  17.714  0.00  0.00    +0.149 HD
BRANCH   7  26
ATOM     26  C   UNL     1      -8.500 -11.414  19.092  0.00  0.00    +0.146 C 
BRANCH  26  27
ATOM      1  S   UNL     1     -10.711  -9.810  18.570  0.00  0.00    -0.100 S 
ATOM     27  C   UNL     1      -9.068 -10.237  18.344  0.00  0.00    +0.007 A 
ATOM     28  C   UNL     1      -8.434  -9.401  17.452  0.00  0.00    +0.013 A 
ATOM     29  C   UNL     1      -9.308  -8.395  16.947  0.00  0.00    +0.008 A 
ATOM     30  C   UNL     1     -10.577  -8.502  17.473  0.00  0.00    +0.045 A 
ENDBRANCH  26  27
ENDBRANCH   7  26
ENDBRANCH  18  20
ENDBRANCH  16  18
ENDBRANCH  12  16
TORSDOF 7
ENDMDL
MODEL 5
REMARK VINA RESULT:      -6.5     28.179     30.548
REMARK  Name = 45361017
REMARK  8 active torsions:
REMARK  status: ('A' for Active; 'I' for Inactive)
REMARK    1  A    between atoms: N_4  and  C_15
REMARK    2  A    between atoms: N_5  and  C_17
REMARK    3  A    between atoms: N_7  and  C_26
REMARK    4  A    between atoms: C_12  and  C_16
REMARK    5  A    between atoms: C_15  and  C_19
REMARK    6  A    between atoms: C_16  and  C_18
REMARK    7  A    between atoms: C_18  and  C_20
REMARK    8  A    between atoms: C_26  and  C_27
REMARK                            x       y       z     vdW  Elec       q    Type
REMARK                         _______ _______ _______ _____ _____    ______ ____
ROOT
ATOM      2  O   UNL     1     -10.356  -5.839  15.573  0.00  0.00    -0.274 OA
ATOM      4  N   UNL     1     -12.023  -7.373  14.102  0.00  0.00    -0.286 NA
ATOM      5  N   UNL     1      -9.435  -9.597  15.425  0.00  0.00    -0.296 NA
ATOM      6  N   UNL     1     -10.028  -7.406  17.207  0.00  0.00    -0.312 N 
ATOM      8  C   UNL     1     -10.786  -9.305  14.896  0.00  0.00    +0.084 C 
ATOM      9  C   UNL     1     -11.484  -7.983  15.332  0.00  0.00    +0.161 C 
ATOM     10  C   UNL     1     -10.847  -9.209  13.360  0.00  0.00    +0.036 C 
ATOM     11  C   UNL     1     -12.124  -8.435  13.107  0.00  0.00    +0.087 C 
ATOM     12  C   UNL     1      -9.378  -9.777  16.903  0.00  0.00    +0.074 C 
ATOM     13  C   UNL     1     -10.571  -6.967  16.015  0.00  0.00    +0.232 C 
ATOM     14  C   UNL     1     -10.197  -8.754  17.713  0.00  0.00    +0.123 C 
ATOM     17  C   UNL     1      -8.847 -10.764  14.746  0.00  0.00    +0.105 C 
ATOM     31  H   UNL     1      -9.430  -6.770  17.724  0.00  0.00    +0.149 HD
ENDROOT
BRANCH   4  15
ATOM     15  C   UNL     1     -13.294  -6.690  14.306  0.00  0.00    +0.120 C 
BRANCH  15  19
ATOM     19  C   UNL     1     -13.424  -5.474  13.429  0.00  0.00    -0.033 A 
ATOM     21  C   UNL     1     -12.281  -4.817  12.973  0.00  0.00    +0.005 A 
ATOM     22  C   UNL     1     -14.688  -5.004  13.071  0.00  0.00    +0.005 A 
ATOM     23  C   UNL     1     -12.403  -3.690  12.159  0.00  0.00    +0.000 A 
ATOM     24  C   UNL     1     -14.809  -3.877  12.258  0.00  0.00    +0.000 A 
ATOM     25  C   UNL     1     -13.666  -3.220  11.802  0.00  0.00    +0.000 A 
ENDBRANCH  15  19
ENDBRANCH   4  15
BRANCH  12  16
ATOM     16  C   UNL     1      -7.919  -9.702  17.400  0.00  0.00    +0.029 C 
BRANCH  16  18
ATOM     18  C   UNL     1      -7.662 -10.748  18.469  0.00  0.00    +0.097 C 
BRANCH  18  20
ATOM      3  O   UNL     1      -5.673 -11.212  19.771  0.00  0.00    -0.276 OA
ATOM      7  N   UNL     1      -5.478 -10.914  17.476  0.00  0.00    -0.311 N 
ATOM     20  C   UNL     1      -6.176 -10.986  18.673  0.00  0.00    +0.213 C 
ATOM     32  H   UNL     1      -5.981 -10.738  16.612  0.00  0.00    +0.149 HD
BRANCH   7  26
ATOM     26  C   UNL     1      -4.049 -11.105  17.406  0.00  0.00    +0.146 C 
BRANCH  26  27
ATOM      1  S   UNL     1      -1.848 -10.622  15.775  0.00  0.00    -0.100 S 
ATOM     27  C   UNL     1      -3.523 -10.891  16.011  0.00  0.00    +0.007 A 
ATOM     28  C   UNL     1      -4.221 -10.878  14.824  0.00  0.00    +0.013 A 
ATOM     29  C   UNL     1      -3.369 -10.643  13.705  0.00  0.00    +0.008 A 
ATOM     30  C   UNL     1      -2.053 -10.487  14.081  0.00  0.00    +0.045 A 
ENDBRANCH  26  27
ENDBRANCH   7  26
ENDBRANCH  18  20
ENDBRANCH  16  18
ENDBRANCH  12  16
TORSDOF 7
ENDMDL
MODEL 6
REMARK VINA RESULT:      -6.4     28.000     29.907
REMARK  Name = 45361017
REMARK  8 active torsions:
REMARK  status: ('A' for Active; 'I' for Inactive)
REMARK    1  A    between atoms: N_4  and  C_15
REMARK    2  A    between atoms: N_5  and  C_17
REMARK    3  A    between atoms: N_7  and  C_26
REMARK    4  A    between atoms: C_12  and  C_16
REMARK    5  A    between atoms: C_15  and  C_19
REMARK    6  A    between atoms: C_16  and  C_18
REMARK    7  A    between atoms: C_18  and  C_20
REMARK    8  A    between atoms: C_26  and  C_27
REMARK                            x       y       z     vdW  Elec       q    Type
REMARK                         _______ _______ _______ _____ _____    ______ ____
ROOT
ATOM      2  O   UNL     1      -8.614  -9.527  14.961  0.00  0.00    -0.274 OA
ATOM      4  N   UNL     1      -9.549  -9.279  17.482  0.00  0.00    -0.286 NA
ATOM      5  N   UNL     1      -6.682 -11.548  17.639  0.00  0.00    -0.296 NA
ATOM      6  N   UNL     1      -6.408  -9.561  15.565  0.00  0.00    -0.312 N 
ATOM      8  C   UNL     1      -7.625 -10.565  18.217  0.00  0.00    +0.084 C 
ATOM      9  C   UNL     1      -8.084  -9.369  17.332  0.00  0.00    +0.161 C 
ATOM     10  C   UNL     1      -8.970 -11.173  18.656  0.00  0.00    +0.036 C 
ATOM     11  C   UNL     1      -9.895  -9.977  18.716  0.00  0.00    +0.087 C 
ATOM     12  C   UNL     1      -5.346 -10.988  17.289  0.00  0.00    +0.074 C 
ATOM     13  C   UNL     1      -7.760  -9.504  15.846  0.00  0.00    +0.232 C 
ATOM     14  C   UNL     1      -5.381  -9.617  16.587  0.00  0.00    +0.123 C 
ATOM     17  C   UNL     1      -6.529 -12.712  18.528  0.00  0.00    +0.105 C 
ATOM     31  H   UNL     1      -6.123  -9.627  14.594  0.00  0.00    +0.149 HD
ENDROOT
BRANCH   4  15
ATOM     15  C   UNL     1     -10.048  -7.910  17.468  0.00  0.00    +0.120 C 
BRANCH  15  19
ATOM     19  C   UNL     1     -11.227  -7.752  16.547  0.00  0.00    -0.033 A 
ATOM     21  C   UNL     1     -11.906  -8.878  16.083  0.00  0.00    +0.005 A 
ATOM     22  C   UNL     1     -11.642  -6.477  16.158  0.00  0.00    +0.005 A 
ATOM     23  C   UNL     1     -12.999  -8.731  15.230  0.00  0.00    +0.000 A 
ATOM     24  C   UNL     1     -12.735  -6.331  15.304  0.00  0.00    +0.000 A 
ATOM     25  C   UNL     1     -13.415  -7.457  14.840  0.00  0.00    +0.000 A 
ENDBRANCH  15  19
ENDBRANCH   4  15
BRANCH  12  16
ATOM     16  C   UNL     1      -4.577 -11.960  16.370  0.00  0.00    +0.029 C 
BRANCH  16  18
ATOM     18  C   UNL     1      -3.205 -11.407  16.031  0.00  0.00    +0.097 C 
BRANCH  18  20
ATOM      3  O   UNL     1      -2.572 -12.967  14.291  0.00  0.00    -0.276 OA
ATOM      7  N   UNL     1      -2.634 -10.697  13.806  0.00  0.00    -0.311 N 
ATOM     20  C   UNL     1      -2.772 -11.804  14.631  0.00  0.00    +0.213 C 
ATOM     32  H   UNL     1      -2.838  -9.771  14.171  0.00  0.00    +0.149 HD
BRANCH   7  26
ATOM     26  C   UNL     1      -2.230 -10.812  12.425  0.00  0.00    +0.146 C 
BRANCH  26  27
ATOM      1  S   UNL     1      -4.848 -10.061  11.861  0.00  0.00    -0.100 S 
ATOM     27  C   UNL     1      -3.173 -10.086  11.502  0.00  0.00    +0.007 A 
ATOM     28  C   UNL     1      -2.881  -9.398  10.346  0.00  0.00    +0.013 A 
ATOM     29  C   UNL     1      -4.048  -8.843   9.744  0.00  0.00    +0.008 A 
ATOM     30  C   UNL     1      -5.187  -9.128  10.466  0.00  0.00    +0.045 A 
ENDBRANCH  26  27
ENDBRANCH   7  26
ENDBRANCH  18  20
ENDBRANCH  16  18
ENDBRANCH  12  16
TORSDOF 7
ENDMDL
MODEL 7
REMARK VINA RESULT:      -6.4     27.815     30.016
REMARK  Name = 45361017
REMARK  8 active torsions:
REMARK  status: ('A' for Active; 'I' for Inactive)
REMARK    1  A    between atoms: N_4  and  C_15
REMARK    2  A    between atoms: N_5  and  C_17
REMARK    3  A    between atoms: N_7  and  C_26
REMARK    4  A    between atoms: C_12  and  C_16
REMARK    5  A    between atoms: C_15  and  C_19
REMARK    6  A    between atoms: C_16  and  C_18
REMARK    7  A    between atoms: C_18  and  C_20
REMARK    8  A    between atoms: C_26  and  C_27
REMARK                            x       y       z     vdW  Elec       q    Type
REMARK                         _______ _______ _______ _____ _____    ______ ____
ROOT
ATOM      2  O   UNL     1      -8.665 -10.793  15.454  0.00  0.00    -0.274 OA
ATOM      4  N   UNL     1      -9.122 -10.472  18.096  0.00  0.00    -0.286 NA
ATOM      5  N   UNL     1      -5.622 -11.480  17.747  0.00  0.00    -0.296 NA
ATOM      6  N   UNL     1      -6.552  -9.918  15.506  0.00  0.00    -0.312 N 
ATOM      8  C   UNL     1      -6.746 -10.824  18.450  0.00  0.00    +0.084 C 
ATOM      9  C   UNL     1      -7.798 -10.048  17.603  0.00  0.00    +0.161 C 
ATOM     10  C   UNL     1      -7.632 -11.794  19.252  0.00  0.00    +0.036 C 
ATOM     11  C   UNL     1      -8.923 -11.025  19.432  0.00  0.00    +0.087 C 
ATOM     12  C   UNL     1      -4.707 -10.541  17.037  0.00  0.00    +0.074 C 
ATOM     13  C   UNL     1      -7.737 -10.309  16.100  0.00  0.00    +0.232 C 
ATOM     14  C   UNL     1      -5.412  -9.420  16.250  0.00  0.00    +0.123 C 
ATOM     17  C   UNL     1      -4.857 -12.338  18.668  0.00  0.00    +0.105 C 
ATOM     31  H   UNL     1      -6.455 -10.042  14.504  0.00  0.00    +0.149 HD
ENDROOT
BRANCH   4  15
ATOM     15  C   UNL     1     -10.111  -9.403  18.087  0.00  0.00    +0.120 C 
BRANCH  15  19
ATOM     19  C   UNL     1     -11.517  -9.939  18.071  0.00  0.00    -0.033 A 
ATOM     21  C   UNL     1     -12.393  -9.634  19.113  0.00  0.00    +0.005 A 
ATOM     22  C   UNL     1     -11.946 -10.741  17.012  0.00  0.00    +0.005 A 
ATOM     23  C   UNL     1     -13.696 -10.131  19.097  0.00  0.00    +0.000 A 
ATOM     24  C   UNL     1     -13.249 -11.238  16.997  0.00  0.00    +0.000 A 
ATOM     25  C   UNL     1     -14.125 -10.933  18.039  0.00  0.00    +0.000 A 
ENDBRANCH  15  19
ENDBRANCH   4  15
BRANCH  12  16
ATOM     16  C   UNL     1      -3.809 -11.310  16.045  0.00  0.00    +0.029 C 
BRANCH  16  18
ATOM     18  C   UNL     1      -2.380 -10.804  16.111  0.00  0.00    +0.097 C 
BRANCH  18  20
ATOM      3  O   UNL     1      -1.076  -9.498  14.543  0.00  0.00    -0.276 OA
ATOM      7  N   UNL     1      -2.364 -11.259  13.750  0.00  0.00    -0.311 N 
ATOM     20  C   UNL     1      -1.855 -10.428  14.737  0.00  0.00    +0.213 C 
ATOM     32  H   UNL     1      -2.991 -12.016  14.006  0.00  0.00    +0.149 HD
BRANCH   7  26
ATOM     26  C   UNL     1      -2.015 -11.105  12.358  0.00  0.00    +0.146 C 
BRANCH  26  27
ATOM      1  S   UNL     1      -4.641 -10.206  12.176  0.00  0.00    -0.100 S 
ATOM     27  C   UNL     1      -3.023 -10.265  11.618  0.00  0.00    +0.007 A 
ATOM     28  C   UNL     1      -2.835  -9.492  10.494  0.00  0.00    +0.013 A 
ATOM     29  C   UNL     1      -4.035  -8.841  10.085  0.00  0.00    +0.008 A 
ATOM     30  C   UNL     1      -5.095  -9.142  10.913  0.00  0.00    +0.045 A 
ENDBRANCH  26  27
ENDBRANCH   7  26
ENDBRANCH  18  20
ENDBRANCH  16  18
ENDBRANCH  12  16
TORSDOF 7
ENDMDL
MODEL 8
REMARK VINA RESULT:      -6.3     27.647     30.571
REMARK  Name = 45361017
REMARK  8 active torsions:
REMARK  status: ('A' for Active; 'I' for Inactive)
REMARK    1  A    between atoms: N_4  and  C_15
REMARK    2  A    between atoms: N_5  and  C_17
REMARK    3  A    between atoms: N_7  and  C_26
REMARK    4  A    between atoms: C_12  and  C_16
REMARK    5  A    between atoms: C_15  and  C_19
REMARK    6  A    between atoms: C_16  and  C_18
REMARK    7  A    between atoms: C_18  and  C_20
REMARK    8  A    between atoms: C_26  and  C_27
REMARK                            x       y       z     vdW  Elec       q    Type
REMARK                         _______ _______ _______ _____ _____    ______ ____
ROOT
ATOM      2  O   UNL     1      -1.132 -11.078  15.368  0.00  0.00    -0.274 OA
ATOM      4  N   UNL     1      -2.446 -12.307  13.355  0.00  0.00    -0.286 NA
ATOM      5  N   UNL     1      -4.486 -12.736  16.362  0.00  0.00    -0.296 NA
ATOM      6  N   UNL     1      -3.017 -10.252  16.366  0.00  0.00    -0.312 N 
ATOM      8  C   UNL     1      -4.288 -12.651  14.899  0.00  0.00    +0.084 C 
ATOM      9  C   UNL     1      -3.279 -11.601  14.347  0.00  0.00    +0.161 C 
ATOM     10  C   UNL     1      -3.775 -13.955  14.261  0.00  0.00    +0.036 C 
ATOM     11  C   UNL     1      -3.186 -13.496  12.945  0.00  0.00    +0.087 C 
ATOM     12  C   UNL     1      -5.063 -11.508  16.978  0.00  0.00    +0.074 C 
ATOM     13  C   UNL     1      -2.358 -10.979  15.394  0.00  0.00    +0.232 C 
ATOM     14  C   UNL     1      -4.462 -10.183  16.470  0.00  0.00    +0.123 C 
ATOM     17  C   UNL     1      -5.300 -13.912  16.714  0.00  0.00    +0.105 C 
ATOM     31  H   UNL     1      -2.462  -9.793  17.080  0.00  0.00    +0.149 HD
ENDROOT
BRANCH   4  15
ATOM     15  C   UNL     1      -2.070 -11.476  12.219  0.00  0.00    +0.120 C 
BRANCH  15  19
ATOM     19  C   UNL     1      -3.254 -11.146  11.351  0.00  0.00    -0.033 A 
ATOM     21  C   UNL     1      -3.960  -9.960  11.555  0.00  0.00    +0.005 A 
ATOM     22  C   UNL     1      -3.644 -12.025  10.339  0.00  0.00    +0.005 A 
ATOM     23  C   UNL     1      -5.057  -9.654  10.749  0.00  0.00    +0.000 A 
ATOM     24  C   UNL     1      -4.741 -11.719   9.534  0.00  0.00    +0.000 A 
ATOM     25  C   UNL     1      -5.448 -10.533   9.738  0.00  0.00    +0.000 A 
ENDBRANCH  15  19
ENDBRANCH   4  15
BRANCH  12  16
ATOM     16  C   UNL     1      -4.888 -11.539  18.511  0.00  0.00    +0.029 C 
BRANCH  16  18
ATOM     18  C   UNL     1      -5.852 -10.578  19.182  0.00  0.00    +0.097 C 
BRANCH  18  20
ATOM      3  O   UNL     1      -7.609 -12.225  19.440  0.00  0.00    -0.276 OA
ATOM      7  N   UNL     1      -8.151 -10.106  18.658  0.00  0.00    -0.311 N 
ATOM     20  C   UNL     1      -7.282 -11.085  19.119  0.00  0.00    +0.213 C 
ATOM     32  H   UNL     1      -7.792  -9.184  18.431  0.00  0.00    +0.149 HD
BRANCH   7  26
ATOM     26  C   UNL     1      -9.567 -10.343  18.507  0.00  0.00    +0.146 C 
BRANCH  26  27
ATOM      1  S   UNL     1     -11.874  -9.421  17.256  0.00  0.00    -0.100 S 
ATOM     27  C   UNL     1     -10.242  -9.235  17.743  0.00  0.00    +0.007 A 
ATOM     28  C   UNL     1      -9.721  -8.023  17.350  0.00  0.00    +0.013 A 
ATOM     29  C   UNL     1     -10.673  -7.235  16.640  0.00  0.00    +0.008 A 
ATOM     30  C   UNL     1     -11.886  -7.876  16.518  0.00  0.00    +0.045 A 
ENDBRANCH  26  27
ENDBRANCH   7  26
ENDBRANCH  18  20
ENDBRANCH  16  18
ENDBRANCH  12  16
TORSDOF 7
ENDMDL
MODEL 9
REMARK VINA RESULT:      -6.2     28.383     30.703
REMARK  Name = 45361017
REMARK  8 active torsions:
REMARK  status: ('A' for Active; 'I' for Inactive)
REMARK    1  A    between atoms: N_4  and  C_15
REMARK    2  A    between atoms: N_5  and  C_17
REMARK    3  A    between atoms: N_7  and  C_26
REMARK    4  A    between atoms: C_12  and  C_16
REMARK    5  A    between atoms: C_15  and  C_19
REMARK    6  A    between atoms: C_16  and  C_18
REMARK    7  A    between atoms: C_18  and  C_20
REMARK    8  A    between atoms: C_26  and  C_27
REMARK                            x       y       z     vdW  Elec       q    Type
REMARK                         _______ _______ _______ _____ _____    ______ ____
ROOT
ATOM      2  O   UNL     1      -6.167 -10.100  13.865  0.00  0.00    -0.274 OA
ATOM      4  N   UNL     1      -4.078 -11.504  14.841  0.00  0.00    -0.286 NA
ATOM      5  N   UNL     1      -4.228 -12.198  11.252  0.00  0.00    -0.296 NA
ATOM      6  N   UNL     1      -5.133  -9.537  11.904  0.00  0.00    -0.312 N 
ATOM      8  C   UNL     1      -3.528 -12.092  12.550  0.00  0.00    +0.084 C 
ATOM      9  C   UNL     1      -3.903 -10.915  13.500  0.00  0.00    +0.161 C 
ATOM     10  C   UNL     1      -3.719 -13.315  13.465  0.00  0.00    +0.036 C 
ATOM     11  C   UNL     1      -3.377 -12.784  14.840  0.00  0.00    +0.087 C 
ATOM     12  C   UNL     1      -3.982 -11.058  10.324  0.00  0.00    +0.074 C 
ATOM     13  C   UNL     1      -5.183 -10.169  13.130  0.00  0.00    +0.232 C 
ATOM     14  C   UNL     1      -4.022  -9.666  10.982  0.00  0.00    +0.123 C 
ATOM     17  C   UNL     1      -3.910 -13.474  10.588  0.00  0.00    +0.105 C 
ATOM     31  H   UNL     1      -5.944  -9.003  11.607  0.00  0.00    +0.149 HD
ENDROOT
BRANCH   4  15
ATOM     15  C   UNL     1      -3.626 -10.633  15.918  0.00  0.00    +0.120 C 
BRANCH  15  19
ATOM     19  C   UNL     1      -4.422 -10.841  17.179  0.00  0.00    -0.033 A 
ATOM     21  C   UNL     1      -5.702 -10.299  17.293  0.00  0.00    +0.005 A 
ATOM     22  C   UNL     1      -3.879 -11.576  18.233  0.00  0.00    +0.005 A 
ATOM     23  C   UNL     1      -6.439 -10.492  18.461  0.00  0.00    +0.000 A 
ATOM     24  C   UNL     1      -4.616 -11.769  19.401  0.00  0.00    +0.000 A 
ATOM     25  C   UNL     1      -5.897 -11.227  19.516  0.00  0.00    +0.000 A 
ENDBRANCH  15  19
ENDBRANCH   4  15
BRANCH  12  16
ATOM     16  C   UNL     1      -5.017 -11.060   9.179  0.00  0.00    +0.029 C 
BRANCH  16  18
ATOM     18  C   UNL     1      -4.716  -9.958   8.181  0.00  0.00    +0.097 C 
BRANCH  18  20
ATOM      3  O   UNL     1      -5.936 -10.835   6.281  0.00  0.00    -0.276 OA
ATOM      7  N   UNL     1      -6.441  -8.709   7.065  0.00  0.00    -0.311 N 
ATOM     20  C   UNL     1      -5.750  -9.911   7.070  0.00  0.00    +0.213 C 
ATOM     32  H   UNL     1      -6.230  -8.007   7.768  0.00  0.00    +0.149 HD
BRANCH   7  26
ATOM     26  C   UNL     1      -7.477  -8.420   6.102  0.00  0.00    +0.146 C 
BRANCH  26  27
ATOM      1  S   UNL     1      -8.163  -6.500   7.995  0.00  0.00    -0.100 S 
ATOM     27  C   UNL     1      -8.545  -7.527   6.678  0.00  0.00    +0.007 A 
ATOM     28  C   UNL     1      -9.859  -7.401   6.288  0.00  0.00    +0.013 A 
ATOM     29  C   UNL     1     -10.564  -6.449   7.080  0.00  0.00    +0.008 A 
ATOM     30  C   UNL     1      -9.760  -5.883   8.045  0.00  0.00    +0.045 A 
ENDBRANCH  26  27
ENDBRANCH   7  26
ENDBRANCH  18  20
ENDBRANCH  16  18
ENDBRANCH  12  16
TORSDOF 7
ENDMDL
MODEL 10
REMARK VINA RESULT:      -6.2     15.932     18.651
REMARK  Name = 45361017
REMARK  8 active torsions:
REMARK  status: ('A' for Active; 'I' for Inactive)
REMARK    1  A    between atoms: N_4  and  C_15
REMARK    2  A    between atoms: N_5  and  C_17
REMARK    3  A    between atoms: N_7  and  C_26
REMARK    4  A    between atoms: C_12  and  C_16
REMARK    5  A    between atoms: C_15  and  C_19
REMARK    6  A    between atoms: C_16  and  C_18
REMARK    7  A    between atoms: C_18  and  C_20
REMARK    8  A    between atoms: C_26  and  C_27
REMARK                            x       y       z     vdW  Elec       q    Type
REMARK                         _______ _______ _______ _____ _____    ______ ____
ROOT
ATOM      2  O   UNL     1      16.041   7.252   4.120  0.00  0.00    -0.274 OA
ATOM      4  N   UNL     1      17.066   9.274   5.587  0.00  0.00    -0.286 NA
ATOM      5  N   UNL     1      13.433   9.409   6.000  0.00  0.00    -0.296 NA
ATOM      6  N   UNL     1      14.405   6.718   5.627  0.00  0.00    -0.312 N 
ATOM      8  C   UNL     1      14.824   9.667   6.431  0.00  0.00    +0.084 C 
ATOM      9  C   UNL     1      15.900   8.575   6.159  0.00  0.00    +0.161 C 
ATOM     10  C   UNL     1      15.458  10.911   5.781  0.00  0.00    +0.036 C 
ATOM     11  C   UNL     1      16.944  10.681   5.956  0.00  0.00    +0.087 C 
ATOM     12  C   UNL     1      12.779   8.258   6.685  0.00  0.00    +0.074 C 
ATOM     13  C   UNL     1      15.473   7.476   5.188  0.00  0.00    +0.232 C 
ATOM     14  C   UNL     1      13.664   7.007   6.840  0.00  0.00    +0.123 C 
ATOM     17  C   UNL     1      12.607  10.620   6.139  0.00  0.00    +0.105 C 
ATOM     31  H   UNL     1      14.086   5.955   5.039  0.00  0.00    +0.149 HD
ENDROOT
BRANCH   4  15
ATOM     15  C   UNL     1      18.341   8.707   6.004  0.00  0.00    +0.120 C 
BRANCH  15  19
ATOM     19  C   UNL     1      19.181   8.288   4.828  0.00  0.00    -0.033 A 
ATOM     21  C   UNL     1      18.884   8.768   3.552  0.00  0.00    +0.005 A 
ATOM     22  C   UNL     1      20.258   7.420   5.013  0.00  0.00    +0.005 A 
ATOM     23  C   UNL     1      19.663   8.380   2.462  0.00  0.00    +0.000 A 
ATOM     24  C   UNL     1      21.036   7.032   3.922  0.00  0.00    +0.000 A 
ATOM     25  C   UNL     1      20.739   7.512   2.647  0.00  0.00    +0.000 A 
ENDBRANCH  15  19
ENDBRANCH   4  15
BRANCH  12  16
ATOM     16  C   UNL     1      11.503   7.833   5.928  0.00  0.00    +0.029 C 
BRANCH  16  18
ATOM     18  C   UNL     1      10.979   6.511   6.459  0.00  0.00    +0.097 C 
BRANCH  18  20
ATOM      3  O   UNL     1       9.194   5.362   5.294  0.00  0.00    -0.276 OA
ATOM      7  N   UNL     1      11.349   5.268   4.434  0.00  0.00    -0.311 N 
ATOM     20  C   UNL     1      10.385   5.659   5.352  0.00  0.00    +0.213 C 
ATOM     32  H   UNL     1      12.309   5.576   4.555  0.00  0.00    +0.149 HD
BRANCH   7  26
ATOM     26  C   UNL     1      11.034   4.450   3.288  0.00  0.00    +0.146 C 
BRANCH  26  27
ATOM      1  S   UNL     1      13.093   5.774   1.968  0.00  0.00    -0.100 S 
ATOM     27  C   UNL     1      12.190   4.364   2.326  0.00  0.00    +0.007 A 
ATOM     28  C   UNL     1      12.662   3.261   1.649  0.00  0.00    +0.013 A 
ATOM     29  C   UNL     1      13.780   3.578   0.824  0.00  0.00    +0.008 A 
ATOM     30  C   UNL     1      14.120   4.911   0.903  0.00  0.00    +0.045 A 
ENDBRANCH  26  27
ENDBRANCH   7  26
ENDBRANCH  18  20
ENDBRANCH  16  18
ENDBRANCH  12  16
TORSDOF 7
ENDMDL
