MODEL 1
REMARK VINA RESULT:      -7.0      0.000      0.000
REMARK  Name = 44716297
REMARK  6 active torsions:
REMARK  status: ('A' for Active; 'I' for Inactive)
REMARK    1  A    between atoms: S_2  and  C_22
REMARK    2  A    between atoms: S_2  and  C_25
REMARK    3  A    between atoms: N_5  and  C_17
REMARK    4  A    between atoms: C_11  and  C_17
REMARK    5  A    between atoms: C_12  and  C_18
REMARK    6  A    between atoms: C_21  and  C_22
REMARK                            x       y       z     vdW  Elec       q    Type
REMARK                         _______ _______ _______ _____ _____    ______ ____
ROOT
ATOM      4  N   UNL     1      -6.869 -11.645  17.399  0.00  0.00    -0.297 NA
ATOM     10  C   UNL     1      -4.428 -11.804  18.288  0.00  0.00    +0.005 C 
ATOM     11  C   UNL     1      -6.828 -11.315  18.850  0.00  0.00    +0.078 C 
ATOM     12  C   UNL     1      -4.589 -10.634  17.297  0.00  0.00    +0.092 C 
ATOM     13  C   UNL     1      -5.421 -11.563  19.442  0.00  0.00    +0.025 C 
ATOM     14  C   UNL     1      -4.860 -13.114  17.608  0.00  0.00    +0.020 C 
ATOM     15  C   UNL     1      -5.998 -10.681  16.677  0.00  0.00    +0.097 C 
ATOM     16  C   UNL     1      -6.325 -13.000  17.159  0.00  0.00    +0.085 C 
ENDROOT
BRANCH  12  18
ATOM      1  S   UNL     1      -4.385 -10.341  12.337  0.00  0.00    -0.061 S 
ATOM      3  O   UNL     1      -2.343 -10.776  16.539  0.00  0.00    -0.275 OA
ATOM      6  N   UNL     1      -4.081 -10.533  14.970  0.00  0.00    -0.264 N 
ATOM      9  N   UNL     1      -2.104 -10.603  13.524  0.00  0.00    -0.233 NA
ATOM     18  C   UNL     1      -3.526 -10.659  16.238  0.00  0.00    +0.223 C 
ATOM     20  C   UNL     1      -3.398 -10.510  13.731  0.00  0.00    +0.164 A 
ATOM     23  C   UNL     1      -2.975 -10.394  11.362  0.00  0.00    +0.068 A 
ATOM     24  C   UNL     1      -1.862 -10.536  12.166  0.00  0.00    +0.120 A 
ATOM     31  H   UNL     1      -5.088 -10.432  14.883  0.00  0.00    +0.157 HD
ENDBRANCH  12  18
BRANCH  11  17
ATOM     17  C   UNL     1      -7.913 -12.051  19.640  0.00  0.00    +0.164 C 
BRANCH  17   5
ATOM      5  N   UNL     1      -9.262 -11.419  19.444  0.00  0.00    -0.250 N 
ATOM      7  N   UNL     1      -9.719 -10.495  20.303  0.00  0.00    -0.065 NA
ATOM      8  N   UNL     1     -10.923 -10.125  19.884  0.00  0.00    -0.134 NA
ATOM     19  C   UNL     1     -10.160 -11.666  18.450  0.00  0.00    +0.134 A 
ATOM     21  C   UNL     1     -11.208 -10.833  18.749  0.00  0.00    +0.093 A 
BRANCH  21  22
ATOM     22  C   UNL     1     -12.480 -10.652  18.037  0.00  0.00    +0.133 C 
BRANCH  22   2
ATOM      2  S   UNL     1     -12.272 -10.472  16.229  0.00  0.00    -0.119 S 
BRANCH   2  25
ATOM     25  C   UNL     1     -11.882  -8.732  16.101  0.00  0.00    +0.008 A 
ATOM     26  C   UNL     1     -10.551  -8.316  16.071  0.00  0.00    +0.015 A 
ATOM     27  C   UNL     1     -12.909  -7.791  16.032  0.00  0.00    +0.015 A 
ATOM     28  C   UNL     1     -10.247  -6.959  15.972  0.00  0.00    +0.001 A 
ATOM     29  C   UNL     1     -12.605  -6.433  15.933  0.00  0.00    +0.001 A 
ATOM     30  C   UNL     1     -11.275  -6.017  15.903  0.00  0.00    +0.000 A 
ENDBRANCH   2  25
ENDBRANCH  22   2
ENDBRANCH  21  22
ENDBRANCH  17   5
ENDBRANCH  11  17
TORSDOF 6
ENDMDL
MODEL 2
REMARK VINA RESULT:      -6.8      5.710      8.114
REMARK  Name = 44716297
REMARK  6 active torsions:
REMARK  status: ('A' for Active; 'I' for Inactive)
REMARK    1  A    between atoms: S_2  and  C_22
REMARK    2  A    between atoms: S_2  and  C_25
REMARK    3  A    between atoms: N_5  and  C_17
REMARK    4  A    between atoms: C_11  and  C_17
REMARK    5  A    between atoms: C_12  and  C_18
REMARK    6  A    between atoms: C_21  and  C_22
REMARK                            x       y       z     vdW  Elec       q    Type
REMARK                         _______ _______ _______ _____ _____    ______ ____
ROOT
ATOM      4  N   UNL     1     -11.494  -7.945  14.607  0.00  0.00    -0.297 NA
ATOM     10  C   UNL     1     -10.812  -7.334  17.043  0.00  0.00    +0.005 C 
ATOM     11  C   UNL     1     -11.566  -6.471  14.807  0.00  0.00    +0.078 C 
ATOM     12  C   UNL     1      -9.612  -7.886  16.247  0.00  0.00    +0.092 C 
ATOM     13  C   UNL     1     -11.329  -6.094  16.288  0.00  0.00    +0.025 C 
ATOM     14  C   UNL     1     -11.955  -8.363  17.026  0.00  0.00    +0.020 C 
ATOM     15  C   UNL     1     -10.099  -8.384  14.872  0.00  0.00    +0.097 C 
ATOM     16  C   UNL     1     -12.370  -8.644  15.574  0.00  0.00    +0.085 C 
ENDROOT
BRANCH  12  18
ATOM      1  S   UNL     1      -5.110  -9.995  16.218  0.00  0.00    -0.061 S 
ATOM      3  O   UNL     1      -9.472  -9.588  17.896  0.00  0.00    -0.275 OA
ATOM      6  N   UNL     1      -7.603  -9.133  16.540  0.00  0.00    -0.264 N 
ATOM      9  N   UNL     1      -6.761 -10.939  17.968  0.00  0.00    -0.233 NA
ATOM     18  C   UNL     1      -8.904  -8.973  17.001  0.00  0.00    +0.223 C 
ATOM     20  C   UNL     1      -6.633 -10.052  17.007  0.00  0.00    +0.164 A 
ATOM     23  C   UNL     1      -4.561 -11.259  17.238  0.00  0.00    +0.068 A 
ATOM     24  C   UNL     1      -5.573 -11.630  18.100  0.00  0.00    +0.120 A 
ATOM     31  H   UNL     1      -7.269  -8.533  15.791  0.00  0.00    +0.157 HD
ENDBRANCH  12  18
BRANCH  11  17
ATOM     17  C   UNL     1     -12.873  -5.880  14.274  0.00  0.00    +0.164 C 
BRANCH  17   5
ATOM      5  N   UNL     1     -12.632  -4.993  13.085  0.00  0.00    -0.250 N 
ATOM      7  N   UNL     1     -12.704  -3.657  13.200  0.00  0.00    -0.065 NA
ATOM      8  N   UNL     1     -12.453  -3.144  12.001  0.00  0.00    -0.134 NA
ATOM     19  C   UNL     1     -12.335  -5.371  11.812  0.00  0.00    +0.134 A 
ATOM     21  C   UNL     1     -12.224  -4.180  11.139  0.00  0.00    +0.093 A 
BRANCH  21  22
ATOM     22  C   UNL     1     -11.918  -3.941   9.723  0.00  0.00    +0.133 C 
BRANCH  22   2
ATOM      2  S   UNL     1     -12.454  -5.307   8.632  0.00  0.00    -0.119 S 
BRANCH   2  25
ATOM     25  C   UNL     1     -10.880  -5.893   8.019  0.00  0.00    +0.008 A 
ATOM     26  C   UNL     1      -9.700  -5.529   8.667  0.00  0.00    +0.015 A 
ATOM     27  C   UNL     1     -10.832  -6.714   6.893  0.00  0.00    +0.015 A 
ATOM     28  C   UNL     1      -8.472  -5.985   8.189  0.00  0.00    +0.001 A 
ATOM     29  C   UNL     1      -9.604  -7.172   6.415  0.00  0.00    +0.001 A 
ATOM     30  C   UNL     1      -8.425  -6.807   7.063  0.00  0.00    +0.000 A 
ENDBRANCH   2  25
ENDBRANCH  22   2
ENDBRANCH  21  22
ENDBRANCH  17   5
ENDBRANCH  11  17
TORSDOF 6
ENDMDL
MODEL 3
REMARK VINA RESULT:      -6.7     28.832     31.943
REMARK  Name = 44716297
REMARK  6 active torsions:
REMARK  status: ('A' for Active; 'I' for Inactive)
REMARK    1  A    between atoms: S_2  and  C_22
REMARK    2  A    between atoms: S_2  and  C_25
REMARK    3  A    between atoms: N_5  and  C_17
REMARK    4  A    between atoms: C_11  and  C_17
REMARK    5  A    between atoms: C_12  and  C_18
REMARK    6  A    between atoms: C_21  and  C_22
REMARK                            x       y       z     vdW  Elec       q    Type
REMARK                         _______ _______ _______ _____ _____    ______ ____
ROOT
ATOM      4  N   UNL     1      21.627   4.666  22.739  0.00  0.00    -0.297 NA
ATOM     10  C   UNL     1      23.351   4.689  20.789  0.00  0.00    +0.005 C 
ATOM     11  C   UNL     1      21.049   5.348  21.549  0.00  0.00    +0.078 C 
ATOM     12  C   UNL     1      22.868   3.257  21.094  0.00  0.00    +0.092 C 
ATOM     13  C   UNL     1      22.106   5.524  20.434  0.00  0.00    +0.025 C 
ATOM     14  C   UNL     1      23.945   5.311  22.065  0.00  0.00    +0.020 C 
ATOM     15  C   UNL     1      21.981   3.275  22.353  0.00  0.00    +0.097 C 
ATOM     16  C   UNL     1      22.875   5.339  23.167  0.00  0.00    +0.085 C 
ENDROOT
BRANCH  12  18
ATOM      1  S   UNL     1      24.573   0.150  24.582  0.00  0.00    -0.061 S 
ATOM      3  O   UNL     1      24.839   2.160  20.352  0.00  0.00    -0.275 OA
ATOM      6  N   UNL     1      23.987   1.685  22.493  0.00  0.00    -0.264 N 
ATOM      9  N   UNL     1      25.961   0.235  22.404  0.00  0.00    -0.233 NA
ATOM     18  C   UNL     1      24.020   2.308  21.252  0.00  0.00    +0.223 C 
ATOM     20  C   UNL     1      24.899   0.729  23.000  0.00  0.00    +0.164 A 
ATOM     23  C   UNL     1      25.963  -0.849  24.477  0.00  0.00    +0.068 A 
ATOM     24  C   UNL     1      26.570  -0.669  23.252  0.00  0.00    +0.120 A 
ATOM     31  H   UNL     1      23.230   1.906  23.135  0.00  0.00    +0.157 HD
ENDBRANCH  12  18
BRANCH  11  17
ATOM     17  C   UNL     1      20.382   6.676  21.912  0.00  0.00    +0.164 C 
BRANCH  17   5
ATOM      5  N   UNL     1      19.086   6.863  21.174  0.00  0.00    -0.250 N 
ATOM      7  N   UNL     1      18.737   6.032  20.179  0.00  0.00    -0.065 NA
ATOM      8  N   UNL     1      17.561   6.440  19.717  0.00  0.00    -0.134 NA
ATOM     19  C   UNL     1      18.145   7.825  21.377  0.00  0.00    +0.134 A 
ATOM     21  C   UNL     1      17.183   7.538  20.441  0.00  0.00    +0.093 A 
BRANCH  21  22
ATOM     22  C   UNL     1      15.918   8.232  20.170  0.00  0.00    +0.133 C 
BRANCH  22   2
ATOM      2  S   UNL     1      14.834   7.323  19.011  0.00  0.00    -0.119 S 
BRANCH   2  25
ATOM     25  C   UNL     1      13.240   7.543  19.790  0.00  0.00    +0.008 A 
ATOM     26  C   UNL     1      12.904   6.792  20.915  0.00  0.00    +0.015 A 
ATOM     27  C   UNL     1      12.333   8.466  19.270  0.00  0.00    +0.015 A 
ATOM     28  C   UNL     1      11.660   6.963  21.522  0.00  0.00    +0.001 A 
ATOM     29  C   UNL     1      11.088   8.638  19.877  0.00  0.00    +0.001 A 
ATOM     30  C   UNL     1      10.752   7.887  21.002  0.00  0.00    +0.000 A 
ENDBRANCH   2  25
ENDBRANCH  22   2
ENDBRANCH  21  22
ENDBRANCH  17   5
ENDBRANCH  11  17
TORSDOF 6
ENDMDL
MODEL 4
REMARK VINA RESULT:      -6.5      2.805      3.677
REMARK  Name = 44716297
REMARK  6 active torsions:
REMARK  status: ('A' for Active; 'I' for Inactive)
REMARK    1  A    between atoms: S_2  and  C_22
REMARK    2  A    between atoms: S_2  and  C_25
REMARK    3  A    between atoms: N_5  and  C_17
REMARK    4  A    between atoms: C_11  and  C_17
REMARK    5  A    between atoms: C_12  and  C_18
REMARK    6  A    between atoms: C_21  and  C_22
REMARK                            x       y       z     vdW  Elec       q    Type
REMARK                         _______ _______ _______ _____ _____    ______ ____
ROOT
ATOM      4  N   UNL     1      -7.200 -11.357  17.292  0.00  0.00    -0.297 NA
ATOM     10  C   UNL     1      -4.823 -11.217  18.344  0.00  0.00    +0.005 C 
ATOM     11  C   UNL     1      -7.268 -10.713  18.632  0.00  0.00    +0.078 C 
ATOM     12  C   UNL     1      -4.944 -10.303  17.108  0.00  0.00    +0.092 C 
ATOM     13  C   UNL     1      -5.899 -10.768  19.351  0.00  0.00    +0.025 C 
ATOM     14  C   UNL     1      -5.173 -12.662  17.947  0.00  0.00    +0.020 C 
ATOM     15  C   UNL     1      -6.306 -10.542  16.428  0.00  0.00    +0.097 C 
ATOM     16  C   UNL     1      -6.606 -12.709  17.394  0.00  0.00    +0.085 C 
ENDROOT
BRANCH  12  18
ATOM      1  S   UNL     1      -4.315 -10.395  12.177  0.00  0.00    -0.061 S 
ATOM      3  O   UNL     1      -2.676 -10.740  16.559  0.00  0.00    -0.275 OA
ATOM      6  N   UNL     1      -4.245 -10.426  14.833  0.00  0.00    -0.264 N 
ATOM      9  N   UNL     1      -2.180 -10.813  13.572  0.00  0.00    -0.233 NA
ATOM     18  C   UNL     1      -3.811 -10.519  16.149  0.00  0.00    +0.223 C 
ATOM     20  C   UNL     1      -3.468 -10.567  13.659  0.00  0.00    +0.164 A 
ATOM     23  C   UNL     1      -2.847 -10.670  11.333  0.00  0.00    +0.068 A 
ATOM     24  C   UNL     1      -1.825 -10.872  12.238  0.00  0.00    +0.120 A 
ATOM     31  H   UNL     1      -5.225 -10.225  14.652  0.00  0.00    +0.157 HD
ENDBRANCH  12  18
BRANCH  11  17
ATOM     17  C   UNL     1      -8.386 -11.299  19.498  0.00  0.00    +0.164 C 
BRANCH  17   5
ATOM      5  N   UNL     1      -9.705 -10.636  19.217  0.00  0.00    -0.250 N 
ATOM      7  N   UNL     1      -9.807  -9.679  18.281  0.00  0.00    -0.065 NA
ATOM      8  N   UNL     1     -11.074  -9.282  18.259  0.00  0.00    -0.134 NA
ATOM     19  C   UNL     1     -10.902 -10.878  19.819  0.00  0.00    +0.134 A 
ATOM     21  C   UNL     1     -11.758 -10.007  19.196  0.00  0.00    +0.093 A 
BRANCH  21  22
ATOM     22  C   UNL     1     -13.195  -9.799  19.420  0.00  0.00    +0.133 C 
BRANCH  22   2
ATOM      2  S   UNL     1     -13.834 -10.708  20.872  0.00  0.00    -0.119 S 
BRANCH   2  25
ATOM     25  C   UNL     1     -15.360  -9.831  21.181  0.00  0.00    +0.008 A 
ATOM     26  C   UNL     1     -15.403  -8.443  21.061  0.00  0.00    +0.015 A 
ATOM     27  C   UNL     1     -16.508 -10.536  21.541  0.00  0.00    +0.015 A 
ATOM     28  C   UNL     1     -16.594  -7.758  21.302  0.00  0.00    +0.001 A 
ATOM     29  C   UNL     1     -17.700  -9.852  21.782  0.00  0.00    +0.001 A 
ATOM     30  C   UNL     1     -17.743  -8.464  21.663  0.00  0.00    +0.000 A 
ENDBRANCH   2  25
ENDBRANCH  22   2
ENDBRANCH  21  22
ENDBRANCH  17   5
ENDBRANCH  11  17
TORSDOF 6
ENDMDL
MODEL 5
REMARK VINA RESULT:      -6.4      5.333      8.176
REMARK  Name = 44716297
REMARK  6 active torsions:
REMARK  status: ('A' for Active; 'I' for Inactive)
REMARK    1  A    between atoms: S_2  and  C_22
REMARK    2  A    between atoms: S_2  and  C_25
REMARK    3  A    between atoms: N_5  and  C_17
REMARK    4  A    between atoms: C_11  and  C_17
REMARK    5  A    between atoms: C_12  and  C_18
REMARK    6  A    between atoms: C_21  and  C_22
REMARK                            x       y       z     vdW  Elec       q    Type
REMARK                         _______ _______ _______ _____ _____    ______ ____
ROOT
ATOM      4  N   UNL     1      -6.453  -8.784  10.061  0.00  0.00    -0.297 NA
ATOM     10  C   UNL     1      -4.508 -10.470   9.678  0.00  0.00    +0.005 C 
ATOM     11  C   UNL     1      -6.708  -9.594   8.839  0.00  0.00    +0.078 C 
ATOM     12  C   UNL     1      -5.313 -10.822  10.945  0.00  0.00    +0.092 C 
ATOM     13  C   UNL     1      -5.492 -10.485   8.493  0.00  0.00    +0.025 C 
ATOM     14  C   UNL     1      -3.982  -9.028   9.790  0.00  0.00    +0.020 C 
ATOM     15  C   UNL     1      -6.344  -9.710  11.219  0.00  0.00    +0.097 C 
ATOM     16  C   UNL     1      -5.166  -8.062   9.948  0.00  0.00    +0.085 C 
ENDROOT
BRANCH  12  18
ATOM      1  S   UNL     1      -5.499 -10.026  15.850  0.00  0.00    -0.061 S 
ATOM      3  O   UNL     1      -3.305 -11.538  11.989  0.00  0.00    -0.275 OA
ATOM      6  N   UNL     1      -5.021 -10.603  13.300  0.00  0.00    -0.264 N 
ATOM      9  N   UNL     1      -3.314 -11.103  14.986  0.00  0.00    -0.233 NA
ATOM     18  C   UNL     1      -4.415 -11.036  12.127  0.00  0.00    +0.223 C 
ATOM     20  C   UNL     1      -4.487 -10.646  14.610  0.00  0.00    +0.164 A 
ATOM     23  C   UNL     1      -4.278 -10.392  16.997  0.00  0.00    +0.068 A 
ATOM     24  C   UNL     1      -3.195 -10.957  16.355  0.00  0.00    +0.120 A 
ATOM     31  H   UNL     1      -5.959 -10.215  13.254  0.00  0.00    +0.157 HD
ENDBRANCH  12  18
BRANCH  11  17
ATOM     17  C   UNL     1      -7.131  -8.727   7.651  0.00  0.00    +0.164 C 
BRANCH  17   5
ATOM      5  N   UNL     1      -8.086  -7.645   8.070  0.00  0.00    -0.250 N 
ATOM      7  N   UNL     1      -7.742  -6.351   7.973  0.00  0.00    -0.065 NA
ATOM      8  N   UNL     1      -8.770  -5.635   8.415  0.00  0.00    -0.134 NA
ATOM     19  C   UNL     1      -9.341  -7.794   8.575  0.00  0.00    +0.134 A 
ATOM     21  C   UNL     1      -9.759  -6.504   8.787  0.00  0.00    +0.093 A 
BRANCH  21  22
ATOM     22  C   UNL     1     -11.037  -6.021   9.325  0.00  0.00    +0.133 C 
BRANCH  22   2
ATOM      2  S   UNL     1     -11.254  -4.214   9.148  0.00  0.00    -0.119 S 
BRANCH   2  25
ATOM     25  C   UNL     1     -12.469  -3.889  10.417  0.00  0.00    +0.008 A 
ATOM     26  C   UNL     1     -12.149  -4.093  11.759  0.00  0.00    +0.015 A 
ATOM     27  C   UNL     1     -13.739  -3.433  10.065  0.00  0.00    +0.015 A 
ATOM     28  C   UNL     1     -13.098  -3.840  12.750  0.00  0.00    +0.001 A 
ATOM     29  C   UNL     1     -14.689  -3.179  11.055  0.00  0.00    +0.001 A 
ATOM     30  C   UNL     1     -14.368  -3.382  12.396  0.00  0.00    +0.000 A 
ENDBRANCH   2  25
ENDBRANCH  22   2
ENDBRANCH  21  22
ENDBRANCH  17   5
ENDBRANCH  11  17
TORSDOF 6
ENDMDL
MODEL 6
REMARK VINA RESULT:      -6.4      3.756      6.459
REMARK  Name = 44716297
REMARK  6 active torsions:
REMARK  status: ('A' for Active; 'I' for Inactive)
REMARK    1  A    between atoms: S_2  and  C_22
REMARK    2  A    between atoms: S_2  and  C_25
REMARK    3  A    between atoms: N_5  and  C_17
REMARK    4  A    between atoms: C_11  and  C_17
REMARK    5  A    between atoms: C_12  and  C_18
REMARK    6  A    between atoms: C_21  and  C_22
REMARK                            x       y       z     vdW  Elec       q    Type
REMARK                         _______ _______ _______ _____ _____    ______ ____
ROOT
ATOM      4  N   UNL     1      -4.478 -10.982  12.995  0.00  0.00    -0.297 NA
ATOM     10  C   UNL     1      -2.993 -10.562  10.899  0.00  0.00    +0.005 C 
ATOM     11  C   UNL     1      -3.085 -10.659  13.408  0.00  0.00    +0.078 C 
ATOM     12  C   UNL     1      -4.057  -9.458  11.063  0.00  0.00    +0.092 C 
ATOM     13  C   UNL     1      -2.144 -10.570  12.185  0.00  0.00    +0.025 C 
ATOM     14  C   UNL     1      -3.686 -11.934  10.825  0.00  0.00    +0.020 C 
ATOM     15  C   UNL     1      -5.010  -9.835  12.213  0.00  0.00    +0.097 C 
ATOM     16  C   UNL     1      -4.496 -12.168  12.109  0.00  0.00    +0.085 C 
ENDROOT
BRANCH  12  18
ATOM      1  S   UNL     1      -8.795  -8.824   9.694  0.00  0.00    -0.061 S 
ATOM      3  O   UNL     1      -4.218  -9.145   8.715  0.00  0.00    -0.275 OA
ATOM      6  N   UNL     1      -6.175  -9.122  10.022  0.00  0.00    -0.264 N 
ATOM      9  N   UNL     1      -7.069  -8.743   7.772  0.00  0.00    -0.233 NA
ATOM     18  C   UNL     1      -4.810  -9.225   9.786  0.00  0.00    +0.223 C 
ATOM     20  C   UNL     1      -7.198  -8.899   9.070  0.00  0.00    +0.164 A 
ATOM     23  C   UNL     1      -9.378  -8.561   8.103  0.00  0.00    +0.068 A 
ATOM     24  C   UNL     1      -8.319  -8.549   7.218  0.00  0.00    +0.120 A 
ATOM     31  H   UNL     1      -6.516  -9.200  10.977  0.00  0.00    +0.157 HD
ENDBRANCH  12  18
BRANCH  11  17
ATOM     17  C   UNL     1      -2.555 -11.636  14.461  0.00  0.00    +0.164 C 
BRANCH  17   5
ATOM      5  N   UNL     1      -3.471 -11.716  15.650  0.00  0.00    -0.250 N 
ATOM      7  N   UNL     1      -4.187 -12.825  15.892  0.00  0.00    -0.065 NA
ATOM      8  N   UNL     1      -4.898 -12.605  16.992  0.00  0.00    -0.134 NA
ATOM     19  C   UNL     1      -3.703 -10.755  16.586  0.00  0.00    +0.134 A 
ATOM     21  C   UNL     1      -4.613 -11.341  17.430  0.00  0.00    +0.093 A 
BRANCH  21  22
ATOM     22  C   UNL     1      -5.246 -10.791  18.635  0.00  0.00    +0.133 C 
BRANCH  22   2
ATOM      2  S   UNL     1      -6.719 -11.735  19.168  0.00  0.00    -0.119 S 
BRANCH   2  25
ATOM     25  C   UNL     1      -8.034 -10.663  18.604  0.00  0.00    +0.008 A 
ATOM     26  C   UNL     1      -9.327 -10.826  19.100  0.00  0.00    +0.015 A 
ATOM     27  C   UNL     1      -7.766  -9.665  17.668  0.00  0.00    +0.015 A 
ATOM     28  C   UNL     1     -10.353  -9.990  18.660  0.00  0.00    +0.001 A 
ATOM     29  C   UNL     1      -8.792  -8.829  17.228  0.00  0.00    +0.001 A 
ATOM     30  C   UNL     1     -10.085  -8.991  17.724  0.00  0.00    +0.000 A 
ENDBRANCH   2  25
ENDBRANCH  22   2
ENDBRANCH  21  22
ENDBRANCH  17   5
ENDBRANCH  11  17
TORSDOF 6
ENDMDL
MODEL 7
REMARK VINA RESULT:      -6.3      2.552      8.207
REMARK  Name = 44716297
REMARK  6 active torsions:
REMARK  status: ('A' for Active; 'I' for Inactive)
REMARK    1  A    between atoms: S_2  and  C_22
REMARK    2  A    between atoms: S_2  and  C_25
REMARK    3  A    between atoms: N_5  and  C_17
REMARK    4  A    between atoms: C_11  and  C_17
REMARK    5  A    between atoms: C_12  and  C_18
REMARK    6  A    between atoms: C_21  and  C_22
REMARK                            x       y       z     vdW  Elec       q    Type
REMARK                         _______ _______ _______ _____ _____    ______ ____
ROOT
ATOM      4  N   UNL     1      -7.062 -11.622  18.673  0.00  0.00    -0.297 NA
ATOM     10  C   UNL     1      -7.557  -9.992  16.706  0.00  0.00    +0.005 C 
ATOM     11  C   UNL     1      -5.863 -10.789  18.382  0.00  0.00    +0.078 C 
ATOM     12  C   UNL     1      -8.387  -9.632  17.954  0.00  0.00    +0.092 C 
ATOM     13  C   UNL     1      -6.072  -9.931  17.112  0.00  0.00    +0.025 C 
ATOM     14  C   UNL     1      -7.840 -11.450  16.306  0.00  0.00    +0.020 C 
ATOM     15  C   UNL     1      -8.184 -10.715  19.031  0.00  0.00    +0.097 C 
ATOM     16  C   UNL     1      -7.471 -12.382  17.471  0.00  0.00    +0.085 C 
ENDROOT
BRANCH  12  18
ATOM      1  S   UNL     1     -11.247  -6.171  15.818  0.00  0.00    -0.061 S 
ATOM      3  O   UNL     1     -10.653 -10.339  17.889  0.00  0.00    -0.275 OA
ATOM      6  N   UNL     1     -10.069  -8.238  17.002  0.00  0.00    -0.264 N 
ATOM      9  N   UNL     1     -12.486  -8.301  16.600  0.00  0.00    -0.233 NA
ATOM     18  C   UNL     1      -9.840  -9.461  17.620  0.00  0.00    +0.223 C 
ATOM     20  C   UNL     1     -11.306  -7.727  16.540  0.00  0.00    +0.164 A 
ATOM     23  C   UNL     1     -12.940  -6.257  15.555  0.00  0.00    +0.068 A 
ATOM     24  C   UNL     1     -13.422  -7.458  16.034  0.00  0.00    +0.120 A 
ATOM     31  H   UNL     1      -9.283  -7.616  16.836  0.00  0.00    +0.157 HD
ENDBRANCH  12  18
BRANCH  11  17
ATOM     17  C   UNL     1      -4.585 -11.626  18.296  0.00  0.00    +0.164 C 
BRANCH  17   5
ATOM      5  N   UNL     1      -4.044 -11.663  16.894  0.00  0.00    -0.250 N 
ATOM      7  N   UNL     1      -4.351 -12.675  16.067  0.00  0.00    -0.065 NA
ATOM      8  N   UNL     1      -3.734 -12.443  14.914  0.00  0.00    -0.134 NA
ATOM     19  C   UNL     1      -3.224 -10.757  16.296  0.00  0.00    +0.134 A 
ATOM     21  C   UNL     1      -3.039 -11.271  15.037  0.00  0.00    +0.093 A 
BRANCH  21  22
ATOM     22  C   UNL     1      -2.243 -10.736  13.925  0.00  0.00    +0.133 C 
BRANCH  22   2
ATOM      2  S   UNL     1      -1.994 -11.942  12.574  0.00  0.00    -0.119 S 
BRANCH   2  25
ATOM     25  C   UNL     1      -2.865 -11.140  11.235  0.00  0.00    +0.008 A 
ATOM     26  C   UNL     1      -2.756  -9.762  11.058  0.00  0.00    +0.015 A 
ATOM     27  C   UNL     1      -3.655 -11.895  10.367  0.00  0.00    +0.015 A 
ATOM     28  C   UNL     1      -3.437  -9.136  10.013  0.00  0.00    +0.001 A 
ATOM     29  C   UNL     1      -4.336 -11.270   9.322  0.00  0.00    +0.001 A 
ATOM     30  C   UNL     1      -4.226  -9.891   9.145  0.00  0.00    +0.000 A 
ENDBRANCH   2  25
ENDBRANCH  22   2
ENDBRANCH  21  22
ENDBRANCH  17   5
ENDBRANCH  11  17
TORSDOF 6
ENDMDL
MODEL 8
REMARK VINA RESULT:      -6.2     28.319     31.723
REMARK  Name = 44716297
REMARK  6 active torsions:
REMARK  status: ('A' for Active; 'I' for Inactive)
REMARK    1  A    between atoms: S_2  and  C_22
REMARK    2  A    between atoms: S_2  and  C_25
REMARK    3  A    between atoms: N_5  and  C_17
REMARK    4  A    between atoms: C_11  and  C_17
REMARK    5  A    between atoms: C_12  and  C_18
REMARK    6  A    between atoms: C_21  and  C_22
REMARK                            x       y       z     vdW  Elec       q    Type
REMARK                         _______ _______ _______ _____ _____    ______ ____
ROOT
ATOM      4  N   UNL     1      14.312  11.804  16.108  0.00  0.00    -0.297 NA
ATOM     10  C   UNL     1      15.771  10.880  14.161  0.00  0.00    +0.005 C 
ATOM     11  C   UNL     1      14.291  10.315  16.112  0.00  0.00    +0.078 C 
ATOM     12  C   UNL     1      16.637  11.582  15.226  0.00  0.00    +0.092 C 
ATOM     13  C   UNL     1      15.012   9.742  14.869  0.00  0.00    +0.025 C 
ATOM     14  C   UNL     1      14.705  11.859  13.641  0.00  0.00    +0.020 C 
ATOM     15  C   UNL     1      15.720  12.251  16.268  0.00  0.00    +0.097 C 
ATOM     16  C   UNL     1      13.825  12.327  14.811  0.00  0.00    +0.085 C 
ENDROOT
BRANCH  12  18
ATOM      1  S   UNL     1      20.208  11.551  11.767  0.00  0.00    -0.061 S 
ATOM      3  O   UNL     1      17.561  13.752  14.954  0.00  0.00    -0.275 OA
ATOM      6  N   UNL     1      18.383  11.972  13.652  0.00  0.00    -0.264 N 
ATOM      9  N   UNL     1      19.748  13.847  12.860  0.00  0.00    -0.233 NA
ATOM     18  C   UNL     1      17.575  12.576  14.607  0.00  0.00    +0.223 C 
ATOM     20  C   UNL     1      19.382  12.585  12.859  0.00  0.00    +0.164 A 
ATOM     23  C   UNL     1      21.141  12.890  11.241  0.00  0.00    +0.068 A 
ATOM     24  C   UNL     1      20.757  14.021  11.933  0.00  0.00    +0.120 A 
ATOM     31  H   UNL     1      18.268  10.979  13.467  0.00  0.00    +0.157 HD
ENDBRANCH  12  18
BRANCH  11  17
ATOM     17  C   UNL     1      12.873   9.758  16.252  0.00  0.00    +0.164 C 
BRANCH  17   5
ATOM      5  N   UNL     1      12.792   8.723  17.338  0.00  0.00    -0.250 N 
ATOM      7  N   UNL     1      11.852   7.765  17.304  0.00  0.00    -0.065 NA
ATOM      8  N   UNL     1      12.021   7.007  18.381  0.00  0.00    -0.134 NA
ATOM     19  C   UNL     1      13.588   8.605  18.436  0.00  0.00    +0.134 A 
ATOM     21  C   UNL     1      13.081   7.508  19.085  0.00  0.00    +0.093 A 
BRANCH  21  22
ATOM     22  C   UNL     1      13.524   6.888  20.341  0.00  0.00    +0.133 C 
BRANCH  22   2
ATOM      2  S   UNL     1      14.124   8.102  21.569  0.00  0.00    -0.119 S 
BRANCH   2  25
ATOM     25  C   UNL     1      15.893   7.901  21.414  0.00  0.00    +0.008 A 
ATOM     26  C   UNL     1      16.737   8.998  21.580  0.00  0.00    +0.015 A 
ATOM     27  C   UNL     1      16.428   6.646  21.126  0.00  0.00    +0.015 A 
ATOM     28  C   UNL     1      18.118   8.841  21.459  0.00  0.00    +0.001 A 
ATOM     29  C   UNL     1      17.809   6.488  21.004  0.00  0.00    +0.001 A 
ATOM     30  C   UNL     1      18.653   7.585  21.171  0.00  0.00    +0.000 A 
ENDBRANCH   2  25
ENDBRANCH  22   2
ENDBRANCH  21  22
ENDBRANCH  17   5
ENDBRANCH  11  17
TORSDOF 6
ENDMDL
MODEL 9
REMARK VINA RESULT:      -6.2     27.973     31.230
REMARK  Name = 44716297
REMARK  6 active torsions:
REMARK  status: ('A' for Active; 'I' for Inactive)
REMARK    1  A    between atoms: S_2  and  C_22
REMARK    2  A    between atoms: S_2  and  C_25
REMARK    3  A    between atoms: N_5  and  C_17
REMARK    4  A    between atoms: C_11  and  C_17
REMARK    5  A    between atoms: C_12  and  C_18
REMARK    6  A    between atoms: C_21  and  C_22
REMARK                            x       y       z     vdW  Elec       q    Type
REMARK                         _______ _______ _______ _____ _____    ______ ____
ROOT
ATOM      4  N   UNL     1      12.203   6.790   3.345  0.00  0.00    -0.297 NA
ATOM     10  C   UNL     1       9.976   5.446   3.265  0.00  0.00    +0.005 C 
ATOM     11  C   UNL     1      11.813   6.359   4.715  0.00  0.00    +0.078 C 
ATOM     12  C   UNL     1      11.121   4.676   2.576  0.00  0.00    +0.092 C 
ATOM     13  C   UNL     1      10.411   5.705   4.719  0.00  0.00    +0.025 C 
ATOM     14  C   UNL     1       9.818   6.826   2.604  0.00  0.00    +0.020 C 
ATOM     15  C   UNL     1      12.369   5.575   2.505  0.00  0.00    +0.097 C 
ATOM     16  C   UNL     1      11.133   7.609   2.733  0.00  0.00    +0.085 C 
ENDROOT
BRANCH  12  18
ATOM      1  S   UNL     1      13.351   3.797  -1.780  0.00  0.00    -0.061 S 
ATOM      3  O   UNL     1       9.554   3.895   0.972  0.00  0.00    -0.275 OA
ATOM      6  N   UNL     1      11.812   4.144   0.358  0.00  0.00    -0.264 N 
ATOM      9  N   UNL     1      10.811   3.322  -1.723  0.00  0.00    -0.233 NA
ATOM     18  C   UNL     1      10.718   4.192   1.214  0.00  0.00    +0.223 C 
ATOM     20  C   UNL     1      11.825   3.737  -0.998  0.00  0.00    +0.164 A 
ATOM     23  C   UNL     1      12.611   3.219  -3.215  0.00  0.00    +0.068 A 
ATOM     24  C   UNL     1      11.263   3.025  -2.994  0.00  0.00    +0.120 A 
ATOM     31  H   UNL     1      12.725   4.415   0.711  0.00  0.00    +0.157 HD
ENDBRANCH  12  18
BRANCH  11  17
ATOM     17  C   UNL     1      11.907   7.502   5.728  0.00  0.00    +0.164 C 
BRANCH  17   5
ATOM      5  N   UNL     1      13.331   7.932   5.944  0.00  0.00    -0.250 N 
ATOM      7  N   UNL     1      14.212   7.113   6.539  0.00  0.00    -0.065 NA
ATOM      8  N   UNL     1      15.373   7.756   6.596  0.00  0.00    -0.134 NA
ATOM     19  C   UNL     1      13.902   9.120   5.602  0.00  0.00    +0.134 A 
ATOM     21  C   UNL     1      15.200   8.987   6.025  0.00  0.00    +0.093 A 
BRANCH  21  22
ATOM     22  C   UNL     1      16.307   9.947   5.935  0.00  0.00    +0.133 C 
BRANCH  22   2
ATOM      2  S   UNL     1      17.344   9.711   4.447  0.00  0.00    -0.119 S 
BRANCH   2  25
ATOM     25  C   UNL     1      18.765   8.884   5.149  0.00  0.00    +0.008 A 
ATOM     26  C   UNL     1      19.126   9.122   6.474  0.00  0.00    +0.015 A 
ATOM     27  C   UNL     1      19.512   8.002   4.369  0.00  0.00    +0.015 A 
ATOM     28  C   UNL     1      20.236   8.477   7.021  0.00  0.00    +0.001 A 
ATOM     29  C   UNL     1      20.622   7.356   4.915  0.00  0.00    +0.001 A 
ATOM     30  C   UNL     1      20.983   7.594   6.241  0.00  0.00    +0.000 A 
ENDBRANCH   2  25
ENDBRANCH  22   2
ENDBRANCH  21  22
ENDBRANCH  17   5
ENDBRANCH  11  17
TORSDOF 6
ENDMDL
MODEL 10
REMARK VINA RESULT:      -6.0      4.008      5.039
REMARK  Name = 44716297
REMARK  6 active torsions:
REMARK  status: ('A' for Active; 'I' for Inactive)
REMARK    1  A    between atoms: S_2  and  C_22
REMARK    2  A    between atoms: S_2  and  C_25
REMARK    3  A    between atoms: N_5  and  C_17
REMARK    4  A    between atoms: C_11  and  C_17
REMARK    5  A    between atoms: C_12  and  C_18
REMARK    6  A    between atoms: C_21  and  C_22
REMARK                            x       y       z     vdW  Elec       q    Type
REMARK                         _______ _______ _______ _____ _____    ______ ____
ROOT
ATOM      4  N   UNL     1      -8.978 -10.201  15.511  0.00  0.00    -0.297 NA
ATOM     10  C   UNL     1      -7.640  -9.855  17.716  0.00  0.00    +0.005 C 
ATOM     11  C   UNL     1      -9.611  -9.135  16.334  0.00  0.00    +0.078 C 
ATOM     12  C   UNL     1      -6.820  -9.413  16.488  0.00  0.00    +0.092 C 
ATOM     13  C   UNL     1      -8.937  -9.024  17.722  0.00  0.00    +0.025 C 
ATOM     14  C   UNL     1      -8.065 -11.324  17.547  0.00  0.00    +0.020 C 
ATOM     15  C   UNL     1      -7.584  -9.787  15.203  0.00  0.00    +0.097 C 
ATOM     16  C   UNL     1      -8.907 -11.470  16.270  0.00  0.00    +0.085 C 
ENDROOT
BRANCH  12  18
ATOM      1  S   UNL     1      -3.440 -10.827  13.126  0.00  0.00    -0.061 S 
ATOM      3  O   UNL     1      -4.882 -10.273  17.556  0.00  0.00    -0.275 OA
ATOM      6  N   UNL     1      -4.971 -10.197  15.205  0.00  0.00    -0.264 N 
ATOM      9  N   UNL     1      -2.751 -11.161  15.595  0.00  0.00    -0.233 NA
ATOM     18  C   UNL     1      -5.445 -10.013  16.498  0.00  0.00    +0.223 C 
ATOM     20  C   UNL     1      -3.719 -10.732  14.817  0.00  0.00    +0.164 A 
ATOM     23  C   UNL     1      -1.894 -11.498  13.444  0.00  0.00    +0.068 A 
ATOM     24  C   UNL     1      -1.705 -11.600  14.807  0.00  0.00    +0.120 A 
ATOM     31  H   UNL     1      -5.556  -9.919  14.423  0.00  0.00    +0.157 HD
ENDBRANCH  12  18
BRANCH  11  17
ATOM     17  C   UNL     1     -11.126  -9.320  16.453  0.00  0.00    +0.164 C 
BRANCH  17   5
ATOM      5  N   UNL     1     -11.871  -8.311  15.625  0.00  0.00    -0.250 N 
ATOM      7  N   UNL     1     -12.908  -7.632  16.140  0.00  0.00    -0.065 NA
ATOM      8  N   UNL     1     -13.365  -6.827  15.188  0.00  0.00    -0.134 NA
ATOM     19  C   UNL     1     -11.636  -7.961  14.331  0.00  0.00    +0.134 A 
ATOM     21  C   UNL     1     -12.596  -7.016  14.073  0.00  0.00    +0.093 A 
BRANCH  21  22
ATOM     22  C   UNL     1     -12.851  -6.268  12.835  0.00  0.00    +0.133 C 
BRANCH  22   2
ATOM      2  S   UNL     1     -12.287  -4.531  12.917  0.00  0.00    -0.119 S 
BRANCH   2  25
ATOM     25  C   UNL     1     -12.725  -3.952  11.283  0.00  0.00    +0.008 A 
ATOM     26  C   UNL     1     -11.776  -3.960  10.262  0.00  0.00    +0.015 A 
ATOM     27  C   UNL     1     -14.017  -3.491  11.031  0.00  0.00    +0.015 A 
ATOM     28  C   UNL     1     -12.118  -3.508   8.988  0.00  0.00    +0.001 A 
ATOM     29  C   UNL     1     -14.360  -3.039   9.756  0.00  0.00    +0.001 A 
ATOM     30  C   UNL     1     -13.411  -3.047   8.735  0.00  0.00    +0.000 A 
ENDBRANCH   2  25
ENDBRANCH  22   2
ENDBRANCH  21  22
ENDBRANCH  17   5
ENDBRANCH  11  17
TORSDOF 6
ENDMDL
