MODEL 1
REMARK VINA RESULT:      -7.5      0.000      0.000
REMARK  Name = 56773963
REMARK  8 active torsions:
REMARK  status: ('A' for Active; 'I' for Inactive)
REMARK    1  A    between atoms: S_1  and  N_7
REMARK    2  A    between atoms: S_1  and  C_20
REMARK    3  A    between atoms: O_4  and  C_18
REMARK    4  A    between atoms: C_10  and  C_15
REMARK    5  A    between atoms: C_11  and  C_16
REMARK    6  A    between atoms: C_15  and  C_17
REMARK    7  A    between atoms: C_16  and  C_18
REMARK    8  A    between atoms: C_32  and  C_33
REMARK                            x       y       z     vdW  Elec       q    Type
REMARK                         _______ _______ _______ _____ _____    ______ ____
ROOT
ATOM      7  N   UNL     1      11.962   8.838  21.032  0.00  0.00    -0.176 NA
ATOM     10  C   UNL     1      12.610  11.210  21.391  0.00  0.00    +0.014 C 
ATOM     11  C   UNL     1      11.459  11.347  22.416  0.00  0.00    +0.006 C 
ATOM     12  C   UNL     1      12.259  10.133  20.352  0.00  0.00    +0.113 C 
ATOM     13  C   UNL     1      11.093   9.989  23.034  0.00  0.00    +0.021 C 
ATOM     14  C   UNL     1      10.799   8.947  21.960  0.00  0.00    +0.110 C 
ENDROOT
BRANCH   7   1
ATOM      1  S   UNL     1      11.961   7.458  20.015  0.00  0.00    +0.061 S 
ATOM      2  O   UNL     1      11.563   7.857  18.682  0.00  0.00    -0.153 OA
ATOM      3  O   UNL     1      11.294   6.373  20.700  0.00  0.00    -0.153 OA
BRANCH   1  20
ATOM     20  C   UNL     1      13.688   7.100  19.980  0.00  0.00    +0.106 A 
ATOM     25  C   UNL     1      14.403   6.993  21.173  0.00  0.00    +0.029 A 
ATOM     26  C   UNL     1      14.339   6.925  18.759  0.00  0.00    +0.029 A 
ATOM     30  C   UNL     1      15.769   6.713  21.145  0.00  0.00    +0.015 A 
ATOM     31  C   UNL     1      15.706   6.643  18.731  0.00  0.00    +0.015 A 
ATOM     32  C   UNL     1      16.421   6.538  19.924  0.00  0.00    +0.037 A 
BRANCH  32  33
ATOM      6  O   UNL     1      18.619   6.713  20.749  0.00  0.00    -0.270 OA
ATOM      9  N   UNL     1      18.314   5.407  18.890  0.00  0.00    -0.325 N 
ATOM     33  C   UNL     1      17.844   6.246  19.896  0.00  0.00    +0.242 C 
ATOM     35  H   UNL     1      17.755   4.982  18.161  0.00  0.00    +0.145 HD
ATOM     36  H   UNL     1      19.303   5.182  18.851  0.00  0.00    +0.145 HD
ENDBRANCH  32  33
ENDBRANCH   1  20
ENDBRANCH   7   1
BRANCH  10  15
ATOM     15  C   UNL     1      13.978  10.922  22.022  0.00  0.00    +0.060 C 
BRANCH  15  17
ATOM      8  N   UNL     1      14.611  13.097  21.224  0.00  0.00    -0.287 NA
ATOM     17  C   UNL     1      15.003  11.895  21.489  0.00  0.00    +0.044 C 
ATOM     19  C   UNL     1      16.399  11.427  21.292  0.00  0.00    -0.001 A 
ATOM     21  C   UNL     1      17.211  12.203  20.456  0.00  0.00    -0.037 A 
ATOM     22  C   UNL     1      15.619  14.059  20.764  0.00  0.00    +0.146 C 
ATOM     23  C   UNL     1      16.627  13.425  19.815  0.00  0.00    +0.059 C 
ATOM     24  C   UNL     1      16.898  10.266  21.888  0.00  0.00    +0.010 A 
ATOM     27  C   UNL     1      18.523  11.795  20.197  0.00  0.00    +0.004 A 
ATOM     28  C   UNL     1      18.214   9.876  21.635  0.00  0.00    +0.001 A 
ATOM     29  C   UNL     1      19.023  10.636  20.791  0.00  0.00    +0.000 A 
ENDBRANCH  15  17
ENDBRANCH  10  15
BRANCH  11  16
ATOM     16  C   UNL     1      11.746  12.377  23.508  0.00  0.00    +0.124 C 
BRANCH  16  18
ATOM      5  O   UNL     1      10.582  12.249  25.646  0.00  0.00    -0.251 OA
ATOM     18  C   UNL     1      10.586  12.520  24.455  0.00  0.00    +0.305 C 
BRANCH  18   4
ATOM      4  O   UNL     1       9.509  13.008  23.788  0.00  0.00    -0.481 OA
ATOM     34  H   UNL     1       8.826  13.356  24.401  0.00  0.00    +0.295 HD
ENDBRANCH  18   4
ENDBRANCH  16  18
ENDBRANCH  11  16
TORSDOF 8
ENDMDL
MODEL 2
REMARK VINA RESULT:      -7.2      2.504      5.045
REMARK  Name = 56773963
REMARK  8 active torsions:
REMARK  status: ('A' for Active; 'I' for Inactive)
REMARK    1  A    between atoms: S_1  and  N_7
REMARK    2  A    between atoms: S_1  and  C_20
REMARK    3  A    between atoms: O_4  and  C_18
REMARK    4  A    between atoms: C_10  and  C_15
REMARK    5  A    between atoms: C_11  and  C_16
REMARK    6  A    between atoms: C_15  and  C_17
REMARK    7  A    between atoms: C_16  and  C_18
REMARK    8  A    between atoms: C_32  and  C_33
REMARK                            x       y       z     vdW  Elec       q    Type
REMARK                         _______ _______ _______ _____ _____    ______ ____
ROOT
ATOM      7  N   UNL     1      15.754  12.156  22.587  0.00  0.00    -0.176 NA
ATOM     10  C   UNL     1      13.497  11.255  23.104  0.00  0.00    +0.014 C 
ATOM     11  C   UNL     1      13.163  12.575  23.840  0.00  0.00    +0.006 C 
ATOM     12  C   UNL     1      15.011  10.995  23.160  0.00  0.00    +0.113 C 
ATOM     13  C   UNL     1      14.009  13.743  23.311  0.00  0.00    +0.021 C 
ATOM     14  C   UNL     1      15.498  13.414  23.346  0.00  0.00    +0.110 C 
ENDROOT
BRANCH   7   1
ATOM      1  S   UNL     1      17.397  11.856  22.200  0.00  0.00    +0.061 S 
ATOM      2  O   UNL     1      18.148  11.698  23.426  0.00  0.00    -0.153 OA
ATOM      3  O   UNL     1      17.817  12.795  21.183  0.00  0.00    -0.153 OA
BRANCH   1  20
ATOM     20  C   UNL     1      17.250  10.267  21.446  0.00  0.00    +0.106 A 
ATOM     25  C   UNL     1      16.288  10.048  20.461  0.00  0.00    +0.029 A 
ATOM     26  C   UNL     1      18.095   9.229  21.838  0.00  0.00    +0.029 A 
ATOM     30  C   UNL     1      16.169   8.791  19.868  0.00  0.00    +0.015 A 
ATOM     31  C   UNL     1      17.978   7.972  21.244  0.00  0.00    +0.015 A 
ATOM     32  C   UNL     1      17.014   7.753  20.259  0.00  0.00    +0.037 A 
BRANCH  32  33
ATOM      6  O   UNL     1      15.780   5.915  19.456  0.00  0.00    -0.270 OA
ATOM      9  N   UNL     1      18.060   5.802  19.241  0.00  0.00    -0.325 N 
ATOM     33  C   UNL     1      16.891   6.443  19.641  0.00  0.00    +0.242 C 
ATOM     35  H   UNL     1      19.001   6.160  19.348  0.00  0.00    +0.145 HD
ATOM     36  H   UNL     1      18.001   4.889  18.801  0.00  0.00    +0.145 HD
ENDBRANCH  32  33
ENDBRANCH   1  20
ENDBRANCH   7   1
BRANCH  10  15
ATOM     15  C   UNL     1      12.995  11.203  21.656  0.00  0.00    +0.060 C 
BRANCH  15  17
ATOM      8  N   UNL     1      11.911   9.160  22.302  0.00  0.00    -0.287 NA
ATOM     17  C   UNL     1      12.472   9.821  21.344  0.00  0.00    +0.044 C 
ATOM     19  C   UNL     1      12.630   9.289  19.966  0.00  0.00    -0.001 A 
ATOM     21  C   UNL     1      12.498   7.905  19.806  0.00  0.00    -0.037 A 
ATOM     22  C   UNL     1      11.348   7.842  21.986  0.00  0.00    +0.146 C 
ATOM     23  C   UNL     1      12.225   7.062  21.015  0.00  0.00    +0.059 C 
ATOM     24  C   UNL     1      12.912  10.106  18.869  0.00  0.00    +0.010 A 
ATOM     27  C   UNL     1      12.676   7.336  18.542  0.00  0.00    +0.004 A 
ATOM     28  C   UNL     1      13.072   9.531  17.608  0.00  0.00    +0.001 A 
ATOM     29  C   UNL     1      12.958   8.151  17.445  0.00  0.00    +0.000 A 
ENDBRANCH  15  17
ENDBRANCH  10  15
BRANCH  11  16
ATOM     16  C   UNL     1      11.675  12.926  23.800  0.00  0.00    +0.124 C 
BRANCH  16  18
ATOM      5  O   UNL     1      10.838  11.661  25.707  0.00  0.00    -0.251 OA
ATOM     18  C   UNL     1      10.842  11.893  24.508  0.00  0.00    +0.305 C 
BRANCH  18   4
ATOM      4  O   UNL     1      10.069  11.233  23.608  0.00  0.00    -0.481 OA
ATOM     34  H   UNL     1       9.558  10.508  24.028  0.00  0.00    +0.295 HD
ENDBRANCH  18   4
ENDBRANCH  16  18
ENDBRANCH  11  16
TORSDOF 8
ENDMDL
MODEL 3
REMARK VINA RESULT:      -6.8     15.531     18.515
REMARK  Name = 56773963
REMARK  8 active torsions:
REMARK  status: ('A' for Active; 'I' for Inactive)
REMARK    1  A    between atoms: S_1  and  N_7
REMARK    2  A    between atoms: S_1  and  C_20
REMARK    3  A    between atoms: O_4  and  C_18
REMARK    4  A    between atoms: C_10  and  C_15
REMARK    5  A    between atoms: C_11  and  C_16
REMARK    6  A    between atoms: C_15  and  C_17
REMARK    7  A    between atoms: C_16  and  C_18
REMARK    8  A    between atoms: C_32  and  C_33
REMARK                            x       y       z     vdW  Elec       q    Type
REMARK                         _______ _______ _______ _____ _____    ______ ____
ROOT
ATOM      7  N   UNL     1       9.890   8.870   6.384  0.00  0.00    -0.176 NA
ATOM     10  C   UNL     1      10.480   6.455   6.395  0.00  0.00    +0.014 C 
ATOM     11  C   UNL     1      10.048   6.380   7.879  0.00  0.00    +0.006 C 
ATOM     12  C   UNL     1      10.959   7.878   6.062  0.00  0.00    +0.113 C 
ATOM     13  C   UNL     1       9.024   7.472   8.223  0.00  0.00    +0.021 C 
ATOM     14  C   UNL     1       9.530   8.856   7.831  0.00  0.00    +0.110 C 
ENDROOT
BRANCH   7   1
ATOM      1  S   UNL     1      10.103  10.425   5.697  0.00  0.00    +0.061 S 
ATOM      2  O   UNL     1      11.300  10.420   4.882  0.00  0.00    -0.153 OA
ATOM      3  O   UNL     1       9.904  11.422   6.725  0.00  0.00    -0.153 OA
BRANCH   1  20
ATOM     20  C   UNL     1       8.711  10.477   4.612  0.00  0.00    +0.106 A 
ATOM     25  C   UNL     1       7.591   9.689   4.878  0.00  0.00    +0.029 A 
ATOM     26  C   UNL     1       8.732  11.304   3.489  0.00  0.00    +0.029 A 
ATOM     30  C   UNL     1       6.492   9.727   4.019  0.00  0.00    +0.015 A 
ATOM     31  C   UNL     1       7.633  11.343   2.631  0.00  0.00    +0.015 A 
ATOM     32  C   UNL     1       6.513  10.554   2.896  0.00  0.00    +0.037 A 
BRANCH  32  33
ATOM      6  O   UNL     1       5.442  11.116   0.875  0.00  0.00    -0.270 OA
ATOM      9  N   UNL     1       4.183  10.008   2.439  0.00  0.00    -0.325 N 
ATOM     33  C   UNL     1       5.368  10.593   2.002  0.00  0.00    +0.242 C 
ATOM     35  H   UNL     1       4.037   9.559   3.335  0.00  0.00    +0.145 HD
ATOM     36  H   UNL     1       3.370  10.017   1.831  0.00  0.00    +0.145 HD
ENDBRANCH  32  33
ENDBRANCH   1  20
ENDBRANCH   7   1
BRANCH  10  15
ATOM     15  C   UNL     1       9.396   6.008   5.406  0.00  0.00    +0.060 C 
BRANCH  15  17
ATOM      8  N   UNL     1      10.610   4.327   4.193  0.00  0.00    -0.287 NA
ATOM     17  C   UNL     1      10.040   5.486   4.143  0.00  0.00    +0.044 C 
ATOM     19  C   UNL     1       9.992   6.322   2.917  0.00  0.00    -0.001 A 
ATOM     21  C   UNL     1      10.904   6.005   1.903  0.00  0.00    -0.037 A 
ATOM     22  C   UNL     1      11.182   3.792   2.952  0.00  0.00    +0.146 C 
ATOM     23  C   UNL     1      11.861   4.872   2.121  0.00  0.00    +0.059 C 
ATOM     24  C   UNL     1       9.102   7.387   2.763  0.00  0.00    +0.010 A 
ATOM     27  C   UNL     1      10.938   6.779   0.739  0.00  0.00    +0.004 A 
ATOM     28  C   UNL     1       9.134   8.145   1.591  0.00  0.00    +0.001 A 
ATOM     29  C   UNL     1      10.050   7.844   0.584  0.00  0.00    +0.000 A 
ENDBRANCH  15  17
ENDBRANCH  10  15
BRANCH  11  16
ATOM     16  C   UNL     1       9.523   5.002   8.283  0.00  0.00    +0.124 C 
BRANCH  16  18
ATOM      5  O   UNL     1       8.307   4.684  10.371  0.00  0.00    -0.251 OA
ATOM     18  C   UNL     1       9.352   4.888   9.773  0.00  0.00    +0.305 C 
BRANCH  18   4
ATOM      4  O   UNL     1      10.554   5.045  10.384  0.00  0.00    -0.481 OA
ATOM     34  H   UNL     1      10.533   4.738  11.317  0.00  0.00    +0.295 HD
ENDBRANCH  18   4
ENDBRANCH  16  18
ENDBRANCH  11  16
TORSDOF 8
ENDMDL
MODEL 4
REMARK VINA RESULT:      -6.7     26.940     30.436
REMARK  Name = 56773963
REMARK  8 active torsions:
REMARK  status: ('A' for Active; 'I' for Inactive)
REMARK    1  A    between atoms: S_1  and  N_7
REMARK    2  A    between atoms: S_1  and  C_20
REMARK    3  A    between atoms: O_4  and  C_18
REMARK    4  A    between atoms: C_10  and  C_15
REMARK    5  A    between atoms: C_11  and  C_16
REMARK    6  A    between atoms: C_15  and  C_17
REMARK    7  A    between atoms: C_16  and  C_18
REMARK    8  A    between atoms: C_32  and  C_33
REMARK                            x       y       z     vdW  Elec       q    Type
REMARK                         _______ _______ _______ _____ _____    ______ ____
ROOT
ATOM      7  N   UNL     1      -6.980 -12.184  18.057  0.00  0.00    -0.176 NA
ATOM     10  C   UNL     1      -4.857 -12.673  16.861  0.00  0.00    +0.014 C 
ATOM     11  C   UNL     1      -5.507 -13.950  16.275  0.00  0.00    +0.006 C 
ATOM     12  C   UNL     1      -5.502 -12.332  18.214  0.00  0.00    +0.113 C 
ATOM     13  C   UNL     1      -7.036 -13.825  16.215  0.00  0.00    +0.021 C 
ATOM     14  C   UNL     1      -7.620 -13.441  17.571  0.00  0.00    +0.110 C 
ENDROOT
BRANCH   7   1
ATOM      1  S   UNL     1      -7.781 -11.411  19.360  0.00  0.00    +0.061 S 
ATOM      2  O   UNL     1      -6.813 -10.658  20.128  0.00  0.00    -0.153 OA
ATOM      3  O   UNL     1      -8.663 -12.363  19.999  0.00  0.00    -0.153 OA
BRANCH   1  20
ATOM     20  C   UNL     1      -8.778 -10.260  18.468  0.00  0.00    +0.106 A 
ATOM     25  C   UNL     1      -8.199  -9.437  17.503  0.00  0.00    +0.029 A 
ATOM     26  C   UNL     1     -10.146 -10.172  18.730  0.00  0.00    +0.029 A 
ATOM     30  C   UNL     1      -8.986  -8.524  16.800  0.00  0.00    +0.015 A 
ATOM     31  C   UNL     1     -10.934  -9.260  18.026  0.00  0.00    +0.015 A 
ATOM     32  C   UNL     1     -10.353  -8.436  17.062  0.00  0.00    +0.037 A 
BRANCH  32  33
ATOM      6  O   UNL     1     -12.135  -7.859  15.634  0.00  0.00    -0.270 OA
ATOM      9  N   UNL     1     -10.861  -6.134  16.446  0.00  0.00    -0.325 N 
ATOM     33  C   UNL     1     -11.174  -7.485  16.329  0.00  0.00    +0.242 C 
ATOM     35  H   UNL     1     -10.102  -5.744  16.991  0.00  0.00    +0.145 HD
ATOM     36  H   UNL     1     -11.422  -5.449  15.949  0.00  0.00    +0.145 HD
ENDBRANCH  32  33
ENDBRANCH   1  20
ENDBRANCH   7   1
BRANCH  10  15
ATOM     15  C   UNL     1      -4.904 -11.461  15.922  0.00  0.00    +0.060 C 
BRANCH  15  17
ATOM      8  N   UNL     1      -2.597 -10.950  16.352  0.00  0.00    -0.287 NA
ATOM     17  C   UNL     1      -3.509 -11.122  15.453  0.00  0.00    +0.044 C 
ATOM     19  C   UNL     1      -3.255 -10.997  13.995  0.00  0.00    -0.001 A 
ATOM     21  C   UNL     1      -2.091 -10.319  13.614  0.00  0.00    -0.037 A 
ATOM     22  C   UNL     1      -1.229 -10.681  15.895  0.00  0.00    +0.146 C 
ATOM     23  C   UNL     1      -1.200  -9.760  14.682  0.00  0.00    +0.059 C 
ATOM     24  C   UNL     1      -4.126 -11.509  13.030  0.00  0.00    +0.010 A 
ATOM     27  C   UNL     1      -1.815 -10.132  12.257  0.00  0.00    +0.004 A 
ATOM     28  C   UNL     1      -3.833 -11.330  11.677  0.00  0.00    +0.001 A 
ATOM     29  C   UNL     1      -2.683 -10.642  11.291  0.00  0.00    +0.000 A 
ENDBRANCH  15  17
ENDBRANCH  10  15
BRANCH  11  16
ATOM     16  C   UNL     1      -4.943 -14.338  14.908  0.00  0.00    +0.124 C 
BRANCH  16  18
ATOM      5  O   UNL     1      -3.628 -16.338  15.366  0.00  0.00    -0.251 OA
ATOM     18  C   UNL     1      -3.693 -15.164  15.037  0.00  0.00    +0.305 C 
BRANCH  18   4
ATOM      4  O   UNL     1      -2.610 -14.405  14.728  0.00  0.00    -0.481 OA
ATOM     34  H   UNL     1      -1.932 -14.429  15.438  0.00  0.00    +0.295 HD
ENDBRANCH  18   4
ENDBRANCH  16  18
ENDBRANCH  11  16
TORSDOF 8
ENDMDL
MODEL 5
REMARK VINA RESULT:      -6.6     27.990     30.275
REMARK  Name = 56773963
REMARK  8 active torsions:
REMARK  status: ('A' for Active; 'I' for Inactive)
REMARK    1  A    between atoms: S_1  and  N_7
REMARK    2  A    between atoms: S_1  and  C_20
REMARK    3  A    between atoms: O_4  and  C_18
REMARK    4  A    between atoms: C_10  and  C_15
REMARK    5  A    between atoms: C_11  and  C_16
REMARK    6  A    between atoms: C_15  and  C_17
REMARK    7  A    between atoms: C_16  and  C_18
REMARK    8  A    between atoms: C_32  and  C_33
REMARK                            x       y       z     vdW  Elec       q    Type
REMARK                         _______ _______ _______ _____ _____    ______ ____
ROOT
ATOM      7  N   UNL     1      -3.698 -11.714  15.322  0.00  0.00    -0.176 NA
ATOM     10  C   UNL     1      -6.071 -11.772  16.057  0.00  0.00    +0.014 C 
ATOM     11  C   UNL     1      -5.646 -11.150  17.408  0.00  0.00    +0.006 C 
ATOM     12  C   UNL     1      -4.906 -12.580  15.463  0.00  0.00    +0.113 C 
ATOM     13  C   UNL     1      -4.344 -10.345  17.270  0.00  0.00    +0.021 C 
ATOM     14  C   UNL     1      -3.236 -11.179  16.635  0.00  0.00    +0.110 C 
ENDROOT
BRANCH   7   1
ATOM      1  S   UNL     1      -2.463 -12.337  14.310  0.00  0.00    +0.061 S 
ATOM      2  O   UNL     1      -2.588 -13.778  14.247  0.00  0.00    -0.153 OA
ATOM      3  O   UNL     1      -1.208 -11.712  14.664  0.00  0.00    -0.153 OA
BRANCH   1  20
ATOM     20  C   UNL     1      -2.979 -11.682  12.755  0.00  0.00    +0.106 A 
ATOM     25  C   UNL     1      -2.552 -10.415  12.356  0.00  0.00    +0.029 A 
ATOM     26  C   UNL     1      -3.815 -12.430  11.925  0.00  0.00    +0.029 A 
ATOM     30  C   UNL     1      -2.963  -9.895  11.128  0.00  0.00    +0.015 A 
ATOM     31  C   UNL     1      -4.224 -11.910  10.696  0.00  0.00    +0.015 A 
ATOM     32  C   UNL     1      -3.798 -10.643  10.299  0.00  0.00    +0.037 A 
BRANCH  32  33
ATOM      6  O   UNL     1      -4.610 -10.842   8.097  0.00  0.00    -0.270 OA
ATOM      9  N   UNL     1      -4.209  -8.718   8.862  0.00  0.00    -0.325 N 
ATOM     33  C   UNL     1      -4.225 -10.101   9.019  0.00  0.00    +0.242 C 
ATOM     35  H   UNL     1      -3.916  -8.044   9.559  0.00  0.00    +0.145 HD
ATOM     36  H   UNL     1      -4.509  -8.314   7.980  0.00  0.00    +0.145 HD
ENDBRANCH  32  33
ENDBRANCH   1  20
ENDBRANCH   7   1
BRANCH  10  15
ATOM     15  C   UNL     1      -6.594 -10.753  15.036  0.00  0.00    +0.060 C 
BRANCH  15  17
ATOM      8  N   UNL     1      -7.998 -12.556  14.297  0.00  0.00    -0.287 NA
ATOM     17  C   UNL     1      -7.395 -11.461  13.969  0.00  0.00    +0.044 C 
ATOM     19  C   UNL     1      -7.447 -10.875  12.606  0.00  0.00    -0.001 A 
ATOM     21  C   UNL     1      -7.854 -11.724  11.570  0.00  0.00    -0.037 A 
ATOM     22  C   UNL     1      -8.826 -13.212  13.278  0.00  0.00    +0.146 C 
ATOM     23  C   UNL     1      -8.192 -13.148  11.895  0.00  0.00    +0.059 C 
ATOM     24  C   UNL     1      -7.098  -9.549  12.340  0.00  0.00    +0.010 A 
ATOM     27  C   UNL     1      -7.886 -11.245  10.257  0.00  0.00    +0.004 A 
ATOM     28  C   UNL     1      -7.148  -9.076  11.028  0.00  0.00    +0.001 A 
ATOM     29  C   UNL     1      -7.538  -9.921   9.990  0.00  0.00    +0.000 A 
ENDBRANCH  15  17
ENDBRANCH  10  15
BRANCH  11  16
ATOM     16  C   UNL     1      -6.741 -10.297  18.048  0.00  0.00    +0.124 C 
BRANCH  16  18
ATOM      5  O   UNL     1      -6.138 -11.097  20.270  0.00  0.00    -0.251 OA
ATOM     18  C   UNL     1      -6.975 -10.681  19.484  0.00  0.00    +0.305 C 
BRANCH  18   4
ATOM      4  O   UNL     1      -8.282 -10.496  19.800  0.00  0.00    -0.481 OA
ATOM     34  H   UNL     1      -8.448  -9.595  20.154  0.00  0.00    +0.295 HD
ENDBRANCH  18   4
ENDBRANCH  16  18
ENDBRANCH  11  16
TORSDOF 8
ENDMDL
MODEL 6
REMARK VINA RESULT:      -6.5     27.329     30.161
REMARK  Name = 56773963
REMARK  8 active torsions:
REMARK  status: ('A' for Active; 'I' for Inactive)
REMARK    1  A    between atoms: S_1  and  N_7
REMARK    2  A    between atoms: S_1  and  C_20
REMARK    3  A    between atoms: O_4  and  C_18
REMARK    4  A    between atoms: C_10  and  C_15
REMARK    5  A    between atoms: C_11  and  C_16
REMARK    6  A    between atoms: C_15  and  C_17
REMARK    7  A    between atoms: C_16  and  C_18
REMARK    8  A    between atoms: C_32  and  C_33
REMARK                            x       y       z     vdW  Elec       q    Type
REMARK                         _______ _______ _______ _____ _____    ______ ____
ROOT
ATOM      7  N   UNL     1      -3.141 -10.995  13.731  0.00  0.00    -0.176 NA
ATOM     10  C   UNL     1      -4.552 -11.999  15.514  0.00  0.00    +0.014 C 
ATOM     11  C   UNL     1      -3.590 -11.413  16.575  0.00  0.00    +0.006 C 
ATOM     12  C   UNL     1      -3.791 -12.254  14.203  0.00  0.00    +0.113 C 
ATOM     13  C   UNL     1      -2.850 -10.177  16.041  0.00  0.00    +0.021 C 
ATOM     14  C   UNL     1      -2.152 -10.473  14.717  0.00  0.00    +0.110 C 
ENDROOT
BRANCH   7   1
ATOM      1  S   UNL     1      -2.613 -11.009  12.101  0.00  0.00    +0.061 S 
ATOM      2  O   UNL     1      -2.583 -12.377  11.627  0.00  0.00    -0.153 OA
ATOM      3  O   UNL     1      -1.456 -10.150  11.976  0.00  0.00    -0.153 OA
BRANCH   1  20
ATOM     20  C   UNL     1      -3.978 -10.200  11.328  0.00  0.00    +0.106 A 
ATOM     25  C   UNL     1      -3.995 -10.030   9.943  0.00  0.00    +0.029 A 
ATOM     26  C   UNL     1      -5.038  -9.728  12.101  0.00  0.00    +0.029 A 
ATOM     30  C   UNL     1      -5.072  -9.388   9.332  0.00  0.00    +0.015 A 
ATOM     31  C   UNL     1      -6.116  -9.086  11.490  0.00  0.00    +0.015 A 
ATOM     32  C   UNL     1      -6.132  -8.916  10.106  0.00  0.00    +0.037 A 
BRANCH  32  33
ATOM      6  O   UNL     1      -8.427  -8.471   9.818  0.00  0.00    -0.270 OA
ATOM      9  N   UNL     1      -6.975  -7.326   8.463  0.00  0.00    -0.325 N 
ATOM     33  C   UNL     1      -7.255  -8.246   9.469  0.00  0.00    +0.242 C 
ATOM     35  H   UNL     1      -6.054  -7.080   8.121  0.00  0.00    +0.145 HD
ATOM     36  H   UNL     1      -7.741  -6.840   8.007  0.00  0.00    +0.145 HD
ENDBRANCH  32  33
ENDBRANCH   1  20
ENDBRANCH   7   1
BRANCH  10  15
ATOM     15  C   UNL     1      -5.796 -11.139  15.255  0.00  0.00    +0.060 C 
BRANCH  15  17
ATOM      8  N   UNL     1      -7.015 -12.934  16.284  0.00  0.00    -0.287 NA
ATOM     17  C   UNL     1      -6.958 -11.661  16.066  0.00  0.00    +0.044 C 
ATOM     19  C   UNL     1      -7.973 -10.698  16.566  0.00  0.00    -0.001 A 
ATOM     21  C   UNL     1      -9.205 -11.232  16.963  0.00  0.00    -0.037 A 
ATOM     22  C   UNL     1      -8.110 -13.435  17.124  0.00  0.00    +0.146 C 
ATOM     23  C   UNL     1      -9.422 -12.711  16.849  0.00  0.00    +0.059 C 
ATOM     24  C   UNL     1      -7.741  -9.323  16.631  0.00  0.00    +0.010 A 
ATOM     27  C   UNL     1     -10.217 -10.375  17.405  0.00  0.00    +0.004 A 
ATOM     28  C   UNL     1      -8.752  -8.477  17.088  0.00  0.00    +0.001 A 
ATOM     29  C   UNL     1      -9.987  -9.000  17.471  0.00  0.00    +0.000 A 
ENDBRANCH  15  17
ENDBRANCH  10  15
BRANCH  11  16
ATOM     16  C   UNL     1      -4.280 -11.096  17.902  0.00  0.00    +0.124 C 
BRANCH  16  18
ATOM      5  O   UNL     1      -3.333 -12.172  19.874  0.00  0.00    -0.251 OA
ATOM     18  C   UNL     1      -4.080 -12.197  18.908  0.00  0.00    +0.305 C 
BRANCH  18   4
ATOM      4  O   UNL     1      -4.867 -13.256  18.589  0.00  0.00    -0.481 OA
ATOM     34  H   UNL     1      -4.483 -14.104  18.901  0.00  0.00    +0.295 HD
ENDBRANCH  18   4
ENDBRANCH  16  18
ENDBRANCH  11  16
TORSDOF 8
ENDMDL
MODEL 7
REMARK VINA RESULT:      -6.5     28.043     30.367
REMARK  Name = 56773963
REMARK  8 active torsions:
REMARK  status: ('A' for Active; 'I' for Inactive)
REMARK    1  A    between atoms: S_1  and  N_7
REMARK    2  A    between atoms: S_1  and  C_20
REMARK    3  A    between atoms: O_4  and  C_18
REMARK    4  A    between atoms: C_10  and  C_15
REMARK    5  A    between atoms: C_11  and  C_16
REMARK    6  A    between atoms: C_15  and  C_17
REMARK    7  A    between atoms: C_16  and  C_18
REMARK    8  A    between atoms: C_32  and  C_33
REMARK                            x       y       z     vdW  Elec       q    Type
REMARK                         _______ _______ _______ _____ _____    ______ ____
ROOT
ATOM      7  N   UNL     1      -3.984 -11.795  15.329  0.00  0.00    -0.176 NA
ATOM     10  C   UNL     1      -5.927 -11.967  16.869  0.00  0.00    +0.014 C 
ATOM     11  C   UNL     1      -5.156 -11.110  17.902  0.00  0.00    +0.006 C 
ATOM     12  C   UNL     1      -4.934 -12.741  15.987  0.00  0.00    +0.113 C 
ATOM     13  C   UNL     1      -4.109 -10.216  17.220  0.00  0.00    +0.021 C 
ATOM     14  C   UNL     1      -3.180 -11.027  16.323  0.00  0.00    +0.110 C 
ENDROOT
BRANCH   7   1
ATOM      1  S   UNL     1      -3.096 -12.444  14.014  0.00  0.00    +0.061 S 
ATOM      2  O   UNL     1      -3.599 -13.768  13.714  0.00  0.00    -0.153 OA
ATOM      3  O   UNL     1      -1.687 -12.215  14.243  0.00  0.00    -0.153 OA
BRANCH   1  20
ATOM     20  C   UNL     1      -3.622 -11.361  12.723  0.00  0.00    +0.106 A 
ATOM     25  C   UNL     1      -4.753 -10.564  12.899  0.00  0.00    +0.029 A 
ATOM     26  C   UNL     1      -2.907 -11.304  11.527  0.00  0.00    +0.029 A 
ATOM     30  C   UNL     1      -5.170  -9.711  11.877  0.00  0.00    +0.015 A 
ATOM     31  C   UNL     1      -3.323 -10.449  10.506  0.00  0.00    +0.015 A 
ATOM     32  C   UNL     1      -4.455  -9.653  10.681  0.00  0.00    +0.037 A 
BRANCH  32  33
ATOM      6  O   UNL     1      -5.445  -7.677   9.866  0.00  0.00    -0.270 OA
ATOM      9  N   UNL     1      -4.649  -9.156   8.304  0.00  0.00    -0.325 N 
ATOM     33  C   UNL     1      -4.890  -8.763   9.617  0.00  0.00    +0.242 C 
ATOM     35  H   UNL     1      -4.202 -10.017   8.013  0.00  0.00    +0.145 HD
ATOM     36  H   UNL     1      -4.937  -8.549   7.543  0.00  0.00    +0.145 HD
ENDBRANCH  32  33
ENDBRANCH   1  20
ENDBRANCH   7   1
BRANCH  10  15
ATOM     15  C   UNL     1      -6.907 -11.168  16.001  0.00  0.00    +0.060 C 
BRANCH  15  17
ATOM      8  N   UNL     1      -8.685 -12.702  16.504  0.00  0.00    -0.287 NA
ATOM     17  C   UNL     1      -8.326 -11.463  16.426  0.00  0.00    +0.044 C 
ATOM     19  C   UNL     1      -9.234 -10.326  16.726  0.00  0.00    -0.001 A 
ATOM     21  C   UNL     1     -10.607 -10.603  16.734  0.00  0.00    -0.037 A 
ATOM     22  C   UNL     1     -10.045 -12.991  16.976  0.00  0.00    +0.146 C 
ATOM     23  C   UNL     1     -11.064 -11.998  16.433  0.00  0.00    +0.059 C 
ATOM     24  C   UNL     1      -8.769  -9.034  16.976  0.00  0.00    +0.010 A 
ATOM     27  C   UNL     1     -11.517  -9.568  16.970  0.00  0.00    +0.004 A 
ATOM     28  C   UNL     1      -9.685  -8.011  17.224  0.00  0.00    +0.001 A 
ATOM     29  C   UNL     1     -11.055  -8.276  17.219  0.00  0.00    +0.000 A 
ENDBRANCH  15  17
ENDBRANCH  10  15
BRANCH  11  16
ATOM     16  C   UNL     1      -6.074 -10.279  18.798  0.00  0.00    +0.124 C 
BRANCH  16  18
ATOM      5  O   UNL     1      -7.862 -11.524  19.891  0.00  0.00    -0.251 OA
ATOM     18  C   UNL     1      -6.710 -11.118  19.872  0.00  0.00    +0.305 C 
BRANCH  18   4
ATOM      4  O   UNL     1      -5.803 -11.375  20.849  0.00  0.00    -0.481 OA
ATOM     34  H   UNL     1      -5.161 -10.639  20.954  0.00  0.00    +0.295 HD
ENDBRANCH  18   4
ENDBRANCH  16  18
ENDBRANCH  11  16
TORSDOF 8
ENDMDL
MODEL 8
REMARK VINA RESULT:      -6.4     14.856     17.620
REMARK  Name = 56773963
REMARK  8 active torsions:
REMARK  status: ('A' for Active; 'I' for Inactive)
REMARK    1  A    between atoms: S_1  and  N_7
REMARK    2  A    between atoms: S_1  and  C_20
REMARK    3  A    between atoms: O_4  and  C_18
REMARK    4  A    between atoms: C_10  and  C_15
REMARK    5  A    between atoms: C_11  and  C_16
REMARK    6  A    between atoms: C_15  and  C_17
REMARK    7  A    between atoms: C_16  and  C_18
REMARK    8  A    between atoms: C_32  and  C_33
REMARK                            x       y       z     vdW  Elec       q    Type
REMARK                         _______ _______ _______ _____ _____    ______ ____
ROOT
ATOM      7  N   UNL     1      10.490   9.013   6.221  0.00  0.00    -0.176 NA
ATOM     10  C   UNL     1      10.414   6.561   6.615  0.00  0.00    +0.014 C 
ATOM     11  C   UNL     1       9.937   6.831   8.063  0.00  0.00    +0.006 C 
ATOM     12  C   UNL     1      11.264   7.741   6.117  0.00  0.00    +0.113 C 
ATOM     13  C   UNL     1       9.233   8.191   8.178  0.00  0.00    +0.021 C 
ATOM     14  C   UNL     1      10.100   9.318   7.628  0.00  0.00    +0.110 C 
ENDROOT
BRANCH   7   1
ATOM      1  S   UNL     1      11.130  10.334   5.336  0.00  0.00    +0.061 S 
ATOM      2  O   UNL     1      11.622  11.329   6.264  0.00  0.00    -0.153 OA
ATOM      3  O   UNL     1      10.199  10.689   4.287  0.00  0.00    -0.153 OA
BRANCH   1  20
ATOM     20  C   UNL     1      12.525   9.556   4.586  0.00  0.00    +0.106 A 
ATOM     25  C   UNL     1      13.704   9.389   5.312  0.00  0.00    +0.029 A 
ATOM     26  C   UNL     1      12.449   9.110   3.267  0.00  0.00    +0.029 A 
ATOM     30  C   UNL     1      14.808   8.777   4.719  0.00  0.00    +0.015 A 
ATOM     31  C   UNL     1      13.554   8.497   2.673  0.00  0.00    +0.015 A 
ATOM     32  C   UNL     1      14.733   8.331   3.400  0.00  0.00    +0.037 A 
BRANCH  32  33
ATOM      6  O   UNL     1      15.794   7.120   1.681  0.00  0.00    -0.270 OA
ATOM      9  N   UNL     1      17.101   7.759   3.453  0.00  0.00    -0.325 N 
ATOM     33  C   UNL     1      15.884   7.693   2.782  0.00  0.00    +0.242 C 
ATOM     35  H   UNL     1      17.263   8.208   4.347  0.00  0.00    +0.145 HD
ATOM     36  H   UNL     1      17.921   7.328   3.040  0.00  0.00    +0.145 HD
ENDBRANCH  32  33
ENDBRANCH   1  20
ENDBRANCH   7   1
BRANCH  10  15
ATOM     15  C   UNL     1       9.278   6.262   5.628  0.00  0.00    +0.060 C 
BRANCH  15  17
ATOM      8  N   UNL     1      10.452   4.620   4.327  0.00  0.00    -0.287 NA
ATOM     17  C   UNL     1       9.851   5.765   4.323  0.00  0.00    +0.044 C 
ATOM     19  C   UNL     1       9.704   6.607   3.109  0.00  0.00    -0.001 A 
ATOM     21  C   UNL     1      10.556   6.321   2.035  0.00  0.00    -0.037 A 
ATOM     22  C   UNL     1      10.956   4.108   3.047  0.00  0.00    +0.146 C 
ATOM     23  C   UNL     1      11.553   5.211   2.182  0.00  0.00    +0.059 C 
ATOM     24  C   UNL     1       8.779   7.650   3.021  0.00  0.00    +0.010 A 
ATOM     27  C   UNL     1      10.495   7.103   0.878  0.00  0.00    +0.004 A 
ATOM     28  C   UNL     1       8.716   8.416   1.856  0.00  0.00    +0.001 A 
ATOM     29  C   UNL     1       9.572   8.145   0.789  0.00  0.00    +0.000 A 
ENDBRANCH  15  17
ENDBRANCH  10  15
BRANCH  11  16
ATOM     16  C   UNL     1       9.052   5.716   8.621  0.00  0.00    +0.124 C 
BRANCH  16  18
ATOM      5  O   UNL     1      10.087   4.621  10.537  0.00  0.00    -0.251 OA
ATOM     18  C   UNL     1       9.863   4.671   9.337  0.00  0.00    +0.305 C 
BRANCH  18   4
ATOM      4  O   UNL     1      10.325   3.759   8.444  0.00  0.00    -0.481 OA
ATOM     34  H   UNL     1      10.352   4.122   7.532  0.00  0.00    +0.295 HD
ENDBRANCH  18   4
ENDBRANCH  16  18
ENDBRANCH  11  16
TORSDOF 8
ENDMDL
MODEL 9
REMARK VINA RESULT:      -6.4     25.283     28.805
REMARK  Name = 56773963
REMARK  8 active torsions:
REMARK  status: ('A' for Active; 'I' for Inactive)
REMARK    1  A    between atoms: S_1  and  N_7
REMARK    2  A    between atoms: S_1  and  C_20
REMARK    3  A    between atoms: O_4  and  C_18
REMARK    4  A    between atoms: C_10  and  C_15
REMARK    5  A    between atoms: C_11  and  C_16
REMARK    6  A    between atoms: C_15  and  C_17
REMARK    7  A    between atoms: C_16  and  C_18
REMARK    8  A    between atoms: C_32  and  C_33
REMARK                            x       y       z     vdW  Elec       q    Type
REMARK                         _______ _______ _______ _____ _____    ______ ____
ROOT
ATOM      7  N   UNL     1     -11.409   9.377  17.855  0.00  0.00    -0.176 NA
ATOM     10  C   UNL     1     -12.775   9.606  15.792  0.00  0.00    +0.014 C 
ATOM     11  C   UNL     1     -11.591   9.041  14.971  0.00  0.00    +0.006 C 
ATOM     12  C   UNL     1     -12.248  10.314  17.050  0.00  0.00    +0.113 C 
ATOM     13  C   UNL     1     -10.677   8.161  15.837  0.00  0.00    +0.021 C 
ATOM     14  C   UNL     1     -10.221   8.895  17.094  0.00  0.00    +0.110 C 
ENDROOT
BRANCH   7   1
ATOM      1  S   UNL     1     -11.095   9.874  19.465  0.00  0.00    +0.061 S 
ATOM      2  O   UNL     1     -11.736  11.150  19.698  0.00  0.00    -0.153 OA
ATOM      3  O   UNL     1      -9.690   9.681  19.749  0.00  0.00    -0.153 OA
BRANCH   1  20
ATOM     20  C   UNL     1     -12.002   8.644  20.349  0.00  0.00    +0.106 A 
ATOM     25  C   UNL     1     -11.624   7.305  20.267  0.00  0.00    +0.029 A 
ATOM     26  C   UNL     1     -13.099   9.013  21.129  0.00  0.00    +0.029 A 
ATOM     30  C   UNL     1     -12.343   6.332  20.962  0.00  0.00    +0.015 A 
ATOM     31  C   UNL     1     -13.817   8.040  21.826  0.00  0.00    +0.015 A 
ATOM     32  C   UNL     1     -13.439   6.700  21.742  0.00  0.00    +0.037 A 
BRANCH  32  33
ATOM      6  O   UNL     1     -15.066   5.996  23.293  0.00  0.00    -0.270 OA
ATOM      9  N   UNL     1     -13.905   4.352  22.194  0.00  0.00    -0.325 N 
ATOM     33  C   UNL     1     -14.188   5.687  22.467  0.00  0.00    +0.242 C 
ATOM     35  H   UNL     1     -13.214   4.013  21.536  0.00  0.00    +0.145 HD
ATOM     36  H   UNL     1     -14.419   3.625  22.682  0.00  0.00    +0.145 HD
ENDBRANCH  32  33
ENDBRANCH   1  20
ENDBRANCH   7   1
BRANCH  10  15
ATOM     15  C   UNL     1     -13.832   8.560  16.167  0.00  0.00    +0.060 C 
BRANCH  15  17
ATOM      8  N   UNL     1     -15.502  10.272  15.955  0.00  0.00    -0.287 NA
ATOM     17  C   UNL     1     -15.094   9.249  16.630  0.00  0.00    +0.044 C 
ATOM     19  C   UNL     1     -15.796   8.726  17.830  0.00  0.00    -0.001 A 
ATOM     21  C   UNL     1     -16.709   9.587  18.450  0.00  0.00    -0.037 A 
ATOM     22  C   UNL     1     -16.761  10.905  16.368  0.00  0.00    +0.146 C 
ATOM     23  C   UNL     1     -16.906  10.960  17.883  0.00  0.00    +0.059 C 
ATOM     24  C   UNL     1     -15.564   7.448  18.343  0.00  0.00    +0.010 A 
ATOM     27  C   UNL     1     -17.373   9.170  19.608  0.00  0.00    +0.004 A 
ATOM     28  C   UNL     1     -16.244   7.036  19.490  0.00  0.00    +0.001 A 
ATOM     29  C   UNL     1     -17.143   7.894  20.122  0.00  0.00    +0.000 A 
ENDBRANCH  15  17
ENDBRANCH  10  15
BRANCH  11  16
ATOM     16  C   UNL     1     -12.035   8.287  13.717  0.00  0.00    +0.124 C 
BRANCH  16  18
ATOM      5  O   UNL     1      -9.873   7.555  12.862  0.00  0.00    -0.251 OA
ATOM     18  C   UNL     1     -10.995   7.297  13.268  0.00  0.00    +0.305 C 
BRANCH  18   4
ATOM      4  O   UNL     1     -11.487   6.036  13.379  0.00  0.00    -0.481 OA
ATOM     34  H   UNL     1     -11.073   5.424  12.733  0.00  0.00    +0.295 HD
ENDBRANCH  18   4
ENDBRANCH  16  18
ENDBRANCH  11  16
TORSDOF 8
ENDMDL
MODEL 10
REMARK VINA RESULT:      -6.4     26.019     28.794
REMARK  Name = 56773963
REMARK  8 active torsions:
REMARK  status: ('A' for Active; 'I' for Inactive)
REMARK    1  A    between atoms: S_1  and  N_7
REMARK    2  A    between atoms: S_1  and  C_20
REMARK    3  A    between atoms: O_4  and  C_18
REMARK    4  A    between atoms: C_10  and  C_15
REMARK    5  A    between atoms: C_11  and  C_16
REMARK    6  A    between atoms: C_15  and  C_17
REMARK    7  A    between atoms: C_16  and  C_18
REMARK    8  A    between atoms: C_32  and  C_33
REMARK                            x       y       z     vdW  Elec       q    Type
REMARK                         _______ _______ _______ _____ _____    ______ ____
ROOT
ATOM      7  N   UNL     1     -16.191   7.540  19.183  0.00  0.00    -0.176 NA
ATOM     10  C   UNL     1     -14.738   7.468  21.199  0.00  0.00    +0.014 C 
ATOM     11  C   UNL     1     -15.453   6.168  21.640  0.00  0.00    +0.006 C 
ATOM     12  C   UNL     1     -15.691   8.326  20.350  0.00  0.00    +0.113 C 
ATOM     13  C   UNL     1     -16.052   5.421  20.440  0.00  0.00    +0.021 C 
ATOM     14  C   UNL     1     -16.951   6.329  19.608  0.00  0.00    +0.110 C 
ENDROOT
BRANCH   7   1
ATOM      1  S   UNL     1     -16.919   8.462  17.936  0.00  0.00    +0.061 S 
ATOM      2  O   UNL     1     -17.071   9.828  18.388  0.00  0.00    -0.153 OA
ATOM      3  O   UNL     1     -18.042   7.723  17.402  0.00  0.00    -0.153 OA
BRANCH   1  20
ATOM     20  C   UNL     1     -15.626   8.432  16.735  0.00  0.00    +0.106 A 
ATOM     25  C   UNL     1     -14.559   9.324  16.836  0.00  0.00    +0.029 A 
ATOM     26  C   UNL     1     -15.672   7.516  15.684  0.00  0.00    +0.029 A 
ATOM     30  C   UNL     1     -13.538   9.302  15.885  0.00  0.00    +0.015 A 
ATOM     31  C   UNL     1     -14.651   7.493  14.733  0.00  0.00    +0.015 A 
ATOM     32  C   UNL     1     -13.584   8.387  14.834  0.00  0.00    +0.037 A 
BRANCH  32  33
ATOM      6  O   UNL     1     -12.247   9.369  13.162  0.00  0.00    -0.270 OA
ATOM      9  N   UNL     1     -11.800   7.183  13.692  0.00  0.00    -0.325 N 
ATOM     33  C   UNL     1     -12.521   8.364  13.843  0.00  0.00    +0.242 C 
ATOM     35  H   UNL     1     -11.953   6.324  14.205  0.00  0.00    +0.145 HD
ATOM     36  H   UNL     1     -11.048   7.143  13.011  0.00  0.00    +0.145 HD
ENDBRANCH  32  33
ENDBRANCH   1  20
ENDBRANCH   7   1
BRANCH  10  15
ATOM     15  C   UNL     1     -13.419   7.233  20.453  0.00  0.00    +0.060 C 
BRANCH  15  17
ATOM      8  N   UNL     1     -12.788   9.373  21.343  0.00  0.00    -0.287 NA
ATOM     17  C   UNL     1     -12.633   8.521  20.383  0.00  0.00    +0.044 C 
ATOM     19  C   UNL     1     -11.733   8.749  19.223  0.00  0.00    -0.001 A 
ATOM     21  C   UNL     1     -11.332  10.070  18.987  0.00  0.00    -0.037 A 
ATOM     22  C   UNL     1     -11.979  10.597  21.307  0.00  0.00    +0.146 C 
ATOM     23  C   UNL     1     -11.838  11.150  19.895  0.00  0.00    +0.059 C 
ATOM     24  C   UNL     1     -11.306   7.718  18.385  0.00  0.00    +0.010 A 
ATOM     27  C   UNL     1     -10.518  10.357  17.888  0.00  0.00    +0.004 A 
ATOM     28  C   UNL     1     -10.481   8.013  17.299  0.00  0.00    +0.001 A 
ATOM     29  C   UNL     1     -10.090   9.328  17.049  0.00  0.00    +0.000 A 
ENDBRANCH  15  17
ENDBRANCH  10  15
BRANCH  11  16
ATOM     16  C   UNL     1     -14.558   5.240  22.461  0.00  0.00    +0.124 C 
BRANCH  16  18
ATOM      5  O   UNL     1     -15.827   3.258  23.096  0.00  0.00    -0.251 OA
ATOM     18  C   UNL     1     -15.364   4.354  23.371  0.00  0.00    +0.305 C 
BRANCH  18   4
ATOM      4  O   UNL     1     -15.512   4.954  24.580  0.00  0.00    -0.481 OA
ATOM     34  H   UNL     1     -16.285   5.558  24.597  0.00  0.00    +0.295 HD
ENDBRANCH  18   4
ENDBRANCH  16  18
ENDBRANCH  11  16
TORSDOF 8
ENDMDL
