MODEL 1
REMARK VINA RESULT:      -6.8      0.000      0.000
REMARK  Name = 26743682
REMARK  5 active torsions:
REMARK  status: ('A' for Active; 'I' for Inactive)
REMARK    1  A    between atoms: O_2  and  C_10
REMARK    2  A    between atoms: N_4  and  C_12
REMARK    3  A    between atoms: C_8  and  C_13
REMARK    4  A    between atoms: C_12  and  C_14
REMARK    5  A    between atoms: C_16  and  C_19
REMARK                            x       y       z     vdW  Elec       q    Type
REMARK                         _______ _______ _______ _____ _____    ______ ____
ROOT
ATOM      4  N   UNL     1      12.668   8.445  18.739  0.00  0.00    -0.284 NA
ATOM      8  C   UNL     1      13.730   7.519  18.295  0.00  0.00    +0.149 C 
ATOM      9  C   UNL     1      13.994   7.899  16.826  0.00  0.00    +0.061 C 
ATOM     10  C   UNL     1      13.002   9.015  16.522  0.00  0.00    +0.130 C 
ATOM     11  C   UNL     1      11.903   8.800  17.546  0.00  0.00    +0.116 C 
ENDROOT
BRANCH   8  13
ATOM      3  O   UNL     1      15.081   8.693  19.959  0.00  0.00    -0.336 OA
ATOM      5  N   UNL     1      15.982   6.773  19.239  0.00  0.00    -0.189 NA
ATOM      6  N   UNL     1      16.295   8.551  20.644  0.00  0.00    -0.054 NA
ATOM     13  C   UNL     1      14.974   7.604  19.154  0.00  0.00    +0.245 A 
ATOM     16  C   UNL     1      16.766   7.396  20.165  0.00  0.00    +0.220 A 
BRANCH  16  19
ATOM      7  N   UNL     1      18.466   5.787  19.869  0.00  0.00    -0.252 NA
ATOM     19  C   UNL     1      18.017   6.837  20.593  0.00  0.00    +0.111 A 
ATOM     20  C   UNL     1      18.685   7.370  21.682  0.00  0.00    +0.031 A 
ATOM     21  C   UNL     1      19.893   6.789  22.054  0.00  0.00    +0.004 A 
ATOM     22  C   UNL     1      19.643   5.248  20.260  0.00  0.00    +0.111 A 
ATOM     23  C   UNL     1      20.387   5.708  21.334  0.00  0.00    +0.020 A 
ENDBRANCH  16  19
ENDBRANCH   8  13
BRANCH  10   2
ATOM      2  O   UNL     1      12.516   8.908  15.198  0.00  0.00    -0.390 OA
ATOM     24  H   UNL     1      12.391   7.963  15.008  0.00  0.00    +0.210 HD
ENDBRANCH  10   2
BRANCH   4  12
ATOM     12  C   UNL     1      11.822   7.887  19.787  0.00  0.00    +0.127 C 
BRANCH  12  14
ATOM      1  S   UNL     1      10.757   8.381  22.308  0.00  0.00    -0.100 S 
ATOM     14  C   UNL     1      11.539   8.891  20.873  0.00  0.00    +0.004 A 
ATOM     15  C   UNL     1      11.828  10.237  20.891  0.00  0.00    +0.012 A 
ATOM     17  C   UNL     1      11.402  10.858  22.101  0.00  0.00    +0.008 A 
ATOM     18  C   UNL     1      10.804   9.963  22.960  0.00  0.00    +0.045 A 
ENDBRANCH  12  14
ENDBRANCH   4  12
TORSDOF 5
ENDMDL
MODEL 2
REMARK VINA RESULT:      -6.2     25.799     28.313
REMARK  Name = 26743682
REMARK  5 active torsions:
REMARK  status: ('A' for Active; 'I' for Inactive)
REMARK    1  A    between atoms: O_2  and  C_10
REMARK    2  A    between atoms: N_4  and  C_12
REMARK    3  A    between atoms: C_8  and  C_13
REMARK    4  A    between atoms: C_12  and  C_14
REMARK    5  A    between atoms: C_16  and  C_19
REMARK                            x       y       z     vdW  Elec       q    Type
REMARK                         _______ _______ _______ _____ _____    ______ ____
ROOT
ATOM      4  N   UNL     1      -3.242 -10.579  14.061  0.00  0.00    -0.284 NA
ATOM      8  C   UNL     1      -3.575 -11.321  15.295  0.00  0.00    +0.149 C 
ATOM      9  C   UNL     1      -2.461 -10.948  16.291  0.00  0.00    +0.061 C 
ATOM     10  C   UNL     1      -1.526 -10.031  15.512  0.00  0.00    +0.130 C 
ATOM     11  C   UNL     1      -1.792 -10.400  14.065  0.00  0.00    +0.116 C 
ENDROOT
BRANCH   8  13
ATOM      3  O   UNL     1      -5.405 -11.745  16.858  0.00  0.00    -0.336 OA
ATOM      5  N   UNL     1      -5.808 -10.088  15.406  0.00  0.00    -0.189 NA
ATOM      6  N   UNL     1      -6.687 -11.267  17.158  0.00  0.00    -0.054 NA
ATOM     13  C   UNL     1      -4.959 -10.996  15.816  0.00  0.00    +0.245 A 
ATOM     16  C   UNL     1      -6.852 -10.292  16.259  0.00  0.00    +0.220 A 
BRANCH  16  19
ATOM      7  N   UNL     1      -8.653  -9.464  14.979  0.00  0.00    -0.252 NA
ATOM     19  C   UNL     1      -8.049  -9.503  16.188  0.00  0.00    +0.111 A 
ATOM     20  C   UNL     1      -8.517  -8.841  17.311  0.00  0.00    +0.031 A 
ATOM     21  C   UNL     1      -9.681  -8.090  17.186  0.00  0.00    +0.004 A 
ATOM     22  C   UNL     1      -9.781  -8.723  14.896  0.00  0.00    +0.111 A 
ATOM     23  C   UNL     1     -10.330  -8.025  15.958  0.00  0.00    +0.020 A 
ENDBRANCH  16  19
ENDBRANCH   8  13
BRANCH  10   2
ATOM      2  O   UNL     1      -0.179 -10.262  15.875  0.00  0.00    -0.390 OA
ATOM     24  H   UNL     1      -0.178 -10.921  16.590  0.00  0.00    +0.210 HD
ENDBRANCH  10   2
BRANCH   4  12
ATOM     12  C   UNL     1      -3.710 -11.241  12.850  0.00  0.00    +0.127 C 
BRANCH  12  14
ATOM      1  S   UNL     1      -5.403  -9.372  11.678  0.00  0.00    -0.100 S 
ATOM     14  C   UNL     1      -3.941 -10.263  11.730  0.00  0.00    +0.004 A 
ATOM     15  C   UNL     1      -3.111  -9.955  10.676  0.00  0.00    +0.012 A 
ATOM     17  C   UNL     1      -3.681  -8.974   9.814  0.00  0.00    +0.008 A 
ATOM     18  C   UNL     1      -4.926  -8.570  10.243  0.00  0.00    +0.045 A 
ENDBRANCH  12  14
ENDBRANCH   4  12
TORSDOF 5
ENDMDL
MODEL 3
REMARK VINA RESULT:      -6.1     26.083     28.516
REMARK  Name = 26743682
REMARK  5 active torsions:
REMARK  status: ('A' for Active; 'I' for Inactive)
REMARK    1  A    between atoms: O_2  and  C_10
REMARK    2  A    between atoms: N_4  and  C_12
REMARK    3  A    between atoms: C_8  and  C_13
REMARK    4  A    between atoms: C_12  and  C_14
REMARK    5  A    between atoms: C_16  and  C_19
REMARK                            x       y       z     vdW  Elec       q    Type
REMARK                         _______ _______ _______ _____ _____    ______ ____
ROOT
ATOM      4  N   UNL     1      -3.544 -10.562  14.323  0.00  0.00    -0.284 NA
ATOM      8  C   UNL     1      -3.888 -11.246  15.587  0.00  0.00    +0.149 C 
ATOM      9  C   UNL     1      -2.684 -10.992  16.513  0.00  0.00    +0.061 C 
ATOM     10  C   UNL     1      -1.697 -10.198  15.667  0.00  0.00    +0.130 C 
ATOM     11  C   UNL     1      -2.085 -10.551  14.244  0.00  0.00    +0.116 C 
ENDROOT
BRANCH   8  13
ATOM      3  O   UNL     1      -5.613  -9.525  15.784  0.00  0.00    -0.336 OA
ATOM      5  N   UNL     1      -5.995 -11.349  17.027  0.00  0.00    -0.189 NA
ATOM      6  N   UNL     1      -6.822  -9.295  16.453  0.00  0.00    -0.054 NA
ATOM     13  C   UNL     1      -5.195 -10.756  16.177  0.00  0.00    +0.245 A 
ATOM     16  C   UNL     1      -6.979 -10.414  17.165  0.00  0.00    +0.220 A 
BRANCH  16  19
ATOM      7  N   UNL     1      -7.974 -11.629  18.926  0.00  0.00    -0.252 NA
ATOM     19  C   UNL     1      -8.108 -10.631  18.024  0.00  0.00    +0.111 A 
ATOM     20  C   UNL     1      -9.241  -9.843  17.900  0.00  0.00    +0.031 A 
ATOM     21  C   UNL     1     -10.306 -10.096  18.758  0.00  0.00    +0.004 A 
ATOM     22  C   UNL     1      -9.031 -11.846  19.742  0.00  0.00    +0.111 A 
ATOM     23  C   UNL     1     -10.207 -11.115  19.698  0.00  0.00    +0.020 A 
ENDBRANCH  16  19
ENDBRANCH   8  13
BRANCH  10   2
ATOM      2  O   UNL     1      -0.366 -10.579  15.959  0.00  0.00    -0.390 OA
ATOM     24  H   UNL     1      -0.330 -10.813  16.902  0.00  0.00    +0.210 HD
ENDBRANCH  10   2
BRANCH   4  12
ATOM     12  C   UNL     1      -4.153 -11.180  13.153  0.00  0.00    +0.127 C 
BRANCH  12  14
ATOM      1  S   UNL     1      -5.649  -9.231  11.849  0.00  0.00    -0.100 S 
ATOM     14  C   UNL     1      -4.257 -10.217  12.001  0.00  0.00    +0.004 A 
ATOM     15  C   UNL     1      -3.352  -9.993  10.986  0.00  0.00    +0.012 A 
ATOM     17  C   UNL     1      -3.808  -8.998  10.074  0.00  0.00    +0.008 A 
ATOM     18  C   UNL     1      -5.043  -8.499  10.425  0.00  0.00    +0.045 A 
ENDBRANCH  12  14
ENDBRANCH   4  12
TORSDOF 5
ENDMDL
MODEL 4
REMARK VINA RESULT:      -5.9     26.459     28.455
REMARK  Name = 26743682
REMARK  5 active torsions:
REMARK  status: ('A' for Active; 'I' for Inactive)
REMARK    1  A    between atoms: O_2  and  C_10
REMARK    2  A    between atoms: N_4  and  C_12
REMARK    3  A    between atoms: C_8  and  C_13
REMARK    4  A    between atoms: C_12  and  C_14
REMARK    5  A    between atoms: C_16  and  C_19
REMARK                            x       y       z     vdW  Elec       q    Type
REMARK                         _______ _______ _______ _____ _____    ______ ____
ROOT
ATOM      4  N   UNL     1      -7.212 -10.758  17.470  0.00  0.00    -0.284 NA
ATOM      8  C   UNL     1      -5.853 -11.128  17.915  0.00  0.00    +0.149 C 
ATOM      9  C   UNL     1      -5.990 -12.567  18.446  0.00  0.00    +0.061 C 
ATOM     10  C   UNL     1      -7.470 -12.901  18.301  0.00  0.00    +0.130 C 
ATOM     11  C   UNL     1      -8.140 -11.541  18.283  0.00  0.00    +0.116 C 
ENDROOT
BRANCH   8  13
ATOM      3  O   UNL     1      -3.526 -11.178  17.169  0.00  0.00    -0.336 OA
ATOM      5  N   UNL     1      -5.000 -10.758  15.536  0.00  0.00    -0.189 NA
ATOM      6  N   UNL     1      -2.775 -11.022  15.997  0.00  0.00    -0.054 NA
ATOM     13  C   UNL     1      -4.825 -11.008  16.809  0.00  0.00    +0.245 A 
ATOM     16  C   UNL     1      -3.715 -10.777  15.080  0.00  0.00    +0.220 A 
BRANCH  16  19
ATOM      7  N   UNL     1      -4.464 -10.354  12.883  0.00  0.00    -0.252 NA
ATOM     19  C   UNL     1      -3.403 -10.547  13.698  0.00  0.00    +0.111 A 
ATOM     20  C   UNL     1      -2.085 -10.534  13.272  0.00  0.00    +0.031 A 
ATOM     21  C   UNL     1      -1.840 -10.307  11.921  0.00  0.00    +0.004 A 
ATOM     22  C   UNL     1      -4.187 -10.138  11.577  0.00  0.00    +0.111 A 
ATOM     23  C   UNL     1      -2.905 -10.105  11.052  0.00  0.00    +0.020 A 
ENDBRANCH  16  19
ENDBRANCH   8  13
BRANCH  10   2
ATOM      2  O   UNL     1      -7.914 -13.693  19.386  0.00  0.00    -0.390 OA
ATOM     24  H   UNL     1      -8.387 -13.107  20.000  0.00  0.00    +0.210 HD
ENDBRANCH  10   2
BRANCH   4  12
ATOM     12  C   UNL     1      -7.476  -9.328  17.560  0.00  0.00    +0.127 C 
BRANCH  12  14
ATOM      1  S   UNL     1      -8.897  -9.528  15.178  0.00  0.00    -0.100 S 
ATOM     14  C   UNL     1      -8.694  -8.931  16.770  0.00  0.00    +0.004 A 
ATOM     15  C   UNL     1      -9.733  -8.112  17.151  0.00  0.00    +0.012 A 
ATOM     17  C   UNL     1     -10.709  -7.973  16.123  0.00  0.00    +0.008 A 
ATOM     18  C   UNL     1     -10.379  -8.691  14.995  0.00  0.00    +0.045 A 
ENDBRANCH  12  14
ENDBRANCH   4  12
TORSDOF 5
ENDMDL
MODEL 5
REMARK VINA RESULT:      -5.9     25.693     28.437
REMARK  Name = 26743682
REMARK  5 active torsions:
REMARK  status: ('A' for Active; 'I' for Inactive)
REMARK    1  A    between atoms: O_2  and  C_10
REMARK    2  A    between atoms: N_4  and  C_12
REMARK    3  A    between atoms: C_8  and  C_13
REMARK    4  A    between atoms: C_12  and  C_14
REMARK    5  A    between atoms: C_16  and  C_19
REMARK                            x       y       z     vdW  Elec       q    Type
REMARK                         _______ _______ _______ _____ _____    ______ ____
ROOT
ATOM      4  N   UNL     1     -11.838   9.643  20.436  0.00  0.00    -0.284 NA
ATOM      8  C   UNL     1     -12.369   8.496  19.672  0.00  0.00    +0.149 C 
ATOM      9  C   UNL     1     -11.243   8.120  18.691  0.00  0.00    +0.061 C 
ATOM     10  C   UNL     1     -10.141   9.141  18.946  0.00  0.00    +0.130 C 
ATOM     11  C   UNL     1     -10.880  10.315  19.560  0.00  0.00    +0.116 C 
ENDROOT
BRANCH   8  13
ATOM      3  O   UNL     1     -11.780   6.528  20.997  0.00  0.00    -0.336 OA
ATOM      5  N   UNL     1     -13.969   6.999  20.984  0.00  0.00    -0.189 NA
ATOM      6  N   UNL     1     -12.393   5.551  21.791  0.00  0.00    -0.054 NA
ATOM     13  C   UNL     1     -12.778   7.341  20.563  0.00  0.00    +0.245 A 
ATOM     16  C   UNL     1     -13.683   5.896  21.733  0.00  0.00    +0.220 A 
BRANCH  16  19
ATOM      7  N   UNL     1     -15.848   4.960  21.714  0.00  0.00    -0.252 NA
ATOM     19  C   UNL     1     -14.710   5.161  22.415  0.00  0.00    +0.111 A 
ATOM     20  C   UNL     1     -14.503   4.706  23.707  0.00  0.00    +0.031 A 
ATOM     21  C   UNL     1     -15.532   3.999  24.320  0.00  0.00    +0.004 A 
ATOM     22  C   UNL     1     -16.826   4.269  22.343  0.00  0.00    +0.111 A 
ATOM     23  C   UNL     1     -16.718   3.772  23.632  0.00  0.00    +0.020 A 
ENDBRANCH  16  19
ENDBRANCH   8  13
BRANCH  10   2
ATOM      2  O   UNL     1      -9.498   9.498  17.738  0.00  0.00    -0.390 OA
ATOM     24  H   UNL     1      -8.545   9.343  17.858  0.00  0.00    +0.210 HD
ENDBRANCH  10   2
BRANCH   4  12
ATOM     12  C   UNL     1     -12.877  10.548  20.909  0.00  0.00    +0.127 C 
BRANCH  12  14
ATOM      1  S   UNL     1     -14.134   9.831  23.284  0.00  0.00    -0.100 S 
ATOM     14  C   UNL     1     -12.902  10.638  22.411  0.00  0.00    +0.004 A 
ATOM     15  C   UNL     1     -12.035  11.311  23.243  0.00  0.00    +0.012 A 
ATOM     17  C   UNL     1     -12.387  11.162  24.616  0.00  0.00    +0.008 A 
ATOM     18  C   UNL     1     -13.509  10.380  24.780  0.00  0.00    +0.045 A 
ENDBRANCH  12  14
ENDBRANCH   4  12
TORSDOF 5
ENDMDL
MODEL 6
REMARK VINA RESULT:      -5.6     31.442     32.558
REMARK  Name = 26743682
REMARK  5 active torsions:
REMARK  status: ('A' for Active; 'I' for Inactive)
REMARK    1  A    between atoms: O_2  and  C_10
REMARK    2  A    between atoms: N_4  and  C_12
REMARK    3  A    between atoms: C_8  and  C_13
REMARK    4  A    between atoms: C_12  and  C_14
REMARK    5  A    between atoms: C_16  and  C_19
REMARK                            x       y       z     vdW  Elec       q    Type
REMARK                         _______ _______ _______ _____ _____    ______ ____
ROOT
ATOM      4  N   UNL     1     -15.361   1.519  29.558  0.00  0.00    -0.284 NA
ATOM      8  C   UNL     1     -15.380   1.425  31.032  0.00  0.00    +0.149 C 
ATOM      9  C   UNL     1     -14.204   0.495  31.383  0.00  0.00    +0.061 C 
ATOM     10  C   UNL     1     -13.614   0.081  30.040  0.00  0.00    +0.130 C 
ATOM     11  C   UNL     1     -14.766   0.276  29.072  0.00  0.00    +0.116 C 
ENDROOT
BRANCH   8  13
ATOM      3  O   UNL     1     -15.623   2.831  33.016  0.00  0.00    -0.336 OA
ATOM      5  N   UNL     1     -14.899   3.928  31.202  0.00  0.00    -0.189 NA
ATOM      6  N   UNL     1     -15.449   4.164  33.410  0.00  0.00    -0.054 NA
ATOM     13  C   UNL     1     -15.276   2.779  31.704  0.00  0.00    +0.245 A 
ATOM     16  C   UNL     1     -15.022   4.747  32.286  0.00  0.00    +0.220 A 
BRANCH  16  19
ATOM      7  N   UNL     1     -15.608   6.914  31.562  0.00  0.00    -0.252 NA
ATOM     19  C   UNL     1     -14.707   6.145  32.213  0.00  0.00    +0.111 A 
ATOM     20  C   UNL     1     -13.543   6.630  32.787  0.00  0.00    +0.031 A 
ATOM     21  C   UNL     1     -13.287   7.993  32.687  0.00  0.00    +0.004 A 
ATOM     22  C   UNL     1     -15.324   8.234  31.485  0.00  0.00    +0.111 A 
ATOM     23  C   UNL     1     -14.190   8.817  32.025  0.00  0.00    +0.020 A 
ENDBRANCH  16  19
ENDBRANCH   8  13
BRANCH  10   2
ATOM      2  O   UNL     1     -13.179  -1.264  30.076  0.00  0.00    -0.390 OA
ATOM     24  H   UNL     1     -12.759  -1.458  29.222  0.00  0.00    +0.210 HD
ENDBRANCH  10   2
BRANCH   4  12
ATOM     12  C   UNL     1     -16.677   1.760  28.981  0.00  0.00    +0.127 C 
BRANCH  12  14
ATOM      1  S   UNL     1     -17.196   1.050  26.342  0.00  0.00    -0.100 S 
ATOM     14  C   UNL     1     -16.592   2.131  27.524  0.00  0.00    +0.004 A 
ATOM     15  C   UNL     1     -16.070   3.274  26.961  0.00  0.00    +0.012 A 
ATOM     17  C   UNL     1     -16.168   3.263  25.539  0.00  0.00    +0.008 A 
ATOM     18  C   UNL     1     -16.761   2.111  25.071  0.00  0.00    +0.045 A 
ENDBRANCH  12  14
ENDBRANCH   4  12
TORSDOF 5
ENDMDL
MODEL 7
REMARK VINA RESULT:      -5.6     26.740     28.284
REMARK  Name = 26743682
REMARK  5 active torsions:
REMARK  status: ('A' for Active; 'I' for Inactive)
REMARK    1  A    between atoms: O_2  and  C_10
REMARK    2  A    between atoms: N_4  and  C_12
REMARK    3  A    between atoms: C_8  and  C_13
REMARK    4  A    between atoms: C_12  and  C_14
REMARK    5  A    between atoms: C_16  and  C_19
REMARK                            x       y       z     vdW  Elec       q    Type
REMARK                         _______ _______ _______ _____ _____    ______ ____
ROOT
ATOM      4  N   UNL     1      -4.127 -11.441  10.485  0.00  0.00    -0.284 NA
ATOM      8  C   UNL     1      -3.091 -10.566  11.072  0.00  0.00    +0.149 C 
ATOM      9  C   UNL     1      -3.376  -9.170  10.487  0.00  0.00    +0.061 C 
ATOM     10  C   UNL     1      -4.560  -9.370   9.549  0.00  0.00    +0.130 C 
ATOM     11  C   UNL     1      -4.492 -10.845   9.201  0.00  0.00    +0.116 C 
ENDROOT
BRANCH   8  13
ATOM      3  O   UNL     1      -1.895 -10.582  13.203  0.00  0.00    -0.336 OA
ATOM      5  N   UNL     1      -4.125 -10.595  13.406  0.00  0.00    -0.189 NA
ATOM      6  N   UNL     1      -2.161 -10.597  14.578  0.00  0.00    -0.054 NA
ATOM     13  C   UNL     1      -3.105 -10.580  12.586  0.00  0.00    +0.245 A 
ATOM     16  C   UNL     1      -3.496 -10.604  14.617  0.00  0.00    +0.220 A 
BRANCH  16  19
ATOM      7  N   UNL     1      -5.440 -10.012  15.815  0.00  0.00    -0.252 NA
ATOM     19  C   UNL     1      -4.233 -10.619  15.848  0.00  0.00    +0.111 A 
ATOM     20  C   UNL     1      -3.701 -11.229  16.973  0.00  0.00    +0.031 A 
ATOM     21  C   UNL     1      -4.458 -11.214  18.140  0.00  0.00    +0.004 A 
ATOM     22  C   UNL     1      -6.146 -10.017  16.969  0.00  0.00    +0.111 A 
ATOM     23  C   UNL     1      -5.704 -10.599  18.146  0.00  0.00    +0.020 A 
ENDBRANCH  16  19
ENDBRANCH   8  13
BRANCH  10   2
ATOM      2  O   UNL     1      -4.434  -8.553   8.401  0.00  0.00    -0.390 OA
ATOM     24  H   UNL     1      -3.485  -8.403   8.251  0.00  0.00    +0.210 HD
ENDBRANCH  10   2
BRANCH   4  12
ATOM     12  C   UNL     1      -3.696 -12.825  10.344  0.00  0.00    +0.127 C 
BRANCH  12  14
ATOM      1  S   UNL     1      -2.899 -14.377  12.511  0.00  0.00    -0.100 S 
ATOM     14  C   UNL     1      -4.105 -13.662  11.527  0.00  0.00    +0.004 A 
ATOM     15  C   UNL     1      -5.375 -13.963  11.967  0.00  0.00    +0.012 A 
ATOM     17  C   UNL     1      -5.358 -14.789  13.127  0.00  0.00    +0.008 A 
ATOM     18  C   UNL     1      -4.075 -15.090  13.530  0.00  0.00    +0.045 A 
ENDBRANCH  12  14
ENDBRANCH   4  12
TORSDOF 5
ENDMDL
MODEL 8
REMARK VINA RESULT:      -5.6     30.256     31.443
REMARK  Name = 26743682
REMARK  5 active torsions:
REMARK  status: ('A' for Active; 'I' for Inactive)
REMARK    1  A    between atoms: O_2  and  C_10
REMARK    2  A    between atoms: N_4  and  C_12
REMARK    3  A    between atoms: C_8  and  C_13
REMARK    4  A    between atoms: C_12  and  C_14
REMARK    5  A    between atoms: C_16  and  C_19
REMARK                            x       y       z     vdW  Elec       q    Type
REMARK                         _______ _______ _______ _____ _____    ______ ____
ROOT
ATOM      4  N   UNL     1     -13.219  -3.881  11.039  0.00  0.00    -0.284 NA
ATOM      8  C   UNL     1     -13.503  -3.583  12.457  0.00  0.00    +0.149 C 
ATOM      9  C   UNL     1     -14.993  -3.193  12.487  0.00  0.00    +0.061 C 
ATOM     10  C   UNL     1     -15.446  -3.256  11.034  0.00  0.00    +0.130 C 
ATOM     11  C   UNL     1     -14.158  -3.083  10.253  0.00  0.00    +0.116 C 
ENDROOT
BRANCH   8  13
ATOM      3  O   UNL     1     -14.246  -5.431  13.875  0.00  0.00    -0.336 OA
ATOM      5  N   UNL     1     -12.021  -5.201  13.763  0.00  0.00    -0.189 NA
ATOM      6  N   UNL     1     -13.708  -6.444  14.679  0.00  0.00    -0.054 NA
ATOM     13  C   UNL     1     -13.184  -4.747  13.373  0.00  0.00    +0.245 A 
ATOM     16  C   UNL     1     -12.393  -6.241  14.563  0.00  0.00    +0.220 A 
BRANCH  16  19
ATOM      7  N   UNL     1     -10.954  -8.111  14.517  0.00  0.00    -0.252 NA
ATOM     19  C   UNL     1     -11.424  -7.063  15.231  0.00  0.00    +0.111 A 
ATOM     20  C   UNL     1     -11.025  -6.762  16.522  0.00  0.00    +0.031 A 
ATOM     21  C   UNL     1     -10.083  -7.591  17.123  0.00  0.00    +0.004 A 
ATOM     22  C   UNL     1     -10.040  -8.894  15.134  0.00  0.00    +0.111 A 
ATOM     23  C   UNL     1      -9.577  -8.679  16.421  0.00  0.00    +0.020 A 
ENDBRANCH  16  19
ENDBRANCH   8  13
BRANCH  10   2
ATOM      2  O   UNL     1     -16.375  -2.227  10.753  0.00  0.00    -0.390 OA
ATOM     24  H   UNL     1     -16.777  -2.425   9.890  0.00  0.00    +0.210 HD
ENDBRANCH  10   2
BRANCH   4  12
ATOM     12  C   UNL     1     -11.834  -3.624  10.665  0.00  0.00    +0.127 C 
BRANCH  12  14
ATOM      1  S   UNL     1     -11.874  -6.324   9.996  0.00  0.00    -0.100 S 
ATOM     14  C   UNL     1     -11.267  -4.732   9.818  0.00  0.00    +0.004 A 
ATOM     15  C   UNL     1     -10.275  -4.661   8.866  0.00  0.00    +0.012 A 
ATOM     17  C   UNL     1     -10.010  -5.929   8.274  0.00  0.00    +0.008 A 
ATOM     18  C   UNL     1     -10.810  -6.922   8.796  0.00  0.00    +0.045 A 
ENDBRANCH  12  14
ENDBRANCH   4  12
TORSDOF 5
ENDMDL
MODEL 9
REMARK VINA RESULT:      -5.5     17.248     20.534
REMARK  Name = 26743682
REMARK  5 active torsions:
REMARK  status: ('A' for Active; 'I' for Inactive)
REMARK    1  A    between atoms: O_2  and  C_10
REMARK    2  A    between atoms: N_4  and  C_12
REMARK    3  A    between atoms: C_8  and  C_13
REMARK    4  A    between atoms: C_12  and  C_14
REMARK    5  A    between atoms: C_16  and  C_19
REMARK                            x       y       z     vdW  Elec       q    Type
REMARK                         _______ _______ _______ _____ _____    ______ ____
ROOT
ATOM      4  N   UNL     1      13.462   3.967  -0.520  0.00  0.00    -0.284 NA
ATOM      8  C   UNL     1      13.654   3.754   0.929  0.00  0.00    +0.149 C 
ATOM      9  C   UNL     1      14.925   4.551   1.279  0.00  0.00    +0.061 C 
ATOM     10  C   UNL     1      15.400   5.138  -0.044  0.00  0.00    +0.130 C 
ATOM     11  C   UNL     1      14.789   4.214  -1.081  0.00  0.00    +0.116 C 
ENDROOT
BRANCH   8  13
ATOM      3  O   UNL     1      11.843   3.212   2.478  0.00  0.00    -0.336 OA
ATOM      5  N   UNL     1      11.899   5.362   1.853  0.00  0.00    -0.189 NA
ATOM      6  N   UNL     1      10.775   3.837   3.135  0.00  0.00    -0.054 NA
ATOM     13  C   UNL     1      12.452   4.181   1.745  0.00  0.00    +0.245 A 
ATOM     16  C   UNL     1      10.875   5.101   2.716  0.00  0.00    +0.220 A 
BRANCH  16  19
ATOM      7  N   UNL     1       9.580   6.068   4.435  0.00  0.00    -0.252 NA
ATOM     19  C   UNL     1       9.968   6.129   3.141  0.00  0.00    +0.111 A 
ATOM     20  C   UNL     1       9.544   7.100   2.249  0.00  0.00    +0.031 A 
ATOM     21  C   UNL     1       8.665   8.072   2.714  0.00  0.00    +0.004 A 
ATOM     22  C   UNL     1       8.725   7.029   4.851  0.00  0.00    +0.111 A 
ATOM     23  C   UNL     1       8.243   8.042   4.038  0.00  0.00    +0.020 A 
ENDBRANCH  16  19
ENDBRANCH   8  13
BRANCH  10   2
ATOM      2  O   UNL     1      16.812   5.144  -0.112  0.00  0.00    -0.390 OA
ATOM     24  H   UNL     1      17.126   5.908   0.401  0.00  0.00    +0.210 HD
ENDBRANCH  10   2
BRANCH   4  12
ATOM     12  C   UNL     1      12.787   2.857  -1.179  0.00  0.00    +0.127 C 
BRANCH  12  14
ATOM      1  S   UNL     1      10.969   4.891  -1.719  0.00  0.00    -0.100 S 
ATOM     14  C   UNL     1      11.595   3.318  -1.975  0.00  0.00    +0.004 A 
ATOM     15  C   UNL     1      10.887   2.629  -2.934  0.00  0.00    +0.012 A 
ATOM     17  C   UNL     1       9.816   3.404  -3.467  0.00  0.00    +0.008 A 
ATOM     18  C   UNL     1       9.747   4.655  -2.895  0.00  0.00    +0.045 A 
ENDBRANCH  12  14
ENDBRANCH   4  12
TORSDOF 5
ENDMDL
MODEL 10
REMARK VINA RESULT:      -5.4     13.260     16.698
REMARK  Name = 26743682
REMARK  5 active torsions:
REMARK  status: ('A' for Active; 'I' for Inactive)
REMARK    1  A    between atoms: O_2  and  C_10
REMARK    2  A    between atoms: N_4  and  C_12
REMARK    3  A    between atoms: C_8  and  C_13
REMARK    4  A    between atoms: C_12  and  C_14
REMARK    5  A    between atoms: C_16  and  C_19
REMARK                            x       y       z     vdW  Elec       q    Type
REMARK                         _______ _______ _______ _____ _____    ______ ____
ROOT
ATOM      4  N   UNL     1      10.492   7.120   7.048  0.00  0.00    -0.284 NA
ATOM      8  C   UNL     1      10.435   6.457   5.730  0.00  0.00    +0.149 C 
ATOM      9  C   UNL     1       9.961   5.023   6.030  0.00  0.00    +0.061 C 
ATOM     10  C   UNL     1       9.823   4.962   7.546  0.00  0.00    +0.130 C 
ATOM     11  C   UNL     1      10.743   6.067   8.030  0.00  0.00    +0.116 C 
ENDROOT
BRANCH   8  13
ATOM      3  O   UNL     1       9.714   6.896   3.436  0.00  0.00    -0.336 OA
ATOM      5  N   UNL     1       8.586   8.054   4.986  0.00  0.00    -0.189 NA
ATOM      6  N   UNL     1       8.780   7.673   2.739  0.00  0.00    -0.054 NA
ATOM     13  C   UNL     1       9.532   7.180   4.752  0.00  0.00    +0.245 A 
ATOM     16  C   UNL     1       8.154   8.327   3.721  0.00  0.00    +0.220 A 
BRANCH  16  19
ATOM      7  N   UNL     1       6.611   9.901   4.562  0.00  0.00    -0.252 NA
ATOM     19  C   UNL     1       7.092   9.260   3.473  0.00  0.00    +0.111 A 
ATOM     20  C   UNL     1       6.623   9.458   2.186  0.00  0.00    +0.031 A 
ATOM     21  C   UNL     1       5.592  10.373   2.002  0.00  0.00    +0.004 A 
ATOM     22  C   UNL     1       5.609  10.783   4.344  0.00  0.00    +0.111 A 
ATOM     23  C   UNL     1       5.070  11.052   3.097  0.00  0.00    +0.020 A 
ENDBRANCH  16  19
ENDBRANCH   8  13
BRANCH  10   2
ATOM      2  O   UNL     1      10.219   3.696   8.035  0.00  0.00    -0.390 OA
ATOM     24  H   UNL     1      10.195   3.737   9.007  0.00  0.00    +0.210 HD
ENDBRANCH  10   2
BRANCH   4  12
ATOM     12  C   UNL     1      11.488   8.181   7.115  0.00  0.00    +0.127 C 
BRANCH  12  14
ATOM      1  S   UNL     1      11.953  10.792   7.954  0.00  0.00    -0.100 S 
ATOM     14  C   UNL     1      10.929   9.439   7.724  0.00  0.00    +0.004 A 
ATOM     15  C   UNL     1       9.643   9.685   8.153  0.00  0.00    +0.012 A 
ATOM     17  C   UNL     1       9.497  11.002   8.677  0.00  0.00    +0.008 A 
ATOM     18  C   UNL     1      10.676  11.712   8.628  0.00  0.00    +0.045 A 
ENDBRANCH  12  14
ENDBRANCH   4  12
TORSDOF 5
ENDMDL
