MODEL 1
REMARK VINA RESULT:      -6.4      0.000      0.000
REMARK  Name = 71694125
REMARK  3 active torsions:
REMARK  status: ('A' for Active; 'I' for Inactive)
REMARK    1  A    between atoms: N_4  and  C_7
REMARK    2  A    between atoms: C_11  and  C_15
REMARK    3  A    between atoms: C_16  and  C_18
REMARK                            x       y       z     vdW  Elec       q    Type
REMARK                         _______ _______ _______ _____ _____    ______ ____
ROOT
ATOM      5  N   UNL     1      12.716   9.450  21.988  0.00  0.00    -0.340 N 
ATOM      6  N   UNL     1      11.477   7.609  21.943  0.00  0.00    -0.238 NA
ATOM     15  C   UNL     1      12.639   8.135  21.626  0.00  0.00    +0.127 A 
ATOM     16  C   UNL     1      11.527   9.785  22.572  0.00  0.00    +0.073 A 
ATOM     17  C   UNL     1      10.778   8.633  22.532  0.00  0.00    +0.139 A 
ATOM     22  H   UNL     1      13.509  10.063  21.849  0.00  0.00    +0.167 HD
ENDROOT
BRANCH  16  18
ATOM      1 CL   UNL     1      10.521  14.029  25.876  0.00  0.00    -0.076 Cl
ATOM      2  S   UNL     1      11.136  11.346  24.764  0.00  0.00    -0.075 S 
ATOM     18  C   UNL     1      11.233  11.071  23.077  0.00  0.00    +0.038 A 
ATOM     19  C   UNL     1      10.995  12.218  22.352  0.00  0.00    +0.019 A 
ATOM     20  C   UNL     1      10.730  13.337  23.192  0.00  0.00    +0.028 A 
ATOM     21  C   UNL     1      10.775  13.003  24.528  0.00  0.00    +0.079 A 
ENDBRANCH  16  18
BRANCH  15  11
ATOM      3  O   UNL     1      16.105   6.698  21.327  0.00  0.00    -0.377 OA
ATOM      4  N   UNL     1      14.223   8.078  19.674  0.00  0.00    -0.286 NA
ATOM     11  C   UNL     1      13.803   7.432  20.944  0.00  0.00    +0.149 C 
ATOM     12  C   UNL     1      15.412   7.405  19.126  0.00  0.00    +0.113 C 
ATOM     13  C   UNL     1      14.996   7.373  21.920  0.00  0.00    +0.186 C 
ATOM     14  C   UNL     1      16.537   7.383  20.152  0.00  0.00    +0.175 C 
BRANCH   4   7
ATOM      7  C   UNL     1      13.162   7.997  18.681  0.00  0.00    +0.058 C 
ATOM      8  C   UNL     1      13.787   7.831  17.279  0.00  0.00    +0.019 C 
ATOM      9  C   UNL     1      12.754   9.423  18.252  0.00  0.00    +0.019 C 
ATOM     10  C   UNL     1      12.775   8.897  16.798  0.00  0.00    +0.003 C 
ENDBRANCH   4   7
ENDBRANCH  15  11
TORSDOF 3
ENDMDL
MODEL 2
REMARK VINA RESULT:      -6.1      4.735      7.344
REMARK  Name = 71694125
REMARK  3 active torsions:
REMARK  status: ('A' for Active; 'I' for Inactive)
REMARK    1  A    between atoms: N_4  and  C_7
REMARK    2  A    between atoms: C_11  and  C_15
REMARK    3  A    between atoms: C_16  and  C_18
REMARK                            x       y       z     vdW  Elec       q    Type
REMARK                         _______ _______ _______ _____ _____    ______ ____
ROOT
ATOM      5  N   UNL     1      16.228   6.898  19.702  0.00  0.00    -0.340 N 
ATOM      6  N   UNL     1      15.556   8.831  20.563  0.00  0.00    -0.238 NA
ATOM     15  C   UNL     1      15.238   7.838  19.763  0.00  0.00    +0.127 A 
ATOM     16  C   UNL     1      17.243   7.318  20.515  0.00  0.00    +0.073 A 
ATOM     17  C   UNL     1      16.805   8.513  21.035  0.00  0.00    +0.139 A 
ATOM     22  H   UNL     1      16.211   6.047  19.155  0.00  0.00    +0.167 HD
ENDROOT
BRANCH  16  18
ATOM      1 CL   UNL     1      22.050   5.539  22.431  0.00  0.00    -0.076 Cl
ATOM      2  S   UNL     1      19.514   7.016  21.980  0.00  0.00    -0.075 S 
ATOM     18  C   UNL     1      18.444   6.600  20.710  0.00  0.00    +0.038 A 
ATOM     19  C   UNL     1      18.909   5.537  19.969  0.00  0.00    +0.019 A 
ATOM     20  C   UNL     1      20.161   5.056  20.450  0.00  0.00    +0.028 A 
ATOM     21  C   UNL     1      20.604   5.772  21.540  0.00  0.00    +0.079 A 
ENDBRANCH  16  18
BRANCH  15  11
ATOM      3  O   UNL     1      13.050   7.826  16.700  0.00  0.00    -0.377 OA
ATOM      4  N   UNL     1      12.843   8.543  19.460  0.00  0.00    -0.286 NA
ATOM     11  C   UNL     1      13.948   7.681  18.970  0.00  0.00    +0.149 C 
ATOM     12  C   UNL     1      11.665   8.411  18.587  0.00  0.00    +0.113 C 
ATOM     13  C   UNL     1      14.231   7.986  17.485  0.00  0.00    +0.186 C 
ATOM     14  C   UNL     1      12.031   8.720  17.142  0.00  0.00    +0.175 C 
BRANCH   4   7
ATOM      7  C   UNL     1      12.451   8.158  20.808  0.00  0.00    +0.058 C 
ATOM      8  C   UNL     1      12.026   6.673  20.811  0.00  0.00    +0.019 C 
ATOM      9  C   UNL     1      10.963   8.508  21.025  0.00  0.00    +0.019 C 
ATOM     10  C   UNL     1      10.818   7.111  21.671  0.00  0.00    +0.003 C 
ENDBRANCH   4   7
ENDBRANCH  15  11
TORSDOF 3
ENDMDL
MODEL 3
REMARK VINA RESULT:      -5.8      3.880      6.130
REMARK  Name = 71694125
REMARK  3 active torsions:
REMARK  status: ('A' for Active; 'I' for Inactive)
REMARK    1  A    between atoms: N_4  and  C_7
REMARK    2  A    between atoms: C_11  and  C_15
REMARK    3  A    between atoms: C_16  and  C_18
REMARK                            x       y       z     vdW  Elec       q    Type
REMARK                         _______ _______ _______ _____ _____    ______ ____
ROOT
ATOM      5  N   UNL     1      15.833   8.360  20.114  0.00  0.00    -0.340 N 
ATOM      6  N   UNL     1      15.523   6.203  20.539  0.00  0.00    -0.238 NA
ATOM     15  C   UNL     1      15.027   7.268  19.951  0.00  0.00    +0.127 A 
ATOM     16  C   UNL     1      16.912   7.965  20.854  0.00  0.00    +0.073 A 
ATOM     17  C   UNL     1      16.698   6.631  21.104  0.00  0.00    +0.139 A 
ATOM     22  H   UNL     1      15.661   9.289  19.752  0.00  0.00    +0.167 HD
ENDROOT
BRANCH  16  18
ATOM      1 CL   UNL     1      20.038  12.369  21.737  0.00  0.00    -0.076 Cl
ATOM      2  S   UNL     1      17.847  10.516  20.973  0.00  0.00    -0.075 S 
ATOM     18  C   UNL     1      17.968   8.827  21.226  0.00  0.00    +0.038 A 
ATOM     19  C   UNL     1      19.167   8.475  21.804  0.00  0.00    +0.019 A 
ATOM     20  C   UNL     1      19.998   9.606  22.044  0.00  0.00    +0.028 A 
ATOM     21  C   UNL     1      19.403  10.780  21.639  0.00  0.00    +0.079 A 
ENDBRANCH  16  18
BRANCH  15  11
ATOM      3  O   UNL     1      12.854   7.749  16.915  0.00  0.00    -0.377 OA
ATOM      4  N   UNL     1      12.773   8.356  19.708  0.00  0.00    -0.286 NA
ATOM     11  C   UNL     1      13.726   7.355  19.166  0.00  0.00    +0.149 C 
ATOM     12  C   UNL     1      11.585   8.454  18.843  0.00  0.00    +0.113 C 
ATOM     13  C   UNL     1      14.048   7.683  17.694  0.00  0.00    +0.186 C 
ATOM     14  C   UNL     1      11.991   8.771  17.410  0.00  0.00    +0.175 C 
BRANCH   4   7
ATOM      7  C   UNL     1      12.329   7.973  21.041  0.00  0.00    +0.058 C 
ATOM      8  C   UNL     1      11.666   6.580  20.977  0.00  0.00    +0.019 C 
ATOM      9  C   UNL     1      10.921   8.552  21.295  0.00  0.00    +0.019 C 
ATOM     10  C   UNL     1      10.551   7.166  21.873  0.00  0.00    +0.003 C 
ENDBRANCH   4   7
ENDBRANCH  15  11
TORSDOF 3
ENDMDL
MODEL 4
REMARK VINA RESULT:      -5.8      4.599      6.656
REMARK  Name = 71694125
REMARK  3 active torsions:
REMARK  status: ('A' for Active; 'I' for Inactive)
REMARK    1  A    between atoms: N_4  and  C_7
REMARK    2  A    between atoms: C_11  and  C_15
REMARK    3  A    between atoms: C_16  and  C_18
REMARK                            x       y       z     vdW  Elec       q    Type
REMARK                         _______ _______ _______ _____ _____    ______ ____
ROOT
ATOM      5  N   UNL     1      13.782   9.708  17.682  0.00  0.00    -0.340 N 
ATOM      6  N   UNL     1      13.544   7.848  16.493  0.00  0.00    -0.238 NA
ATOM     15  C   UNL     1      13.376   8.403  17.672  0.00  0.00    +0.127 A 
ATOM     16  C   UNL     1      14.238  10.004  16.428  0.00  0.00    +0.073 A 
ATOM     17  C   UNL     1      14.081   8.841  15.712  0.00  0.00    +0.139 A 
ATOM     22  H   UNL     1      13.749  10.339  18.472  0.00  0.00    +0.167 HD
ENDROOT
BRANCH  16  18
ATOM      1 CL   UNL     1      15.254  14.677  13.767  0.00  0.00    -0.076 Cl
ATOM      2  S   UNL     1      14.226  12.019  14.602  0.00  0.00    -0.075 S 
ATOM     18  C   UNL     1      14.741  11.269  16.052  0.00  0.00    +0.038 A 
ATOM     19  C   UNL     1      15.654  12.041  16.737  0.00  0.00    +0.019 A 
ATOM     20  C   UNL     1      15.934  13.263  16.062  0.00  0.00    +0.028 A 
ATOM     21  C   UNL     1      15.225  13.380  14.887  0.00  0.00    +0.079 A 
ENDBRANCH  16  18
BRANCH  15  11
ATOM      3  O   UNL     1      10.882   7.807  20.428  0.00  0.00    -0.377 OA
ATOM      4  N   UNL     1      13.721   7.795  20.088  0.00  0.00    -0.286 NA
ATOM     11  C   UNL     1      12.807   7.743  18.920  0.00  0.00    +0.149 C 
ATOM     12  C   UNL     1      13.065   7.229  21.278  0.00  0.00    +0.113 C 
ATOM     13  C   UNL     1      11.464   8.414  19.275  0.00  0.00    +0.186 C 
ATOM     14  C   UNL     1      11.748   7.940  21.554  0.00  0.00    +0.175 C 
BRANCH   4   7
ATOM      7  C   UNL     1      14.929   7.025  19.829  0.00  0.00    +0.058 C 
ATOM      8  C   UNL     1      15.386   6.339  21.136  0.00  0.00    +0.019 C 
ATOM      9  C   UNL     1      16.161   7.946  19.969  0.00  0.00    +0.019 C 
ATOM     10  C   UNL     1      16.816   6.802  20.776  0.00  0.00    +0.003 C 
ENDBRANCH   4   7
ENDBRANCH  15  11
TORSDOF 3
ENDMDL
MODEL 5
REMARK VINA RESULT:      -5.8     26.823     28.065
REMARK  Name = 71694125
REMARK  3 active torsions:
REMARK  status: ('A' for Active; 'I' for Inactive)
REMARK    1  A    between atoms: N_4  and  C_7
REMARK    2  A    between atoms: C_11  and  C_15
REMARK    3  A    between atoms: C_16  and  C_18
REMARK                            x       y       z     vdW  Elec       q    Type
REMARK                         _______ _______ _______ _____ _____    ______ ____
ROOT
ATOM      5  N   UNL     1      -4.115 -10.465  15.167  0.00  0.00    -0.340 N 
ATOM      6  N   UNL     1      -4.088 -12.597  15.786  0.00  0.00    -0.238 NA
ATOM     15  C   UNL     1      -4.330 -11.365  16.173  0.00  0.00    +0.127 A 
ATOM     16  C   UNL     1      -3.710 -11.168  14.068  0.00  0.00    +0.073 A 
ATOM     17  C   UNL     1      -3.700 -12.481  14.474  0.00  0.00    +0.139 A 
ATOM     22  H   UNL     1      -4.235  -9.462  15.226  0.00  0.00    +0.167 HD
ENDROOT
BRANCH  16  18
ATOM      1 CL   UNL     1      -4.020  -8.781   9.154  0.00  0.00    -0.076 Cl
ATOM      2  S   UNL     1      -4.633 -10.035  11.775  0.00  0.00    -0.075 S 
ATOM     18  C   UNL     1      -3.394 -10.574  12.826  0.00  0.00    +0.038 A 
ATOM     19  C   UNL     1      -2.139 -10.351  12.304  0.00  0.00    +0.019 A 
ATOM     20  C   UNL     1      -2.195  -9.730  11.023  0.00  0.00    +0.028 A 
ATOM     21  C   UNL     1      -3.491  -9.501  10.616  0.00  0.00    +0.079 A 
ENDBRANCH  16  18
BRANCH  15  11
ATOM      3  O   UNL     1      -4.638 -11.490  19.922  0.00  0.00    -0.377 OA
ATOM      4  N   UNL     1      -6.272 -10.819  17.674  0.00  0.00    -0.286 NA
ATOM     11  C   UNL     1      -4.796 -10.915  17.550  0.00  0.00    +0.149 C 
ATOM     12  C   UNL     1      -6.649 -10.476  19.056  0.00  0.00    +0.113 C 
ATOM     13  C   UNL     1      -4.244 -11.889  18.610  0.00  0.00    +0.186 C 
ATOM     14  C   UNL     1      -6.059 -11.480  20.037  0.00  0.00    +0.175 C 
BRANCH   4   7
ATOM      7  C   UNL     1      -6.795  -9.783  16.795  0.00  0.00    +0.058 C 
ATOM      8  C   UNL     1      -8.030  -9.131  17.453  0.00  0.00    +0.019 C 
ATOM      9  C   UNL     1      -7.765 -10.421  15.777  0.00  0.00    +0.019 C 
ATOM     10  C   UNL     1      -8.714  -9.236  16.071  0.00  0.00    +0.003 C 
ENDBRANCH   4   7
ENDBRANCH  15  11
TORSDOF 3
ENDMDL
MODEL 6
REMARK VINA RESULT:      -5.8      4.545      6.835
REMARK  Name = 71694125
REMARK  3 active torsions:
REMARK  status: ('A' for Active; 'I' for Inactive)
REMARK    1  A    between atoms: N_4  and  C_7
REMARK    2  A    between atoms: C_11  and  C_15
REMARK    3  A    between atoms: C_16  and  C_18
REMARK                            x       y       z     vdW  Elec       q    Type
REMARK                         _______ _______ _______ _____ _____    ______ ____
ROOT
ATOM      5  N   UNL     1      16.445   7.748  20.793  0.00  0.00    -0.340 N 
ATOM      6  N   UNL     1      15.510   6.306  19.386  0.00  0.00    -0.238 NA
ATOM     15  C   UNL     1      15.306   7.360  20.144  0.00  0.00    +0.127 A 
ATOM     16  C   UNL     1      17.439   6.885  20.425  0.00  0.00    +0.073 A 
ATOM     17  C   UNL     1      16.838   6.005  19.557  0.00  0.00    +0.139 A 
ATOM     22  H   UNL     1      16.535   8.530  21.428  0.00  0.00    +0.167 HD
ENDROOT
BRANCH  16  18
ATOM      1 CL   UNL     1      22.014   8.431  22.998  0.00  0.00    -0.076 Cl
ATOM      2  S   UNL     1      19.233   8.209  21.982  0.00  0.00    -0.075 S 
ATOM     18  C   UNL     1      18.769   6.970  20.895  0.00  0.00    +0.038 A 
ATOM     19  C   UNL     1      19.820   6.138  20.579  0.00  0.00    +0.019 A 
ATOM     20  C   UNL     1      21.023   6.522  21.238  0.00  0.00    +0.028 A 
ATOM     21  C   UNL     1      20.845   7.633  22.033  0.00  0.00    +0.079 A 
ENDBRANCH  16  18
BRANCH  15  11
ATOM      3  O   UNL     1      11.924   8.087  21.627  0.00  0.00    -0.377 OA
ATOM      4  N   UNL     1      13.208   8.246  19.078  0.00  0.00    -0.286 NA
ATOM     11  C   UNL     1      13.996   8.113  20.329  0.00  0.00    +0.149 C 
ATOM     12  C   UNL     1      11.915   8.894  19.353  0.00  0.00    +0.113 C 
ATOM     13  C   UNL     1      13.153   7.399  21.405  0.00  0.00    +0.186 C 
ATOM     14  C   UNL     1      11.152   8.133  20.429  0.00  0.00    +0.175 C 
BRANCH   4   7
ATOM      7  C   UNL     1      13.922   9.060  18.105  0.00  0.00    +0.058 C 
ATOM      8  C   UNL     1      12.930  10.027  17.423  0.00  0.00    +0.019 C 
ATOM      9  C   UNL     1      13.995   8.303  16.761  0.00  0.00    +0.019 C 
ATOM     10  C   UNL     1      13.604   9.639  16.087  0.00  0.00    +0.003 C 
ENDBRANCH   4   7
ENDBRANCH  15  11
TORSDOF 3
ENDMDL
MODEL 7
REMARK VINA RESULT:      -5.6     28.284     30.128
REMARK  Name = 71694125
REMARK  3 active torsions:
REMARK  status: ('A' for Active; 'I' for Inactive)
REMARK    1  A    between atoms: N_4  and  C_7
REMARK    2  A    between atoms: C_11  and  C_15
REMARK    3  A    between atoms: C_16  and  C_18
REMARK                            x       y       z     vdW  Elec       q    Type
REMARK                         _______ _______ _______ _____ _____    ______ ____
ROOT
ATOM      5  N   UNL     1     -15.770   4.035  26.370  0.00  0.00    -0.340 N 
ATOM      6  N   UNL     1     -16.637   2.006  26.617  0.00  0.00    -0.238 NA
ATOM     15  C   UNL     1     -16.230   3.088  27.241  0.00  0.00    +0.127 A 
ATOM     16  C   UNL     1     -15.891   3.523  25.108  0.00  0.00    +0.073 A 
ATOM     17  C   UNL     1     -16.428   2.271  25.286  0.00  0.00    +0.139 A 
ATOM     22  H   UNL     1     -15.407   4.947  26.614  0.00  0.00    +0.167 HD
ENDROOT
BRANCH  16  18
ATOM      1 CL   UNL     1     -15.920   5.986  20.221  0.00  0.00    -0.076 Cl
ATOM      2  S   UNL     1     -16.659   4.528  22.701  0.00  0.00    -0.075 S 
ATOM     18  C   UNL     1     -15.516   4.219  23.937  0.00  0.00    +0.038 A 
ATOM     19  C   UNL     1     -14.271   4.720  23.628  0.00  0.00    +0.019 A 
ATOM     20  C   UNL     1     -14.254   5.366  22.359  0.00  0.00    +0.028 A 
ATOM     21  C   UNL     1     -15.487   5.334  21.746  0.00  0.00    +0.079 A 
ENDBRANCH  16  18
BRANCH  15  11
ATOM      3  O   UNL     1     -16.605   5.088  30.408  0.00  0.00    -0.377 OA
ATOM      4  N   UNL     1     -14.964   2.970  29.411  0.00  0.00    -0.286 NA
ATOM     11  C   UNL     1     -16.239   3.334  28.743  0.00  0.00    +0.149 C 
ATOM     12  C   UNL     1     -15.013   3.327  30.839  0.00  0.00    +0.113 C 
ATOM     13  C   UNL     1     -16.562   4.819  29.008  0.00  0.00    +0.186 C 
ATOM     14  C   UNL     1     -15.345   4.803  31.011  0.00  0.00    +0.175 C 
BRANCH   4   7
ATOM      7  C   UNL     1     -14.724   1.537  29.313  0.00  0.00    +0.058 C 
ATOM      8  C   UNL     1     -15.857   0.779  30.038  0.00  0.00    +0.019 C 
ATOM      9  C   UNL     1     -13.793   1.096  30.463  0.00  0.00    +0.019 C 
ATOM     10  C   UNL     1     -14.751  -0.101  30.663  0.00  0.00    +0.003 C 
ENDBRANCH   4   7
ENDBRANCH  15  11
TORSDOF 3
ENDMDL
MODEL 8
REMARK VINA RESULT:      -5.6      4.250      6.993
REMARK  Name = 71694125
REMARK  3 active torsions:
REMARK  status: ('A' for Active; 'I' for Inactive)
REMARK    1  A    between atoms: N_4  and  C_7
REMARK    2  A    between atoms: C_11  and  C_15
REMARK    3  A    between atoms: C_16  and  C_18
REMARK                            x       y       z     vdW  Elec       q    Type
REMARK                         _______ _______ _______ _____ _____    ______ ____
ROOT
ATOM      5  N   UNL     1      16.162   8.242  20.210  0.00  0.00    -0.340 N 
ATOM      6  N   UNL     1      14.995   6.862  18.920  0.00  0.00    -0.238 NA
ATOM     15  C   UNL     1      15.005   8.035  19.512  0.00  0.00    +0.127 A 
ATOM     16  C   UNL     1      16.939   7.129  20.054  0.00  0.00    +0.073 A 
ATOM     17  C   UNL     1      16.198   6.291  19.255  0.00  0.00    +0.139 A 
ATOM     22  H   UNL     1      16.399   9.068  20.744  0.00  0.00    +0.167 HD
ENDROOT
BRANCH  16  18
ATOM      1 CL   UNL     1      21.491   7.840  23.006  0.00  0.00    -0.076 Cl
ATOM      2  S   UNL     1      18.810   8.118  21.761  0.00  0.00    -0.075 S 
ATOM     18  C   UNL     1      18.218   6.974  20.634  0.00  0.00    +0.038 A 
ATOM     19  C   UNL     1      19.121   5.960  20.403  0.00  0.00    +0.019 A 
ATOM     20  C   UNL     1      20.315   6.124  21.162  0.00  0.00    +0.028 A 
ATOM     21  C   UNL     1      20.279   7.258  21.943  0.00  0.00    +0.079 A 
ENDBRANCH  16  18
BRANCH  15  11
ATOM      3  O   UNL     1      13.480  11.405  18.812  0.00  0.00    -0.377 OA
ATOM      4  N   UNL     1      13.292   9.354  20.795  0.00  0.00    -0.286 NA
ATOM     11  C   UNL     1      13.907   9.088  19.471  0.00  0.00    +0.149 C 
ATOM     12  C   UNL     1      12.312  10.449  20.695  0.00  0.00    +0.113 C 
ATOM     13  C   UNL     1      14.486  10.395  18.891  0.00  0.00    +0.186 C 
ATOM     14  C   UNL     1      12.961  11.696  20.108  0.00  0.00    +0.175 C 
BRANCH   4   7
ATOM      7  C   UNL     1      12.597   8.173  21.285  0.00  0.00    +0.058 C 
ATOM      8  C   UNL     1      11.408   7.857  20.352  0.00  0.00    +0.019 C 
ATOM      9  C   UNL     1      11.558   8.595  22.347  0.00  0.00    +0.019 C 
ATOM     10  C   UNL     1      10.572   7.640  21.635  0.00  0.00    +0.003 C 
ENDBRANCH   4   7
ENDBRANCH  15  11
TORSDOF 3
ENDMDL
MODEL 9
REMARK VINA RESULT:      -5.5     29.215     30.383
REMARK  Name = 71694125
REMARK  3 active torsions:
REMARK  status: ('A' for Active; 'I' for Inactive)
REMARK    1  A    between atoms: N_4  and  C_7
REMARK    2  A    between atoms: C_11  and  C_15
REMARK    3  A    between atoms: C_16  and  C_18
REMARK                            x       y       z     vdW  Elec       q    Type
REMARK                         _______ _______ _______ _____ _____    ______ ____
ROOT
ATOM      5  N   UNL     1     -15.656   3.240  27.208  0.00  0.00    -0.340 N 
ATOM      6  N   UNL     1     -17.341   3.142  28.651  0.00  0.00    -0.238 NA
ATOM     15  C   UNL     1     -16.107   2.762  28.407  0.00  0.00    +0.127 A 
ATOM     16  C   UNL     1     -16.668   3.971  26.652  0.00  0.00    +0.073 A 
ATOM     17  C   UNL     1     -17.697   3.896  27.561  0.00  0.00    +0.139 A 
ATOM     22  H   UNL     1     -14.741   3.082  26.807  0.00  0.00    +0.167 HD
ENDROOT
BRANCH  16  18
ATOM      1 CL   UNL     1     -15.235   5.417  21.573  0.00  0.00    -0.076 Cl
ATOM      2  S   UNL     1     -15.476   4.075  24.211  0.00  0.00    -0.075 S 
ATOM     18  C   UNL     1     -16.572   4.626  25.404  0.00  0.00    +0.038 A 
ATOM     19  C   UNL     1     -17.287   5.725  24.982  0.00  0.00    +0.019 A 
ATOM     20  C   UNL     1     -16.930   6.120  23.661  0.00  0.00    +0.028 A 
ATOM     21  C   UNL     1     -15.956   5.308  23.124  0.00  0.00    +0.079 A 
ENDBRANCH  16  18
BRANCH  15  11
ATOM      3  O   UNL     1     -14.904  -0.407  30.043  0.00  0.00    -0.377 OA
ATOM      4  N   UNL     1     -15.174   2.361  30.707  0.00  0.00    -0.286 NA
ATOM     11  C   UNL     1     -15.223   1.900  29.297  0.00  0.00    +0.149 C 
ATOM     12  C   UNL     1     -14.384   1.425  31.525  0.00  0.00    +0.113 C 
ATOM     13  C   UNL     1     -15.722   0.442  29.239  0.00  0.00    +0.186 C 
ATOM     14  C   UNL     1     -14.937   0.011  31.406  0.00  0.00    +0.175 C 
BRANCH   4   7
ATOM      7  C   UNL     1     -14.552   3.673  30.798  0.00  0.00    +0.058 C 
ATOM      8  C   UNL     1     -13.533   3.676  31.958  0.00  0.00    +0.019 C 
ATOM      9  C   UNL     1     -15.434   4.597  31.666  0.00  0.00    +0.019 C 
ATOM     10  C   UNL     1     -14.127   5.045  32.361  0.00  0.00    +0.003 C 
ENDBRANCH   4   7
ENDBRANCH  15  11
TORSDOF 3
ENDMDL
MODEL 10
REMARK VINA RESULT:      -5.5     27.582     29.727
REMARK  Name = 71694125
REMARK  3 active torsions:
REMARK  status: ('A' for Active; 'I' for Inactive)
REMARK    1  A    between atoms: N_4  and  C_7
REMARK    2  A    between atoms: C_11  and  C_15
REMARK    3  A    between atoms: C_16  and  C_18
REMARK                            x       y       z     vdW  Elec       q    Type
REMARK                         _______ _______ _______ _____ _____    ______ ____
ROOT
ATOM      5  N   UNL     1     -15.163   3.767  24.307  0.00  0.00    -0.340 N 
ATOM      6  N   UNL     1     -17.075   4.613  25.053  0.00  0.00    -0.238 NA
ATOM     15  C   UNL     1     -16.263   3.581  25.097  0.00  0.00    +0.127 A 
ATOM     16  C   UNL     1     -15.282   4.997  23.723  0.00  0.00    +0.073 A 
ATOM     17  C   UNL     1     -16.469   5.499  24.198  0.00  0.00    +0.139 A 
ATOM     22  H   UNL     1     -14.401   3.114  24.180  0.00  0.00    +0.167 HD
ENDROOT
BRANCH  16  18
ATOM      1 CL   UNL     1     -12.641   8.226  20.181  0.00  0.00    -0.076 Cl
ATOM      2  S   UNL     1     -14.614   7.039  22.057  0.00  0.00    -0.075 S 
ATOM     18  C   UNL     1     -14.328   5.542  22.835  0.00  0.00    +0.038 A 
ATOM     19  C   UNL     1     -13.112   4.999  22.481  0.00  0.00    +0.019 A 
ATOM     20  C   UNL     1     -12.406   5.823  21.559  0.00  0.00    +0.028 A 
ATOM     21  C   UNL     1     -13.109   6.964  21.243  0.00  0.00    +0.079 A 
ENDBRANCH  16  18
BRANCH  15  11
ATOM      3  O   UNL     1     -17.764   0.240  25.963  0.00  0.00    -0.377 OA
ATOM      4  N   UNL     1     -16.768   2.545  27.331  0.00  0.00    -0.286 NA
ATOM     11  C   UNL     1     -16.452   2.303  25.901  0.00  0.00    +0.149 C 
ATOM     12  C   UNL     1     -17.034   1.270  28.020  0.00  0.00    +0.113 C 
ATOM     13  C   UNL     1     -17.570   1.462  25.253  0.00  0.00    +0.186 C 
ATOM     14  C   UNL     1     -18.142   0.501  27.314  0.00  0.00    +0.175 C 
BRANCH   4   7
ATOM      7  C   UNL     1     -15.651   3.194  28.002  0.00  0.00    +0.058 C 
ATOM      8  C   UNL     1     -15.248   2.365  29.241  0.00  0.00    +0.019 C 
ATOM      9  C   UNL     1     -16.192   4.259  28.980  0.00  0.00    +0.019 C 
ATOM     10  C   UNL     1     -15.176   3.707  30.006  0.00  0.00    +0.003 C 
ENDBRANCH   4   7
ENDBRANCH  15  11
TORSDOF 3
ENDMDL
