MODEL 1
REMARK VINA RESULT:      -6.4      0.000      0.000
REMARK  Name = 7134287
REMARK  12 active torsions:
REMARK  status: ('A' for Active; 'I' for Inactive)
REMARK    1  A    between atoms: O_4  and  C_23
REMARK    2  A    between atoms: O_4  and  C_29
REMARK    3  A    between atoms: O_7  and  C_35
REMARK    4  A    between atoms: N_10  and  C_15
REMARK    5  A    between atoms: N_11  and  C_22
REMARK    6  A    between atoms: C_16  and  C_20
REMARK    7  A    between atoms: C_21  and  C_23
REMARK    8  A    between atoms: C_22  and  C_25
REMARK    9  A    between atoms: C_22  and  C_26
REMARK   10  A    between atoms: C_24  and  C_27
REMARK   11  A    between atoms: C_25  and  C_28
REMARK   12  A    between atoms: C_29  and  C_35
REMARK                            x       y       z     vdW  Elec       q    Type
REMARK                         _______ _______ _______ _____ _____    ______ ____
ROOT
ATOM      3  O   UNL     1       8.321   8.050   6.712  0.00  0.00    -0.273 OA
ATOM      9  N   UNL     1       9.943   7.121   5.324  0.00  0.00    -0.288 N 
ATOM     15  C   UNL     1      10.754   6.320   2.636  0.00  0.00    +0.077 C 
ATOM     16  C   UNL     1      11.197   6.368   5.155  0.00  0.00    +0.164 C 
ATOM     17  C   UNL     1      11.236   5.545   3.865  0.00  0.00    +0.054 C 
ATOM     18  C   UNL     1       9.393   6.956   2.911  0.00  0.00    +0.041 C 
ATOM     19  C   UNL     1       9.447   7.843   4.147  0.00  0.00    +0.110 C 
ATOM     21  C   UNL     1       9.295   7.309   6.550  0.00  0.00    +0.242 C 
ENDROOT
BRANCH  16  20
ATOM      2  O   UNL     1      12.205   8.425   5.832  0.00  0.00    -0.274 OA
ATOM     11  N   UNL     1      13.432   6.948   4.517  0.00  0.00    -0.302 N 
ATOM     20  C   UNL     1      12.317   7.364   5.223  0.00  0.00    +0.234 C 
ATOM     38  H   UNL     1      13.383   6.085   3.982  0.00  0.00    +0.150 HD
BRANCH  11  22
ATOM     22  C   UNL     1      14.639   7.736   4.407  0.00  0.00    +0.163 C 
BRANCH  22  26
ATOM      6  O   UNL     1      16.072   8.032   2.466  0.00  0.00    -0.274 OA
ATOM     12  N   UNL     1      15.114   5.974   2.822  0.00  0.00    -0.328 N 
ATOM     26  C   UNL     1      15.342   7.299   3.130  0.00  0.00    +0.231 C 
ATOM     39  H   UNL     1      15.537   5.551   2.003  0.00  0.00    +0.145 HD
ATOM     40  H   UNL     1      14.512   5.379   3.380  0.00  0.00    +0.145 HD
ENDBRANCH  22  26
BRANCH  22  25
ATOM     25  C   UNL     1      15.564   7.557   5.616  0.00  0.00    +0.074 C 
BRANCH  25  28
ATOM      1  S   UNL     1      15.597  10.294   6.131  0.00  0.00    -0.102 S 
ATOM     28  C   UNL     1      16.385   8.792   5.900  0.00  0.00    -0.008 A 
ATOM     31  C   UNL     1      17.755   8.905   6.006  0.00  0.00    +0.011 A 
ATOM     32  C   UNL     1      18.161  10.243   6.282  0.00  0.00    +0.008 A 
ATOM     33  C   UNL     1      17.088  11.100   6.375  0.00  0.00    +0.045 A 
ENDBRANCH  25  28
ENDBRANCH  22  25
ENDBRANCH  11  22
ENDBRANCH  16  20
BRANCH  15  10
ATOM      5  O   UNL     1      12.851   5.841   0.734  0.00  0.00    -0.268 OA
ATOM     10  N   UNL     1      10.689   5.460   1.479  0.00  0.00    -0.307 N 
ATOM     24  C   UNL     1      11.759   5.292   0.614  0.00  0.00    +0.264 C 
ATOM     37  H   UNL     1       9.806   5.003   1.266  0.00  0.00    +0.149 HD
BRANCH  24  27
ATOM     13  N   UNL     1      10.408   4.618  -1.267  0.00  0.00    -0.247 NA
ATOM     14  N   UNL     1      12.200   2.558  -1.907  0.00  0.00    -0.259 NA
ATOM     27  C   UNL     1      11.523   4.392  -0.545  0.00  0.00    +0.143 A 
ATOM     30  C   UNL     1      12.403   3.380  -0.859  0.00  0.00    +0.143 A 
ATOM     34  C   UNL     1      10.205   3.795  -2.315  0.00  0.00    +0.131 A 
ATOM     36  C   UNL     1      11.085   2.784  -2.629  0.00  0.00    +0.130 A 
ENDBRANCH  24  27
ENDBRANCH  15  10
BRANCH  21  23
ATOM     23  C   UNL     1       9.832   6.537   7.729  0.00  0.00    +0.256 C 
BRANCH  23   4
ATOM      4  O   UNL     1       9.113   5.329   7.778  0.00  0.00    -0.359 OA
BRANCH   4  29
ATOM     29  C   UNL     1       9.735   4.368   8.630  0.00  0.00    +0.280 C 
BRANCH  29  35
ATOM      8  O   UNL     1       8.257   4.752  10.520  0.00  0.00    -0.248 OA
ATOM     35  C   UNL     1       9.387   4.659  10.064  0.00  0.00    +0.331 C 
BRANCH  35   7
ATOM      7  O   UNL     1      10.518   4.808  10.800  0.00  0.00    -0.479 OA
ATOM     41  H   UNL     1      11.314   4.505  10.314  0.00  0.00    +0.295 HD
ENDBRANCH  35   7
ENDBRANCH  29  35
ENDBRANCH   4  29
ENDBRANCH  23   4
ENDBRANCH  21  23
TORSDOF 12
ENDMDL
MODEL 2
REMARK VINA RESULT:      -6.3      3.840      6.271
REMARK  Name = 7134287
REMARK  12 active torsions:
REMARK  status: ('A' for Active; 'I' for Inactive)
REMARK    1  A    between atoms: O_4  and  C_23
REMARK    2  A    between atoms: O_4  and  C_29
REMARK    3  A    between atoms: O_7  and  C_35
REMARK    4  A    between atoms: N_10  and  C_15
REMARK    5  A    between atoms: N_11  and  C_22
REMARK    6  A    between atoms: C_16  and  C_20
REMARK    7  A    between atoms: C_21  and  C_23
REMARK    8  A    between atoms: C_22  and  C_25
REMARK    9  A    between atoms: C_22  and  C_26
REMARK   10  A    between atoms: C_24  and  C_27
REMARK   11  A    between atoms: C_25  and  C_28
REMARK   12  A    between atoms: C_29  and  C_35
REMARK                            x       y       z     vdW  Elec       q    Type
REMARK                         _______ _______ _______ _____ _____    ______ ____
ROOT
ATOM      3  O   UNL     1      10.998   8.819   7.957  0.00  0.00    -0.273 OA
ATOM      9  N   UNL     1       9.833   8.319   6.005  0.00  0.00    -0.288 N 
ATOM     15  C   UNL     1       7.977   9.188   3.925  0.00  0.00    +0.077 C 
ATOM     16  C   UNL     1       9.350   7.331   5.026  0.00  0.00    +0.164 C 
ATOM     17  C   UNL     1       8.021   7.726   4.377  0.00  0.00    +0.054 C 
ATOM     18  C   UNL     1       8.393  10.109   5.070  0.00  0.00    +0.041 C 
ATOM     19  C   UNL     1       9.767   9.729   5.602  0.00  0.00    +0.110 C 
ATOM     21  C   UNL     1      10.476   7.993   7.204  0.00  0.00    +0.242 C 
ENDROOT
BRANCH  16  20
ATOM      2  O   UNL     1      11.439   7.867   4.001  0.00  0.00    -0.274 OA
ATOM     11  N   UNL     1      10.165   6.129   3.121  0.00  0.00    -0.302 N 
ATOM     20  C   UNL     1      10.441   7.151   4.012  0.00  0.00    +0.234 C 
ATOM     38  H   UNL     1       9.268   5.655   3.177  0.00  0.00    +0.150 HD
BRANCH  11  22
ATOM     22  C   UNL     1      11.047   5.768   2.033  0.00  0.00    +0.163 C 
BRANCH  22  26
ATOM      6  O   UNL     1       9.869   6.507   0.040  0.00  0.00    -0.274 OA
ATOM     12  N   UNL     1       9.818   4.275   0.583  0.00  0.00    -0.328 N 
ATOM     26  C   UNL     1      10.179   5.589   0.796  0.00  0.00    +0.231 C 
ATOM     39  H   UNL     1       9.251   4.015  -0.217  0.00  0.00    +0.145 HD
ATOM     40  H   UNL     1      10.083   3.526   1.213  0.00  0.00    +0.145 HD
ENDBRANCH  22  26
BRANCH  22  25
ATOM     25  C   UNL     1      11.835   4.486   2.324  0.00  0.00    +0.074 C 
BRANCH  25  28
ATOM      1  S   UNL     1      13.906   5.996   1.234  0.00  0.00    -0.102 S 
ATOM     28  C   UNL     1      13.211   4.503   1.702  0.00  0.00    -0.008 A 
ATOM     31  C   UNL     1      14.045   3.439   1.435  0.00  0.00    +0.011 A 
ATOM     32  C   UNL     1      15.270   3.856   0.839  0.00  0.00    +0.008 A 
ATOM     33  C   UNL     1      15.326   5.222   0.673  0.00  0.00    +0.045 A 
ENDBRANCH  25  28
ENDBRANCH  22  25
ENDBRANCH  11  22
ENDBRANCH  16  20
BRANCH  15  10
ATOM      5  O   UNL     1       7.155   9.396   1.182  0.00  0.00    -0.268 OA
ATOM     10  N   UNL     1       6.663   9.537   3.443  0.00  0.00    -0.307 N 
ATOM     24  C   UNL     1       6.359   9.613   2.092  0.00  0.00    +0.264 C 
ATOM     37  H   UNL     1       5.950   9.788   4.122  0.00  0.00    +0.149 HD
BRANCH  24  27
ATOM     13  N   UNL     1       4.300  10.714   2.696  0.00  0.00    -0.247 NA
ATOM     14  N   UNL     1       3.131  10.031   0.240  0.00  0.00    -0.259 NA
ATOM     27  C   UNL     1       4.967  10.011   1.759  0.00  0.00    +0.143 A 
ATOM     30  C   UNL     1       4.393   9.675   0.553  0.00  0.00    +0.143 A 
ATOM     34  C   UNL     1       3.039  11.070   2.383  0.00  0.00    +0.131 A 
ATOM     36  C   UNL     1       2.465  10.734   1.177  0.00  0.00    +0.130 A 
ENDBRANCH  24  27
ENDBRANCH  15  10
BRANCH  21  23
ATOM     23  C   UNL     1      10.508   6.533   7.584  0.00  0.00    +0.256 C 
BRANCH  23   4
ATOM      4  O   UNL     1       9.405   6.315   8.430  0.00  0.00    -0.359 OA
BRANCH   4  29
ATOM     29  C   UNL     1       9.243   4.935   8.754  0.00  0.00    +0.280 C 
BRANCH  29  35
ATOM      8  O   UNL     1      10.400   4.565  10.858  0.00  0.00    -0.248 OA
ATOM     35  C   UNL     1       9.361   4.744  10.241  0.00  0.00    +0.331 C 
BRANCH  35   7
ATOM      7  O   UNL     1       8.134   4.796  10.819  0.00  0.00    -0.479 OA
ATOM     41  H   UNL     1       8.110   5.427  11.570  0.00  0.00    +0.295 HD
ENDBRANCH  35   7
ENDBRANCH  29  35
ENDBRANCH   4  29
ENDBRANCH  23   4
ENDBRANCH  21  23
TORSDOF 12
ENDMDL
MODEL 3
REMARK VINA RESULT:      -6.2      3.024      8.423
REMARK  Name = 7134287
REMARK  12 active torsions:
REMARK  status: ('A' for Active; 'I' for Inactive)
REMARK    1  A    between atoms: O_4  and  C_23
REMARK    2  A    between atoms: O_4  and  C_29
REMARK    3  A    between atoms: O_7  and  C_35
REMARK    4  A    between atoms: N_10  and  C_15
REMARK    5  A    between atoms: N_11  and  C_22
REMARK    6  A    between atoms: C_16  and  C_20
REMARK    7  A    between atoms: C_21  and  C_23
REMARK    8  A    between atoms: C_22  and  C_25
REMARK    9  A    between atoms: C_22  and  C_26
REMARK   10  A    between atoms: C_24  and  C_27
REMARK   11  A    between atoms: C_25  and  C_28
REMARK   12  A    between atoms: C_29  and  C_35
REMARK                            x       y       z     vdW  Elec       q    Type
REMARK                         _______ _______ _______ _____ _____    ______ ____
ROOT
ATOM      3  O   UNL     1      12.581   7.314  -0.323  0.00  0.00    -0.273 OA
ATOM      9  N   UNL     1      13.670   7.223   1.733  0.00  0.00    -0.288 N 
ATOM     15  C   UNL     1      15.905   8.084   3.403  0.00  0.00    +0.077 C 
ATOM     16  C   UNL     1      13.856   6.594   3.051  0.00  0.00    +0.164 C 
ATOM     17  C   UNL     1      15.294   6.690   3.567  0.00  0.00    +0.054 C 
ATOM     18  C   UNL     1      15.742   8.568   1.963  0.00  0.00    +0.041 C 
ATOM     19  C   UNL     1      14.278   8.546   1.546  0.00  0.00    +0.110 C 
ATOM     21  C   UNL     1      12.840   6.717   0.726  0.00  0.00    +0.242 C 
ENDROOT
BRANCH  16  20
ATOM      2  O   UNL     1      12.491   8.395   3.823  0.00  0.00    -0.274 OA
ATOM     11  N   UNL     1      12.505   6.398   5.020  0.00  0.00    -0.302 N 
ATOM     20  C   UNL     1      12.876   7.240   3.986  0.00  0.00    +0.234 C 
ATOM     38  H   UNL     1      12.951   5.489   5.099  0.00  0.00    +0.150 HD
BRANCH  11  22
ATOM     22  C   UNL     1      11.590   6.789   6.068  0.00  0.00    +0.163 C 
BRANCH  22  26
ATOM      6  O   UNL     1      11.454   5.807   8.287  0.00  0.00    -0.274 OA
ATOM     12  N   UNL     1      13.529   6.256   7.409  0.00  0.00    -0.328 N 
ATOM     26  C   UNL     1      12.150   6.247   7.375  0.00  0.00    +0.231 C 
ATOM     39  H   UNL     1      14.031   5.907   8.218  0.00  0.00    +0.145 HD
ATOM     40  H   UNL     1      14.092   6.619   6.647  0.00  0.00    +0.145 HD
ENDBRANCH  22  26
BRANCH  22  25
ATOM     25  C   UNL     1      10.172   6.255   5.831  0.00  0.00    +0.074 C 
BRANCH  25  28
ATOM      1  S   UNL     1       8.638   8.547   6.221  0.00  0.00    -0.102 S 
ATOM     28  C   UNL     1       9.258   7.296   5.230  0.00  0.00    -0.008 A 
ATOM     31  C   UNL     1       8.818   7.402   3.929  0.00  0.00    +0.011 A 
ATOM     32  C   UNL     1       7.961   8.525   3.743  0.00  0.00    +0.008 A 
ATOM     33  C   UNL     1       7.779   9.234   4.910  0.00  0.00    +0.045 A 
ENDBRANCH  25  28
ENDBRANCH  22  25
ENDBRANCH  11  22
ENDBRANCH  16  20
BRANCH  15  10
ATOM      5  O   UNL     1      16.972   8.636   6.011  0.00  0.00    -0.268 OA
ATOM     10  N   UNL     1      17.297   8.082   3.783  0.00  0.00    -0.307 N 
ATOM     24  C   UNL     1      17.718   8.363   5.074  0.00  0.00    +0.264 C 
ATOM     37  H   UNL     1      17.995   7.920   3.062  0.00  0.00    +0.149 HD
BRANCH  24  27
ATOM     13  N   UNL     1      19.911   7.545   4.492  0.00  0.00    -0.247 NA
ATOM     14  N   UNL     1      21.103   9.104   6.494  0.00  0.00    -0.259 NA
ATOM     27  C   UNL     1      19.186   8.346   5.298  0.00  0.00    +0.143 A 
ATOM     30  C   UNL     1      19.772   9.112   6.282  0.00  0.00    +0.143 A 
ATOM     34  C   UNL     1      21.241   7.537   4.704  0.00  0.00    +0.131 A 
ATOM     36  C   UNL     1      21.826   8.303   5.687  0.00  0.00    +0.130 A 
ENDBRANCH  24  27
ENDBRANCH  15  10
BRANCH  21  23
ATOM     23  C   UNL     1      12.247   5.349   0.957  0.00  0.00    +0.256 C 
BRANCH  23   4
ATOM      4  O   UNL     1      12.982   4.455   0.158  0.00  0.00    -0.359 OA
BRANCH   4  29
ATOM     29  C   UNL     1      13.585   3.418   0.931  0.00  0.00    +0.280 C 
BRANCH  29  35
ATOM      8  O   UNL     1      15.770   4.318   0.364  0.00  0.00    -0.248 OA
ATOM     35  C   UNL     1      15.041   3.724   1.146  0.00  0.00    +0.331 C 
BRANCH  35   7
ATOM      7  O   UNL     1      15.450   3.242   2.347  0.00  0.00    -0.479 OA
ATOM     41  H   UNL     1      16.183   2.598   2.253  0.00  0.00    +0.295 HD
ENDBRANCH  35   7
ENDBRANCH  29  35
ENDBRANCH   4  29
ENDBRANCH  23   4
ENDBRANCH  21  23
TORSDOF 12
ENDMDL
MODEL 4
REMARK VINA RESULT:      -5.9     24.983     27.230
REMARK  Name = 7134287
REMARK  12 active torsions:
REMARK  status: ('A' for Active; 'I' for Inactive)
REMARK    1  A    between atoms: O_4  and  C_23
REMARK    2  A    between atoms: O_4  and  C_29
REMARK    3  A    between atoms: O_7  and  C_35
REMARK    4  A    between atoms: N_10  and  C_15
REMARK    5  A    between atoms: N_11  and  C_22
REMARK    6  A    between atoms: C_16  and  C_20
REMARK    7  A    between atoms: C_21  and  C_23
REMARK    8  A    between atoms: C_22  and  C_25
REMARK    9  A    between atoms: C_22  and  C_26
REMARK   10  A    between atoms: C_24  and  C_27
REMARK   11  A    between atoms: C_25  and  C_28
REMARK   12  A    between atoms: C_29  and  C_35
REMARK                            x       y       z     vdW  Elec       q    Type
REMARK                         _______ _______ _______ _____ _____    ______ ____
ROOT
ATOM      3  O   UNL     1      -2.971 -12.815  11.405  0.00  0.00    -0.273 OA
ATOM      9  N   UNL     1      -4.575 -11.184  11.839  0.00  0.00    -0.288 N 
ATOM     15  C   UNL     1      -7.015  -9.813  11.008  0.00  0.00    +0.077 C 
ATOM     16  C   UNL     1      -5.019 -10.003  12.598  0.00  0.00    +0.164 C 
ATOM     17  C   UNL     1      -5.924  -9.073  11.787  0.00  0.00    +0.054 C 
ATOM     18  C   UNL     1      -6.401 -10.939  10.179  0.00  0.00    +0.041 C 
ATOM     19  C   UNL     1      -5.599 -11.888  11.059  0.00  0.00    +0.110 C 
ATOM     21  C   UNL     1      -3.298 -11.751  11.937  0.00  0.00    +0.242 C 
ENDROOT
BRANCH  16  20
ATOM      2  O   UNL     1      -5.346 -11.549  14.388  0.00  0.00    -0.274 OA
ATOM     11  N   UNL     1      -6.736  -9.689  14.239  0.00  0.00    -0.302 N 
ATOM     20  C   UNL     1      -5.697 -10.509  13.837  0.00  0.00    +0.234 C 
ATOM     38  H   UNL     1      -6.989  -8.894  13.658  0.00  0.00    +0.150 HD
BRANCH  11  22
ATOM     22  C   UNL     1      -7.563  -9.966  15.392  0.00  0.00    +0.163 C 
BRANCH  22  26
ATOM      6  O   UNL     1      -9.602  -8.770  15.956  0.00  0.00    -0.274 OA
ATOM     12  N   UNL     1      -9.323  -9.511  13.799  0.00  0.00    -0.328 N 
ATOM     26  C   UNL     1      -8.932  -9.364  15.114  0.00  0.00    +0.231 C 
ATOM     39  H   UNL     1     -10.211  -9.142  13.476  0.00  0.00    +0.145 HD
ATOM     40  H   UNL     1      -8.759 -10.001  13.113  0.00  0.00    +0.145 HD
ENDBRANCH  22  26
BRANCH  22  25
ATOM     25  C   UNL     1      -6.974  -9.384  16.683  0.00  0.00    +0.074 C 
BRANCH  25  28
ATOM      1  S   UNL     1      -7.366 -12.022  17.488  0.00  0.00    -0.102 S 
ATOM     28  C   UNL     1      -6.779 -10.435  17.749  0.00  0.00    -0.008 A 
ATOM     31  C   UNL     1      -6.164 -10.307  18.976  0.00  0.00    +0.011 A 
ATOM     32  C   UNL     1      -6.176 -11.528  19.710  0.00  0.00    +0.008 A 
ATOM     33  C   UNL     1      -6.799 -12.542  19.017  0.00  0.00    +0.045 A 
ENDBRANCH  25  28
ENDBRANCH  22  25
ENDBRANCH  11  22
ENDBRANCH  16  20
BRANCH  15  10
ATOM      5  O   UNL     1      -9.870  -9.589  10.808  0.00  0.00    -0.268 OA
ATOM     10  N   UNL     1      -7.751  -8.904  10.164  0.00  0.00    -0.307 N 
ATOM     24  C   UNL     1      -9.137  -8.869  10.135  0.00  0.00    +0.264 C 
ATOM     37  H   UNL     1      -7.230  -8.304   9.530  0.00  0.00    +0.149 HD
BRANCH  24  27
ATOM     13  N   UNL     1     -11.023  -7.538   9.433  0.00  0.00    -0.247 NA
ATOM     14  N   UNL     1      -9.572  -6.497   7.270  0.00  0.00    -0.259 NA
ATOM     27  C   UNL     1      -9.744  -7.894   9.193  0.00  0.00    +0.143 A 
ATOM     30  C   UNL     1      -9.032  -7.383   8.131  0.00  0.00    +0.143 A 
ATOM     34  C   UNL     1     -11.562  -6.653   8.572  0.00  0.00    +0.131 A 
ATOM     36  C   UNL     1     -10.849  -6.142   7.510  0.00  0.00    +0.130 A 
ENDBRANCH  24  27
ENDBRANCH  15  10
BRANCH  21  23
ATOM     23  C   UNL     1      -2.274 -10.985  12.738  0.00  0.00    +0.256 C 
BRANCH  23   4
ATOM      4  O   UNL     1      -1.599 -11.930  13.532  0.00  0.00    -0.359 OA
BRANCH   4  29
ATOM     29  C   UNL     1      -2.137 -12.004  14.852  0.00  0.00    +0.280 C 
BRANCH  29  35
ATOM      8  O   UNL     1      -0.785 -10.202  15.763  0.00  0.00    -0.248 OA
ATOM     35  C   UNL     1      -1.880 -10.713  15.579  0.00  0.00    +0.331 C 
BRANCH  35   7
ATOM      7  O   UNL     1      -3.049 -10.179  16.015  0.00  0.00    -0.479 OA
ATOM     41  H   UNL     1      -3.026  -9.982  16.976  0.00  0.00    +0.295 HD
ENDBRANCH  35   7
ENDBRANCH  29  35
ENDBRANCH   4  29
ENDBRANCH  23   4
ENDBRANCH  21  23
TORSDOF 12
ENDMDL
MODEL 5
REMARK VINA RESULT:      -5.7      3.969      9.198
REMARK  Name = 7134287
REMARK  12 active torsions:
REMARK  status: ('A' for Active; 'I' for Inactive)
REMARK    1  A    between atoms: O_4  and  C_23
REMARK    2  A    between atoms: O_4  and  C_29
REMARK    3  A    between atoms: O_7  and  C_35
REMARK    4  A    between atoms: N_10  and  C_15
REMARK    5  A    between atoms: N_11  and  C_22
REMARK    6  A    between atoms: C_16  and  C_20
REMARK    7  A    between atoms: C_21  and  C_23
REMARK    8  A    between atoms: C_22  and  C_25
REMARK    9  A    between atoms: C_22  and  C_26
REMARK   10  A    between atoms: C_24  and  C_27
REMARK   11  A    between atoms: C_25  and  C_28
REMARK   12  A    between atoms: C_29  and  C_35
REMARK                            x       y       z     vdW  Elec       q    Type
REMARK                         _______ _______ _______ _____ _____    ______ ____
ROOT
ATOM      3  O   UNL     1      13.114   8.667   1.998  0.00  0.00    -0.273 OA
ATOM      9  N   UNL     1      12.628   8.291   4.244  0.00  0.00    -0.288 N 
ATOM     15  C   UNL     1      11.740   9.365   6.809  0.00  0.00    +0.077 C 
ATOM     16  C   UNL     1      12.696   7.430   5.437  0.00  0.00    +0.164 C 
ATOM     17  C   UNL     1      12.753   8.219   6.746  0.00  0.00    +0.054 C 
ATOM     18  C   UNL     1      11.855  10.243   5.565  0.00  0.00    +0.041 C 
ATOM     19  C   UNL     1      11.686   9.415   4.299  0.00  0.00    +0.110 C 
ATOM     21  C   UNL     1      13.279   8.018   3.035  0.00  0.00    +0.242 C 
ENDROOT
BRANCH  16  20
ATOM      2  O   UNL     1      11.303   5.777   4.420  0.00  0.00    -0.274 OA
ATOM     11  N   UNL     1      10.708   6.625   6.505  0.00  0.00    -0.302 N 
ATOM     20  C   UNL     1      11.509   6.513   5.382  0.00  0.00    +0.234 C 
ATOM     38  H   UNL     1      10.935   7.328   7.203  0.00  0.00    +0.150 HD
BRANCH  11  22
ATOM     22  C   UNL     1       9.491   5.867   6.687  0.00  0.00    +0.163 C 
BRANCH  22  26
ATOM      6  O   UNL     1       9.808   3.548   6.033  0.00  0.00    -0.274 OA
ATOM     12  N   UNL     1      10.425   4.186   8.151  0.00  0.00    -0.328 N 
ATOM     26  C   UNL     1       9.897   4.416   6.898  0.00  0.00    +0.231 C 
ATOM     39  H   UNL     1      10.750   3.262   8.417  0.00  0.00    +0.145 HD
ATOM     40  H   UNL     1      10.497   4.912   8.856  0.00  0.00    +0.145 HD
ENDBRANCH  22  26
BRANCH  22  25
ATOM     25  C   UNL     1       8.544   5.989   5.488  0.00  0.00    +0.074 C 
BRANCH  25  28
ATOM      1  S   UNL     1       8.354   7.853   3.427  0.00  0.00    -0.102 S 
ATOM     28  C   UNL     1       8.311   7.426   5.084  0.00  0.00    -0.008 A 
ATOM     31  C   UNL     1       8.054   8.512   5.891  0.00  0.00    +0.011 A 
ATOM     32  C   UNL     1       7.891   9.711   5.138  0.00  0.00    +0.008 A 
ATOM     33  C   UNL     1       8.029   9.495   3.785  0.00  0.00    +0.045 A 
ENDBRANCH  25  28
ENDBRANCH  22  25
ENDBRANCH  11  22
ENDBRANCH  16  20
BRANCH  15  10
ATOM      5  O   UNL     1       9.680  10.409   8.516  0.00  0.00    -0.268 OA
ATOM     10  N   UNL     1      11.927  10.152   8.005  0.00  0.00    -0.307 N 
ATOM     24  C   UNL     1      10.865  10.614   8.767  0.00  0.00    +0.264 C 
ATOM     37  H   UNL     1      12.873  10.418   8.265  0.00  0.00    +0.149 HD
BRANCH  24  27
ATOM     13  N   UNL     1      12.531  11.718  10.118  0.00  0.00    -0.247 NA
ATOM     14  N   UNL     1      10.579  12.614  11.920  0.00  0.00    -0.259 NA
ATOM     27  C   UNL     1      11.224  11.432   9.955  0.00  0.00    +0.143 A 
ATOM     30  C   UNL     1      10.265  11.872  10.840  0.00  0.00    +0.143 A 
ATOM     34  C   UNL     1      12.845  12.460  11.197  0.00  0.00    +0.131 A 
ATOM     36  C   UNL     1      11.886  12.900  12.082  0.00  0.00    +0.130 A 
ENDBRANCH  24  27
ENDBRANCH  15  10
BRANCH  21  23
ATOM     23  C   UNL     1      14.247   6.861   3.030  0.00  0.00    +0.256 C 
BRANCH  23   4
ATOM      4  O   UNL     1      13.759   5.935   2.090  0.00  0.00    -0.359 OA
BRANCH   4  29
ATOM     29  C   UNL     1      14.802   5.132   1.538  0.00  0.00    +0.280 C 
BRANCH  29  35
ATOM      8  O   UNL     1      13.471   3.103   1.656  0.00  0.00    -0.248 OA
ATOM     35  C   UNL     1      14.534   3.681   1.825  0.00  0.00    +0.331 C 
BRANCH  35   7
ATOM      7  O   UNL     1      15.653   3.084   2.309  0.00  0.00    -0.479 OA
ATOM     41  H   UNL     1      16.071   3.613   3.022  0.00  0.00    +0.295 HD
ENDBRANCH  35   7
ENDBRANCH  29  35
ENDBRANCH   4  29
ENDBRANCH  23   4
ENDBRANCH  21  23
TORSDOF 12
ENDMDL
MODEL 6
REMARK VINA RESULT:      -5.7     24.525     26.429
REMARK  Name = 7134287
REMARK  12 active torsions:
REMARK  status: ('A' for Active; 'I' for Inactive)
REMARK    1  A    between atoms: O_4  and  C_23
REMARK    2  A    between atoms: O_4  and  C_29
REMARK    3  A    between atoms: O_7  and  C_35
REMARK    4  A    between atoms: N_10  and  C_15
REMARK    5  A    between atoms: N_11  and  C_22
REMARK    6  A    between atoms: C_16  and  C_20
REMARK    7  A    between atoms: C_21  and  C_23
REMARK    8  A    between atoms: C_22  and  C_25
REMARK    9  A    between atoms: C_22  and  C_26
REMARK   10  A    between atoms: C_24  and  C_27
REMARK   11  A    between atoms: C_25  and  C_28
REMARK   12  A    between atoms: C_29  and  C_35
REMARK                            x       y       z     vdW  Elec       q    Type
REMARK                         _______ _______ _______ _____ _____    ______ ____
ROOT
ATOM      3  O   UNL     1      -4.032 -13.736  12.164  0.00  0.00    -0.273 OA
ATOM      9  N   UNL     1      -4.880 -11.709  11.395  0.00  0.00    -0.288 N 
ATOM     15  C   UNL     1      -6.609 -10.288   9.521  0.00  0.00    +0.077 C 
ATOM     16  C   UNL     1      -4.830 -10.238  11.359  0.00  0.00    +0.164 C 
ATOM     17  C   UNL     1      -5.312  -9.653  10.029  0.00  0.00    +0.054 C 
ATOM     18  C   UNL     1      -6.482 -11.809   9.505  0.00  0.00    +0.041 C 
ATOM     19  C   UNL     1      -6.102 -12.338  10.881  0.00  0.00    +0.110 C 
ATOM     21  C   UNL     1      -3.920 -12.516  12.018  0.00  0.00    +0.242 C 
ENDROOT
BRANCH  16  20
ATOM      2  O   UNL     1      -6.508  -8.884  12.385  0.00  0.00    -0.274 OA
ATOM     11  N   UNL     1      -5.278 -10.350  13.710  0.00  0.00    -0.302 N 
ATOM     20  C   UNL     1      -5.642  -9.744  12.520  0.00  0.00    +0.234 C 
ATOM     38  H   UNL     1      -4.490 -10.991  13.715  0.00  0.00    +0.150 HD
BRANCH  11  22
ATOM     22  C   UNL     1      -5.893 -10.033  14.979  0.00  0.00    +0.163 C 
BRANCH  22  26
ATOM      6  O   UNL     1      -4.460  -9.850  16.933  0.00  0.00    -0.274 OA
ATOM     12  N   UNL     1      -4.795 -11.925  16.007  0.00  0.00    -0.328 N 
ATOM     26  C   UNL     1      -4.967 -10.558  16.066  0.00  0.00    +0.231 C 
ATOM     39  H   UNL     1      -4.213 -12.406  16.685  0.00  0.00    +0.145 HD
ATOM     40  H   UNL     1      -5.222 -12.499  15.288  0.00  0.00    +0.145 HD
ENDBRANCH  22  26
BRANCH  22  25
ATOM     25  C   UNL     1      -7.289 -10.651  15.120  0.00  0.00    +0.074 C 
BRANCH  25  28
ATOM      1  S   UNL     1      -9.609  -9.178  14.668  0.00  0.00    -0.102 S 
ATOM     28  C   UNL     1      -8.301  -9.668  15.658  0.00  0.00    -0.008 A 
ATOM     31  C   UNL     1      -8.337  -9.067  16.897  0.00  0.00    +0.011 A 
ATOM     32  C   UNL     1      -9.454  -8.193  17.035  0.00  0.00    +0.008 A 
ATOM     33  C   UNL     1     -10.228  -8.159  15.896  0.00  0.00    +0.045 A 
ENDBRANCH  25  28
ENDBRANCH  22  25
ENDBRANCH  11  22
ENDBRANCH  16  20
BRANCH  15  10
ATOM      5  O   UNL     1      -8.350  -8.088   8.909  0.00  0.00    -0.268 OA
ATOM     10  N   UNL     1      -6.943  -9.792   8.208  0.00  0.00    -0.307 N 
ATOM     24  C   UNL     1      -7.799  -8.718   8.011  0.00  0.00    +0.264 C 
ATOM     37  H   UNL     1      -6.577 -10.284   7.398  0.00  0.00    +0.149 HD
BRANCH  24  27
ATOM     13  N   UNL     1      -9.180  -7.632   6.359  0.00  0.00    -0.247 NA
ATOM     14  N   UNL     1      -7.432  -8.385   4.300  0.00  0.00    -0.259 NA
ATOM     27  C   UNL     1      -8.062  -8.346   6.597  0.00  0.00    +0.143 A 
ATOM     30  C   UNL     1      -7.203  -8.716   5.586  0.00  0.00    +0.143 A 
ATOM     34  C   UNL     1      -9.408  -7.301   5.073  0.00  0.00    +0.131 A 
ATOM     36  C   UNL     1      -8.549  -7.670   4.062  0.00  0.00    +0.130 A 
ENDBRANCH  24  27
ENDBRANCH  15  10
BRANCH  21  23
ATOM     23  C   UNL     1      -2.675 -11.828  12.519  0.00  0.00    +0.256 C 
BRANCH  23   4
ATOM      4  O   UNL     1      -2.747 -11.845  13.924  0.00  0.00    -0.359 OA
BRANCH   4  29
ATOM     29  C   UNL     1      -1.455 -11.910  14.526  0.00  0.00    +0.280 C 
BRANCH  29  35
ATOM      8  O   UNL     1      -0.868  -9.666  15.248  0.00  0.00    -0.248 OA
ATOM     35  C   UNL     1      -1.292 -10.782  15.507  0.00  0.00    +0.331 C 
BRANCH  35   7
ATOM      7  O   UNL     1      -1.687 -11.176  16.745  0.00  0.00    -0.479 OA
ATOM     41  H   UNL     1      -1.036 -11.778  17.162  0.00  0.00    +0.295 HD
ENDBRANCH  35   7
ENDBRANCH  29  35
ENDBRANCH   4  29
ENDBRANCH  23   4
ENDBRANCH  21  23
TORSDOF 12
ENDMDL
MODEL 7
REMARK VINA RESULT:      -5.7      2.360      2.902
REMARK  Name = 7134287
REMARK  12 active torsions:
REMARK  status: ('A' for Active; 'I' for Inactive)
REMARK    1  A    between atoms: O_4  and  C_23
REMARK    2  A    between atoms: O_4  and  C_29
REMARK    3  A    between atoms: O_7  and  C_35
REMARK    4  A    between atoms: N_10  and  C_15
REMARK    5  A    between atoms: N_11  and  C_22
REMARK    6  A    between atoms: C_16  and  C_20
REMARK    7  A    between atoms: C_21  and  C_23
REMARK    8  A    between atoms: C_22  and  C_25
REMARK    9  A    between atoms: C_22  and  C_26
REMARK   10  A    between atoms: C_24  and  C_27
REMARK   11  A    between atoms: C_25  and  C_28
REMARK   12  A    between atoms: C_29  and  C_35
REMARK                            x       y       z     vdW  Elec       q    Type
REMARK                         _______ _______ _______ _____ _____    ______ ____
ROOT
ATOM      3  O   UNL     1       7.610   7.568   4.531  0.00  0.00    -0.273 OA
ATOM      9  N   UNL     1       9.667   6.962   3.623  0.00  0.00    -0.288 N 
ATOM     15  C   UNL     1      11.299   6.513   1.244  0.00  0.00    +0.077 C 
ATOM     16  C   UNL     1      11.008   6.375   3.782  0.00  0.00    +0.164 C 
ATOM     17  C   UNL     1      11.517   5.686   2.514  0.00  0.00    +0.054 C 
ATOM     18  C   UNL     1       9.842   6.962   1.148  0.00  0.00    +0.041 C 
ATOM     19  C   UNL     1       9.428   7.730   2.395  0.00  0.00    +0.110 C 
ATOM     21  C   UNL     1       8.681   6.960   4.617  0.00  0.00    +0.242 C 
ENDROOT
BRANCH  16  20
ATOM      2  O   UNL     1      12.196   8.426   3.495  0.00  0.00    -0.274 OA
ATOM     11  N   UNL     1      12.395   7.281   5.512  0.00  0.00    -0.302 N 
ATOM     20  C   UNL     1      11.919   7.480   4.228  0.00  0.00    +0.234 C 
ATOM     38  H   UNL     1      12.161   6.418   5.996  0.00  0.00    +0.150 HD
BRANCH  11  22
ATOM     22  C   UNL     1      13.308   8.190   6.167  0.00  0.00    +0.163 C 
BRANCH  22  26
ATOM      6  O   UNL     1      15.657   7.691   6.541  0.00  0.00    -0.274 OA
ATOM     12  N   UNL     1      14.081   6.219   7.333  0.00  0.00    -0.328 N 
ATOM     26  C   UNL     1      14.480   7.361   6.670  0.00  0.00    +0.231 C 
ATOM     39  H   UNL     1      14.764   5.584   7.732  0.00  0.00    +0.145 HD
ATOM     40  H   UNL     1      13.106   5.960   7.435  0.00  0.00    +0.145 HD
ENDBRANCH  22  26
BRANCH  22  25
ATOM     25  C   UNL     1      12.647   8.942   7.329  0.00  0.00    +0.074 C 
BRANCH  25  28
ATOM      1  S   UNL     1      12.213  11.491   8.365  0.00  0.00    -0.102 S 
ATOM     28  C   UNL     1      12.537  10.425   7.065  0.00  0.00    -0.008 A 
ATOM     31  C   UNL     1      12.663  11.094   5.867  0.00  0.00    +0.011 A 
ATOM     32  C   UNL     1      12.492  12.501   6.020  0.00  0.00    +0.008 A 
ATOM     33  C   UNL     1      12.242  12.852   7.327  0.00  0.00    +0.045 A 
ENDBRANCH  25  28
ENDBRANCH  22  25
ENDBRANCH  11  22
ENDBRANCH  16  20
BRANCH  15  10
ATOM      5  O   UNL     1       9.900   4.274   0.114  0.00  0.00    -0.268 OA
ATOM     10  N   UNL     1      11.677   5.763   0.071  0.00  0.00    -0.307 N 
ATOM     24  C   UNL     1      10.934   4.691  -0.401  0.00  0.00    +0.264 C 
ATOM     37  H   UNL     1      12.549   5.999  -0.394  0.00  0.00    +0.149 HD
BRANCH  24  27
ATOM     13  N   UNL     1      10.729   3.000  -2.109  0.00  0.00    -0.247 NA
ATOM     14  N   UNL     1      13.163   3.773  -3.266  0.00  0.00    -0.259 NA
ATOM     27  C   UNL     1      11.471   4.007  -1.605  0.00  0.00    +0.143 A 
ATOM     30  C   UNL     1      12.666   4.387  -2.174  0.00  0.00    +0.143 A 
ATOM     34  C   UNL     1      11.226   2.387  -3.201  0.00  0.00    +0.131 A 
ATOM     36  C   UNL     1      12.421   2.767  -3.769  0.00  0.00    +0.130 A 
ENDBRANCH  24  27
ENDBRANCH  15  10
BRANCH  21  23
ATOM     23  C   UNL     1       8.965   6.147   5.855  0.00  0.00    +0.256 C 
BRANCH  23   4
ATOM      4  O   UNL     1       9.534   7.029   6.792  0.00  0.00    -0.359 OA
BRANCH   4  29
ATOM     29  C   UNL     1       9.334   6.587   8.134  0.00  0.00    +0.280 C 
BRANCH  29  35
ATOM      8  O   UNL     1       9.655   4.265   8.772  0.00  0.00    -0.248 OA
ATOM     35  C   UNL     1      10.115   5.326   8.376  0.00  0.00    +0.331 C 
BRANCH  35   7
ATOM      7  O   UNL     1      11.428   5.525   8.094  0.00  0.00    -0.479 OA
ATOM     41  H   UNL     1      12.009   5.233   8.828  0.00  0.00    +0.295 HD
ENDBRANCH  35   7
ENDBRANCH  29  35
ENDBRANCH   4  29
ENDBRANCH  23   4
ENDBRANCH  21  23
TORSDOF 12
ENDMDL
MODEL 8
REMARK VINA RESULT:      -5.7      2.074      2.881
REMARK  Name = 7134287
REMARK  12 active torsions:
REMARK  status: ('A' for Active; 'I' for Inactive)
REMARK    1  A    between atoms: O_4  and  C_23
REMARK    2  A    between atoms: O_4  and  C_29
REMARK    3  A    between atoms: O_7  and  C_35
REMARK    4  A    between atoms: N_10  and  C_15
REMARK    5  A    between atoms: N_11  and  C_22
REMARK    6  A    between atoms: C_16  and  C_20
REMARK    7  A    between atoms: C_21  and  C_23
REMARK    8  A    between atoms: C_22  and  C_25
REMARK    9  A    between atoms: C_22  and  C_26
REMARK   10  A    between atoms: C_24  and  C_27
REMARK   11  A    between atoms: C_25  and  C_28
REMARK   12  A    between atoms: C_29  and  C_35
REMARK                            x       y       z     vdW  Elec       q    Type
REMARK                         _______ _______ _______ _____ _____    ______ ____
ROOT
ATOM      3  O   UNL     1       8.440   8.057   4.468  0.00  0.00    -0.273 OA
ATOM      9  N   UNL     1       9.731   6.665   3.121  0.00  0.00    -0.288 N 
ATOM     15  C   UNL     1      10.492   5.812   0.435  0.00  0.00    +0.077 C 
ATOM     16  C   UNL     1      10.605   5.490   2.970  0.00  0.00    +0.164 C 
ATOM     17  C   UNL     1      10.480   4.819   1.600  0.00  0.00    +0.054 C 
ATOM     18  C   UNL     1       9.461   6.915   0.668  0.00  0.00    +0.041 C 
ATOM     19  C   UNL     1       9.704   7.612   2.000  0.00  0.00    +0.110 C 
ATOM     21  C   UNL     1       9.061   7.004   4.303  0.00  0.00    +0.242 C 
ENDROOT
BRANCH  16  20
ATOM      2  O   UNL     1      12.923   5.747   2.455  0.00  0.00    -0.274 OA
ATOM     11  N   UNL     1      12.118   6.581   4.474  0.00  0.00    -0.302 N 
ATOM     20  C   UNL     1      12.007   5.949   3.248  0.00  0.00    +0.234 C 
ATOM     38  H   UNL     1      11.306   6.620   5.084  0.00  0.00    +0.150 HD
BRANCH  11  22
ATOM     22  C   UNL     1      13.367   7.096   4.987  0.00  0.00    +0.163 C 
BRANCH  22  26
ATOM      6  O   UNL     1      13.913   6.457   7.267  0.00  0.00    -0.274 OA
ATOM     12  N   UNL     1      12.325   8.082   6.932  0.00  0.00    -0.328 N 
ATOM     26  C   UNL     1      13.241   7.145   6.502  0.00  0.00    +0.231 C 
ATOM     39  H   UNL     1      12.154   8.227   7.922  0.00  0.00    +0.145 HD
ATOM     40  H   UNL     1      11.779   8.646   6.290  0.00  0.00    +0.145 HD
ENDBRANCH  22  26
BRANCH  22  25
ATOM     25  C   UNL     1      13.694   8.488   4.432  0.00  0.00    +0.074 C 
BRANCH  25  28
ATOM      1  S   UNL     1      15.564   9.772   2.815  0.00  0.00    -0.102 S 
ATOM     28  C   UNL     1      15.135   8.608   3.994  0.00  0.00    -0.008 A 
ATOM     31  C   UNL     1      16.224   7.880   4.422  0.00  0.00    +0.011 A 
ATOM     32  C   UNL     1      17.426   8.285   3.772  0.00  0.00    +0.008 A 
ATOM     33  C   UNL     1      17.210   9.306   2.874  0.00  0.00    +0.045 A 
ENDBRANCH  25  28
ENDBRANCH  22  25
ENDBRANCH  11  22
ENDBRANCH  16  20
BRANCH  15  10
ATOM      5  O   UNL     1      12.457   4.929  -1.463  0.00  0.00    -0.268 OA
ATOM     10  N   UNL     1      10.240   5.138  -0.816  0.00  0.00    -0.307 N 
ATOM     24  C   UNL     1      11.260   4.749  -1.672  0.00  0.00    +0.264 C 
ATOM     37  H   UNL     1       9.276   4.993  -1.101  0.00  0.00    +0.149 HD
BRANCH  24  27
ATOM     13  N   UNL     1       9.800   3.228  -2.845  0.00  0.00    -0.247 NA
ATOM     14  N   UNL     1      11.091   3.756  -5.278  0.00  0.00    -0.259 NA
ATOM     27  C   UNL     1      10.834   4.089  -2.933  0.00  0.00    +0.143 A 
ATOM     30  C   UNL     1      11.468   4.348  -4.128  0.00  0.00    +0.143 A 
ATOM     34  C   UNL     1       9.423   2.637  -3.995  0.00  0.00    +0.131 A 
ATOM     36  C   UNL     1      10.057   2.896  -5.190  0.00  0.00    +0.130 A 
ENDBRANCH  24  27
ENDBRANCH  15  10
BRANCH  21  23
ATOM     23  C   UNL     1       9.107   5.996   5.424  0.00  0.00    +0.256 C 
BRANCH  23   4
ATOM      4  O   UNL     1       9.814   6.601   6.478  0.00  0.00    -0.359 OA
BRANCH   4  29
ATOM     29  C   UNL     1       9.271   6.260   7.753  0.00  0.00    +0.280 C 
BRANCH  29  35
ATOM      8  O   UNL     1       9.511   4.053   8.742  0.00  0.00    -0.248 OA
ATOM     35  C   UNL     1      10.016   5.086   8.326  0.00  0.00    +0.331 C 
BRANCH  35   7
ATOM      7  O   UNL     1      11.351   5.330   8.323  0.00  0.00    -0.479 OA
ATOM     41  H   UNL     1      11.646   5.743   7.483  0.00  0.00    +0.295 HD
ENDBRANCH  35   7
ENDBRANCH  29  35
ENDBRANCH   4  29
ENDBRANCH  23   4
ENDBRANCH  21  23
TORSDOF 12
ENDMDL
MODEL 9
REMARK VINA RESULT:      -5.7     26.429     29.478
REMARK  Name = 7134287
REMARK  12 active torsions:
REMARK  status: ('A' for Active; 'I' for Inactive)
REMARK    1  A    between atoms: O_4  and  C_23
REMARK    2  A    between atoms: O_4  and  C_29
REMARK    3  A    between atoms: O_7  and  C_35
REMARK    4  A    between atoms: N_10  and  C_15
REMARK    5  A    between atoms: N_11  and  C_22
REMARK    6  A    between atoms: C_16  and  C_20
REMARK    7  A    between atoms: C_21  and  C_23
REMARK    8  A    between atoms: C_22  and  C_25
REMARK    9  A    between atoms: C_22  and  C_26
REMARK   10  A    between atoms: C_24  and  C_27
REMARK   11  A    between atoms: C_25  and  C_28
REMARK   12  A    between atoms: C_29  and  C_35
REMARK                            x       y       z     vdW  Elec       q    Type
REMARK                         _______ _______ _______ _____ _____    ______ ____
ROOT
ATOM      3  O   UNL     1      -6.356 -14.593  15.509  0.00  0.00    -0.273 OA
ATOM      9  N   UNL     1      -6.869 -12.327  15.353  0.00  0.00    -0.288 N 
ATOM     15  C   UNL     1      -8.902 -10.232  15.366  0.00  0.00    +0.077 C 
ATOM     16  C   UNL     1      -6.472 -10.950  15.014  0.00  0.00    +0.164 C 
ATOM     17  C   UNL     1      -7.638 -10.094  14.514  0.00  0.00    +0.054 C 
ATOM     18  C   UNL     1      -9.263 -11.706  15.543  0.00  0.00    +0.041 C 
ATOM     19  C   UNL     1      -8.098 -12.482  16.141  0.00  0.00    +0.110 C 
ATOM     21  C   UNL     1      -6.083 -13.459  15.106  0.00  0.00    +0.242 C 
ENDROOT
BRANCH  16  20
ATOM      2  O   UNL     1      -5.541  -9.176  16.313  0.00  0.00    -0.274 OA
ATOM     11  N   UNL     1      -5.598 -11.322  17.213  0.00  0.00    -0.302 N 
ATOM     20  C   UNL     1      -5.829 -10.368  16.238  0.00  0.00    +0.234 C 
ATOM     38  H   UNL     1      -5.805 -12.295  17.009  0.00  0.00    +0.150 HD
BRANCH  11  22
ATOM     22  C   UNL     1      -4.968 -11.022  18.479  0.00  0.00    +0.163 C 
BRANCH  22  26
ATOM      6  O   UNL     1      -3.562 -12.358  19.944  0.00  0.00    -0.274 OA
ATOM     12  N   UNL     1      -4.571 -13.384  18.153  0.00  0.00    -0.328 N 
ATOM     26  C   UNL     1      -4.275 -12.294  18.945  0.00  0.00    +0.231 C 
ATOM     39  H   UNL     1      -4.185 -14.298  18.362  0.00  0.00    +0.145 HD
ATOM     40  H   UNL     1      -5.164 -13.318  17.333  0.00  0.00    +0.145 HD
ENDBRANCH  22  26
BRANCH  22  25
ATOM     25  C   UNL     1      -5.976 -10.546  19.532  0.00  0.00    +0.074 C 
BRANCH  25  28
ATOM      1  S   UNL     1      -8.731 -10.617  19.126  0.00  0.00    -0.102 S 
ATOM     28  C   UNL     1      -7.244 -11.366  19.527  0.00  0.00    -0.008 A 
ATOM     31  C   UNL     1      -7.401 -12.705  19.813  0.00  0.00    +0.011 A 
ATOM     32  C   UNL     1      -8.759 -13.121  19.700  0.00  0.00    +0.008 A 
ATOM     33  C   UNL     1      -9.588 -12.084  19.333  0.00  0.00    +0.045 A 
ENDBRANCH  25  28
ENDBRANCH  22  25
ENDBRANCH  11  22
ENDBRANCH  16  20
BRANCH  15  10
ATOM      5  O   UNL     1      -9.792  -7.593  16.066  0.00  0.00    -0.268 OA
ATOM     10  N   UNL     1     -10.002  -9.508  14.775  0.00  0.00    -0.307 N 
ATOM     24  C   UNL     1     -10.359  -8.231  15.182  0.00  0.00    +0.264 C 
ATOM     37  H   UNL     1     -10.566  -9.976  14.071  0.00  0.00    +0.149 HD
BRANCH  24  27
ATOM     13  N   UNL     1     -12.033  -8.321  13.448  0.00  0.00    -0.247 NA
ATOM     14  N   UNL     1     -13.131  -5.880  14.284  0.00  0.00    -0.259 NA
ATOM     27  C   UNL     1     -11.530  -7.632  14.492  0.00  0.00    +0.143 A 
ATOM     30  C   UNL     1     -12.069  -6.433  14.903  0.00  0.00    +0.143 A 
ATOM     34  C   UNL     1     -13.095  -7.768  12.831  0.00  0.00    +0.131 A 
ATOM     36  C   UNL     1     -13.634  -6.569  13.242  0.00  0.00    +0.130 A 
ENDBRANCH  24  27
ENDBRANCH  15  10
BRANCH  21  23
ATOM     23  C   UNL     1      -4.837 -13.254  14.281  0.00  0.00    +0.256 C 
BRANCH  23   4
ATOM      4  O   UNL     1      -3.773 -13.114  15.191  0.00  0.00    -0.359 OA
BRANCH   4  29
ATOM     29  C   UNL     1      -2.647 -12.465  14.603  0.00  0.00    +0.280 C 
BRANCH  29  35
ATOM      8  O   UNL     1      -2.119 -10.911  16.394  0.00  0.00    -0.248 OA
ATOM     35  C   UNL     1      -2.449 -11.116  15.235  0.00  0.00    +0.331 C 
BRANCH  35   7
ATOM      7  O   UNL     1      -2.692 -10.133  14.330  0.00  0.00    -0.479 OA
ATOM     41  H   UNL     1      -2.362 -10.369  13.437  0.00  0.00    +0.295 HD
ENDBRANCH  35   7
ENDBRANCH  29  35
ENDBRANCH   4  29
ENDBRANCH  23   4
ENDBRANCH  21  23
TORSDOF 12
ENDMDL
MODEL 10
REMARK VINA RESULT:      -5.6     26.874     31.310
REMARK  Name = 7134287
REMARK  12 active torsions:
REMARK  status: ('A' for Active; 'I' for Inactive)
REMARK    1  A    between atoms: O_4  and  C_23
REMARK    2  A    between atoms: O_4  and  C_29
REMARK    3  A    between atoms: O_7  and  C_35
REMARK    4  A    between atoms: N_10  and  C_15
REMARK    5  A    between atoms: N_11  and  C_22
REMARK    6  A    between atoms: C_16  and  C_20
REMARK    7  A    between atoms: C_21  and  C_23
REMARK    8  A    between atoms: C_22  and  C_25
REMARK    9  A    between atoms: C_22  and  C_26
REMARK   10  A    between atoms: C_24  and  C_27
REMARK   11  A    between atoms: C_25  and  C_28
REMARK   12  A    between atoms: C_29  and  C_35
REMARK                            x       y       z     vdW  Elec       q    Type
REMARK                         _______ _______ _______ _____ _____    ______ ____
ROOT
ATOM      3  O   UNL     1     -15.715   5.290  20.882  0.00  0.00    -0.273 OA
ATOM      9  N   UNL     1     -14.315   7.151  20.895  0.00  0.00    -0.288 N 
ATOM     15  C   UNL     1     -13.257   9.475  19.481  0.00  0.00    +0.077 C 
ATOM     16  C   UNL     1     -13.218   7.916  21.509  0.00  0.00    +0.164 C 
ATOM     17  C   UNL     1     -12.397   8.712  20.491  0.00  0.00    +0.054 C 
ATOM     18  C   UNL     1     -14.277   8.537  18.838  0.00  0.00    +0.041 C 
ATOM     19  C   UNL     1     -15.131   7.855  19.898  0.00  0.00    +0.110 C 
ATOM     21  C   UNL     1     -14.714   5.873  21.306  0.00  0.00    +0.242 C 
ENDROOT
BRANCH  16  20
ATOM      2  O   UNL     1     -14.903   8.524  23.088  0.00  0.00    -0.274 OA
ATOM     11  N   UNL     1     -13.071   9.930  22.799  0.00  0.00    -0.302 N 
ATOM     20  C   UNL     1     -13.833   8.801  22.553  0.00  0.00    +0.234 C 
ATOM     38  H   UNL     1     -12.240  10.096  22.237  0.00  0.00    +0.150 HD
BRANCH  11  22
ATOM     22  C   UNL     1     -13.454  10.953  23.745  0.00  0.00    +0.163 C 
BRANCH  22  26
ATOM      6  O   UNL     1     -15.467  12.129  23.059  0.00  0.00    -0.274 OA
ATOM     12  N   UNL     1     -13.448  12.818  22.208  0.00  0.00    -0.328 N 
ATOM     26  C   UNL     1     -14.248  11.998  22.975  0.00  0.00    +0.231 C 
ATOM     39  H   UNL     1     -13.850  13.568  21.655  0.00  0.00    +0.145 HD
ATOM     40  H   UNL     1     -12.442  12.701  22.150  0.00  0.00    +0.145 HD
ENDBRANCH  22  26
BRANCH  22  25
ATOM     25  C   UNL     1     -12.242  11.598  24.428  0.00  0.00    +0.074 C 
BRANCH  25  28
ATOM      1  S   UNL     1     -13.180  10.734  26.905  0.00  0.00    -0.102 S 
ATOM     28  C   UNL     1     -11.927  10.960  25.761  0.00  0.00    -0.008 A 
ATOM     31  C   UNL     1     -10.713  10.506  26.227  0.00  0.00    +0.011 A 
ATOM     32  C   UNL     1     -10.814   9.965  27.542  0.00  0.00    +0.008 A 
ATOM     33  C   UNL     1     -12.100  10.027  28.029  0.00  0.00    +0.045 A 
ENDBRANCH  25  28
ENDBRANCH  22  25
ENDBRANCH  11  22
ENDBRANCH  16  20
BRANCH  15  10
ATOM      5  O   UNL     1     -11.909  12.002  19.686  0.00  0.00    -0.268 OA
ATOM     10  N   UNL     1     -12.434  10.098  18.472  0.00  0.00    -0.307 N 
ATOM     24  C   UNL     1     -11.821  11.327  18.664  0.00  0.00    +0.264 C 
ATOM     37  H   UNL     1     -12.345   9.639  17.570  0.00  0.00    +0.149 HD
BRANCH  24  27
ATOM     13  N   UNL     1      -9.952  12.598  17.822  0.00  0.00    -0.247 NA
ATOM     14  N   UNL     1     -10.666  12.026  15.171  0.00  0.00    -0.259 NA
ATOM     27  C   UNL     1     -11.027  11.844  17.519  0.00  0.00    +0.143 A 
ATOM     30  C   UNL     1     -11.378  11.563  16.217  0.00  0.00    +0.143 A 
ATOM     34  C   UNL     1      -9.240  13.061  16.775  0.00  0.00    +0.131 A 
ATOM     36  C   UNL     1      -9.591  12.780  15.474  0.00  0.00    +0.130 A 
ENDBRANCH  24  27
ENDBRANCH  15  10
BRANCH  21  23
ATOM     23  C   UNL     1     -13.839   5.183  22.323  0.00  0.00    +0.256 C 
BRANCH  23   4
ATOM      4  O   UNL     1     -14.486   5.315  23.564  0.00  0.00    -0.359 OA
BRANCH   4  29
ATOM     29  C   UNL     1     -14.749   4.049  24.169  0.00  0.00    +0.280 C 
BRANCH  29  35
ATOM      8  O   UNL     1     -17.164   4.004  24.435  0.00  0.00    -0.248 OA
ATOM     35  C   UNL     1     -16.157   3.620  23.859  0.00  0.00    +0.331 C 
BRANCH  35   7
ATOM      7  O   UNL     1     -16.161   2.729  22.835  0.00  0.00    -0.479 OA
ATOM     41  H   UNL     1     -17.072   2.512  22.542  0.00  0.00    +0.295 HD
ENDBRANCH  35   7
ENDBRANCH  29  35
ENDBRANCH   4  29
ENDBRANCH  23   4
ENDBRANCH  21  23
TORSDOF 12
ENDMDL
