MODEL 1
REMARK VINA RESULT:      -6.6      0.000      0.000
REMARK  Name = 51137056
REMARK  3 active torsions:
REMARK  status: ('A' for Active; 'I' for Inactive)
REMARK    1  A    between atoms: N_3  and  C_9
REMARK    2  A    between atoms: C_5  and  C_10
REMARK    3  A    between atoms: C_9  and  C_11
REMARK                            x       y       z     vdW  Elec       q    Type
REMARK                         _______ _______ _______ _____ _____    ______ ____
ROOT
ATOM      3  N   UNL     1      -2.122 -11.042  13.610  0.00  0.00    -0.297 NA
ATOM      5  C   UNL     1      -3.104 -10.264  15.592  0.00  0.00    +0.090 C 
ATOM      6  C   UNL     1      -1.716 -10.850  15.901  0.00  0.00    +0.029 C 
ATOM      7  C   UNL     1      -3.443 -10.785  14.189  0.00  0.00    +0.097 C 
ATOM      8  C   UNL     1      -1.360 -11.688  14.679  0.00  0.00    +0.085 C 
ENDROOT
BRANCH   5  10
ATOM      2  O   UNL     1      -5.361  -9.940  16.454  0.00  0.00    -0.439 OA
ATOM      4  N   UNL     1      -4.101 -11.407  17.637  0.00  0.00    -0.213 NA
ATOM     10  C   UNL     1      -4.171 -10.585  16.613  0.00  0.00    +0.201 A 
ATOM     12  C   UNL     1      -6.120 -10.408  17.489  0.00  0.00    +0.155 A 
ATOM     13  C   UNL     1      -5.345 -11.305  18.210  0.00  0.00    +0.110 A 
ATOM     16  C   UNL     1      -7.432 -10.069  17.796  0.00  0.00    +0.048 A 
ATOM     17  C   UNL     1      -5.903 -11.929  19.335  0.00  0.00    +0.031 A 
ATOM     20  C   UNL     1      -7.973 -10.701  18.921  0.00  0.00    +0.004 A 
ATOM     21  C   UNL     1      -7.226 -11.614  19.677  0.00  0.00    +0.002 A 
ENDBRANCH   5  10
BRANCH   3   9
ATOM      9  C   UNL     1      -2.193 -11.860  12.408  0.00  0.00    +0.119 C 
BRANCH   9  11
ATOM      1 CL   UNL     1      -5.562 -11.977   8.433  0.00  0.00    -0.084 Cl
ATOM     11  C   UNL     1      -2.876 -11.139  11.277  0.00  0.00    -0.032 A 
ATOM     14  C   UNL     1      -3.795 -11.814  10.473  0.00  0.00    +0.025 A 
ATOM     15  C   UNL     1      -2.588  -9.796  11.032  0.00  0.00    +0.005 A 
ATOM     18  C   UNL     1      -4.428 -11.145   9.425  0.00  0.00    +0.041 A 
ATOM     19  C   UNL     1      -3.221  -9.128   9.984  0.00  0.00    +0.002 A 
ATOM     22  C   UNL     1      -4.141  -9.802   9.181  0.00  0.00    +0.020 A 
ENDBRANCH   9  11
ENDBRANCH   3   9
TORSDOF 3
ENDMDL
MODEL 2
REMARK VINA RESULT:      -6.6      2.329      3.165
REMARK  Name = 51137056
REMARK  3 active torsions:
REMARK  status: ('A' for Active; 'I' for Inactive)
REMARK    1  A    between atoms: N_3  and  C_9
REMARK    2  A    between atoms: C_5  and  C_10
REMARK    3  A    between atoms: C_9  and  C_11
REMARK                            x       y       z     vdW  Elec       q    Type
REMARK                         _______ _______ _______ _____ _____    ______ ____
ROOT
ATOM      3  N   UNL     1      -4.027 -10.961  14.842  0.00  0.00    -0.297 NA
ATOM      5  C   UNL     1      -5.331  -9.895  16.474  0.00  0.00    +0.090 C 
ATOM      6  C   UNL     1      -4.344 -10.861  17.153  0.00  0.00    +0.029 C 
ATOM      7  C   UNL     1      -5.333 -10.315  14.999  0.00  0.00    +0.097 C 
ATOM      8  C   UNL     1      -3.867 -11.785  16.040  0.00  0.00    +0.085 C 
ENDROOT
BRANCH   5  10
ATOM      2  O   UNL     1      -6.913 -10.699  18.146  0.00  0.00    -0.439 OA
ATOM      4  N   UNL     1      -7.755  -9.156  16.716  0.00  0.00    -0.213 NA
ATOM     10  C   UNL     1      -6.714  -9.871  17.081  0.00  0.00    +0.201 A 
ATOM     12  C   UNL     1      -8.217 -10.478  18.485  0.00  0.00    +0.155 A 
ATOM     13  C   UNL     1      -8.728  -9.533  17.608  0.00  0.00    +0.110 A 
ATOM     16  C   UNL     1      -8.935 -11.073  19.516  0.00  0.00    +0.048 A 
ATOM     17  C   UNL     1     -10.064  -9.132  17.749  0.00  0.00    +0.031 A 
ATOM     20  C   UNL     1     -10.266 -10.661  19.642  0.00  0.00    +0.004 A 
ATOM     21  C   UNL     1     -10.822  -9.710  18.777  0.00  0.00    +0.002 A 
ENDBRANCH   5  10
BRANCH   3   9
ATOM      9  C   UNL     1      -3.936 -11.740  13.616  0.00  0.00    +0.119 C 
BRANCH   9  11
ATOM      1 CL   UNL     1      -0.394  -8.871  11.090  0.00  0.00    -0.084 Cl
ATOM     11  C   UNL     1      -3.580 -10.883  12.430  0.00  0.00    -0.032 A 
ATOM     14  C   UNL     1      -2.301 -10.338  12.323  0.00  0.00    +0.025 A 
ATOM     15  C   UNL     1      -4.531 -10.634  11.440  0.00  0.00    +0.005 A 
ATOM     18  C   UNL     1      -1.972  -9.544  11.223  0.00  0.00    +0.041 A 
ATOM     19  C   UNL     1      -4.201  -9.841  10.342  0.00  0.00    +0.002 A 
ATOM     22  C   UNL     1      -2.922  -9.296  10.233  0.00  0.00    +0.020 A 
ENDBRANCH   9  11
ENDBRANCH   3   9
TORSDOF 3
ENDMDL
MODEL 3
REMARK VINA RESULT:      -6.6      2.715      4.816
REMARK  Name = 51137056
REMARK  3 active torsions:
REMARK  status: ('A' for Active; 'I' for Inactive)
REMARK    1  A    between atoms: N_3  and  C_9
REMARK    2  A    between atoms: C_5  and  C_10
REMARK    3  A    between atoms: C_9  and  C_11
REMARK                            x       y       z     vdW  Elec       q    Type
REMARK                         _______ _______ _______ _____ _____    ______ ____
ROOT
ATOM      3  N   UNL     1      -4.809 -11.538  17.444  0.00  0.00    -0.297 NA
ATOM      5  C   UNL     1      -6.494 -10.568  18.755  0.00  0.00    +0.090 C 
ATOM      6  C   UNL     1      -5.819 -11.705  19.542  0.00  0.00    +0.029 C 
ATOM      7  C   UNL     1      -6.062 -10.794  17.300  0.00  0.00    +0.097 C 
ATOM      8  C   UNL     1      -5.072 -12.521  18.495  0.00  0.00    +0.085 C 
ENDROOT
BRANCH   5  10
ATOM      2  O   UNL     1      -8.658  -9.769  17.968  0.00  0.00    -0.439 OA
ATOM      4  N   UNL     1      -8.744 -11.017  19.858  0.00  0.00    -0.213 NA
ATOM     10  C   UNL     1      -7.994 -10.487  18.918  0.00  0.00    +0.201 A 
ATOM     12  C   UNL     1      -9.965  -9.861  18.354  0.00  0.00    +0.155 A 
ATOM     13  C   UNL     1     -10.013 -10.625  19.511  0.00  0.00    +0.110 A 
ATOM     16  C   UNL     1     -11.073  -9.303  17.726  0.00  0.00    +0.048 A 
ATOM     17  C   UNL     1     -11.257 -10.867  20.111  0.00  0.00    +0.031 A 
ATOM     20  C   UNL     1     -12.305  -9.554  18.339  0.00  0.00    +0.004 A 
ATOM     21  C   UNL     1     -12.399 -10.320  19.508  0.00  0.00    +0.002 A 
ENDBRANCH   5  10
BRANCH   3   9
ATOM      9  C   UNL     1      -4.386 -12.160  16.198  0.00  0.00    +0.119 C 
BRANCH   9  11
ATOM      1 CL   UNL     1      -2.326 -10.268  11.800  0.00  0.00    -0.084 Cl
ATOM     11  C   UNL     1      -3.295 -11.375  15.520  0.00  0.00    -0.032 A 
ATOM     14  C   UNL     1      -3.314 -11.205  14.136  0.00  0.00    +0.025 A 
ATOM     15  C   UNL     1      -2.264 -10.817  16.277  0.00  0.00    +0.005 A 
ATOM     18  C   UNL     1      -2.303 -10.477  13.508  0.00  0.00    +0.041 A 
ATOM     19  C   UNL     1      -1.253 -10.090  15.649  0.00  0.00    +0.002 A 
ATOM     22  C   UNL     1      -1.273  -9.919  14.265  0.00  0.00    +0.020 A 
ENDBRANCH   9  11
ENDBRANCH   3   9
TORSDOF 3
ENDMDL
MODEL 4
REMARK VINA RESULT:      -6.5     27.027     29.139
REMARK  Name = 51137056
REMARK  3 active torsions:
REMARK  status: ('A' for Active; 'I' for Inactive)
REMARK    1  A    between atoms: N_3  and  C_9
REMARK    2  A    between atoms: C_5  and  C_10
REMARK    3  A    between atoms: C_9  and  C_11
REMARK                            x       y       z     vdW  Elec       q    Type
REMARK                         _______ _______ _______ _____ _____    ______ ____
ROOT
ATOM      3  N   UNL     1      16.264   7.728  20.620  0.00  0.00    -0.297 NA
ATOM      5  C   UNL     1      18.337   6.785  20.063  0.00  0.00    +0.090 C 
ATOM      6  C   UNL     1      17.211   5.994  19.376  0.00  0.00    +0.029 C 
ATOM      7  C   UNL     1      17.628   7.614  21.141  0.00  0.00    +0.097 C 
ATOM      8  C   UNL     1      15.940   6.393  20.115  0.00  0.00    +0.085 C 
ENDROOT
BRANCH   5  10
ATOM      2  O   UNL     1      20.076   6.422  21.732  0.00  0.00    -0.439 OA
ATOM      4  N   UNL     1      19.926   4.798  20.158  0.00  0.00    -0.213 NA
ATOM     10  C   UNL     1      19.461   5.940  20.615  0.00  0.00    +0.201 A 
ATOM     12  C   UNL     1      21.028   5.481  22.005  0.00  0.00    +0.155 A 
ATOM     13  C   UNL     1      20.932   4.489  21.040  0.00  0.00    +0.110 A 
ATOM     16  C   UNL     1      21.943   5.483  23.051  0.00  0.00    +0.048 A 
ATOM     17  C   UNL     1      21.812   3.399  21.100  0.00  0.00    +0.031 A 
ATOM     20  C   UNL     1      22.812   4.388  23.097  0.00  0.00    +0.004 A 
ATOM     21  C   UNL     1      22.750   3.365  22.142  0.00  0.00    +0.002 A 
ENDBRANCH   5  10
BRANCH   3   9
ATOM      9  C   UNL     1      15.319   8.183  21.630  0.00  0.00    +0.119 C 
BRANCH   9  11
ATOM      1 CL   UNL     1      10.202   7.268  22.005  0.00  0.00    -0.084 Cl
ATOM     11  C   UNL     1      13.934   8.358  21.065  0.00  0.00    -0.032 A 
ATOM     14  C   UNL     1      12.838   7.797  21.720  0.00  0.00    +0.025 A 
ATOM     15  C   UNL     1      13.748   9.081  19.887  0.00  0.00    +0.005 A 
ATOM     18  C   UNL     1      11.555   7.960  21.197  0.00  0.00    +0.041 A 
ATOM     19  C   UNL     1      12.466   9.243  19.364  0.00  0.00    +0.002 A 
ATOM     22  C   UNL     1      11.369   8.683  20.019  0.00  0.00    +0.020 A 
ENDBRANCH   9  11
ENDBRANCH   3   9
TORSDOF 3
ENDMDL
MODEL 5
REMARK VINA RESULT:      -6.4     26.907     28.984
REMARK  Name = 51137056
REMARK  3 active torsions:
REMARK  status: ('A' for Active; 'I' for Inactive)
REMARK    1  A    between atoms: N_3  and  C_9
REMARK    2  A    between atoms: C_5  and  C_10
REMARK    3  A    between atoms: C_9  and  C_11
REMARK                            x       y       z     vdW  Elec       q    Type
REMARK                         _______ _______ _______ _____ _____    ______ ____
ROOT
ATOM      3  N   UNL     1      15.816   7.712  20.542  0.00  0.00    -0.297 NA
ATOM      5  C   UNL     1      18.015   6.989  20.164  0.00  0.00    +0.090 C 
ATOM      6  C   UNL     1      17.029   6.011  19.501  0.00  0.00    +0.029 C 
ATOM      7  C   UNL     1      17.153   7.811  21.131  0.00  0.00    +0.097 C 
ATOM      8  C   UNL     1      15.681   6.311  20.144  0.00  0.00    +0.085 C 
ENDROOT
BRANCH   5  10
ATOM      2  O   UNL     1      19.645   5.180  20.273  0.00  0.00    -0.439 OA
ATOM      4  N   UNL     1      19.857   6.739  21.903  0.00  0.00    -0.213 NA
ATOM     10  C   UNL     1      19.199   6.337  20.839  0.00  0.00    +0.201 A 
ATOM     12  C   UNL     1      20.696   4.819  21.067  0.00  0.00    +0.155 A 
ATOM     13  C   UNL     1      20.822   5.776  22.063  0.00  0.00    +0.110 A 
ATOM     16  C   UNL     1      21.513   3.703  20.931  0.00  0.00    +0.048 A 
ATOM     17  C   UNL     1      21.840   5.630  23.016  0.00  0.00    +0.031 A 
ATOM     20  C   UNL     1      22.523   3.573  21.891  0.00  0.00    +0.004 A 
ATOM     21  C   UNL     1      22.685   4.516  22.914  0.00  0.00    +0.002 A 
ENDBRANCH   5  10
BRANCH   3   9
ATOM      9  C   UNL     1      14.770   8.130  21.464  0.00  0.00    +0.119 C 
BRANCH   9  11
ATOM      1 CL   UNL     1      12.132   9.305  17.126  0.00  0.00    -0.084 Cl
ATOM     11  C   UNL     1      13.446   8.306  20.769  0.00  0.00    -0.032 A 
ATOM     14  C   UNL     1      13.407   8.680  19.427  0.00  0.00    +0.025 A 
ATOM     15  C   UNL     1      12.258   8.095  21.469  0.00  0.00    +0.005 A 
ATOM     18  C   UNL     1      12.180   8.843  18.782  0.00  0.00    +0.041 A 
ATOM     19  C   UNL     1      11.031   8.258  20.826  0.00  0.00    +0.002 A 
ATOM     22  C   UNL     1      10.992   8.631  19.483  0.00  0.00    +0.020 A 
ENDBRANCH   9  11
ENDBRANCH   3   9
TORSDOF 3
ENDMDL
MODEL 6
REMARK VINA RESULT:      -6.3     28.399     30.389
REMARK  Name = 51137056
REMARK  3 active torsions:
REMARK  status: ('A' for Active; 'I' for Inactive)
REMARK    1  A    between atoms: N_3  and  C_9
REMARK    2  A    between atoms: C_5  and  C_10
REMARK    3  A    between atoms: C_9  and  C_11
REMARK                            x       y       z     vdW  Elec       q    Type
REMARK                         _______ _______ _______ _____ _____    ______ ____
ROOT
ATOM      3  N   UNL     1      21.512   4.612  21.044  0.00  0.00    -0.297 NA
ATOM      5  C   UNL     1      19.915   6.263  20.572  0.00  0.00    +0.090 C 
ATOM      6  C   UNL     1      20.676   6.634  21.857  0.00  0.00    +0.029 C 
ATOM      7  C   UNL     1      20.235   4.780  20.346  0.00  0.00    +0.097 C 
ATOM      8  C   UNL     1      21.355   5.344  22.300  0.00  0.00    +0.085 C 
ENDROOT
BRANCH   5  10
ATOM      2  O   UNL     1      17.772   6.418  19.422  0.00  0.00    -0.439 OA
ATOM      4  N   UNL     1      17.692   6.901  21.635  0.00  0.00    -0.213 NA
ATOM     10  C   UNL     1      18.432   6.546  20.609  0.00  0.00    +0.201 A 
ATOM     12  C   UNL     1      16.479   6.725  19.740  0.00  0.00    +0.155 A 
ATOM     13  C   UNL     1      16.435   7.020  21.095  0.00  0.00    +0.110 A 
ATOM     16  C   UNL     1      15.382   6.748  18.888  0.00  0.00    +0.048 A 
ATOM     17  C   UNL     1      15.206   7.371  21.672  0.00  0.00    +0.031 A 
ATOM     20  C   UNL     1      14.164   7.100  19.480  0.00  0.00    +0.004 A 
ATOM     21  C   UNL     1      14.075   7.406  20.844  0.00  0.00    +0.002 A 
ENDBRANCH   5  10
BRANCH   3   9
ATOM      9  C   UNL     1      21.849   3.212  21.257  0.00  0.00    +0.119 C 
BRANCH   9  11
ATOM      1 CL   UNL     1      25.968   0.155  22.181  0.00  0.00    -0.084 Cl
ATOM     11  C   UNL     1      23.326   2.960  21.108  0.00  0.00    -0.032 A 
ATOM     14  C   UNL     1      23.896   1.809  21.650  0.00  0.00    +0.025 A 
ATOM     15  C   UNL     1      24.125   3.880  20.427  0.00  0.00    +0.005 A 
ATOM     18  C   UNL     1      25.265   1.576  21.512  0.00  0.00    +0.041 A 
ATOM     19  C   UNL     1      25.493   3.647  20.289  0.00  0.00    +0.002 A 
ATOM     22  C   UNL     1      26.063   2.495  20.831  0.00  0.00    +0.020 A 
ENDBRANCH   9  11
ENDBRANCH   3   9
TORSDOF 3
ENDMDL
MODEL 7
REMARK VINA RESULT:      -6.2     20.281     21.040
REMARK  Name = 51137056
REMARK  3 active torsions:
REMARK  status: ('A' for Active; 'I' for Inactive)
REMARK    1  A    between atoms: N_3  and  C_9
REMARK    2  A    between atoms: C_5  and  C_10
REMARK    3  A    between atoms: C_9  and  C_11
REMARK                            x       y       z     vdW  Elec       q    Type
REMARK                         _______ _______ _______ _____ _____    ______ ____
ROOT
ATOM      3  N   UNL     1     -12.904   7.465  20.714  0.00  0.00    -0.297 NA
ATOM      5  C   UNL     1     -14.808   6.302  21.438  0.00  0.00    +0.090 C 
ATOM      6  C   UNL     1     -14.906   7.774  21.876  0.00  0.00    +0.029 C 
ATOM      7  C   UNL     1     -13.334   6.107  21.057  0.00  0.00    +0.097 C 
ATOM      8  C   UNL     1     -13.489   8.319  21.748  0.00  0.00    +0.085 C 
ENDROOT
BRANCH   5  10
ATOM      2  O   UNL     1     -16.180   4.372  22.016  0.00  0.00    -0.439 OA
ATOM      4  N   UNL     1     -14.959   5.209  23.732  0.00  0.00    -0.213 NA
ATOM     10  C   UNL     1     -15.288   5.301  22.463  0.00  0.00    +0.201 A 
ATOM     12  C   UNL     1     -16.437   3.616  23.123  0.00  0.00    +0.155 A 
ATOM     13  C   UNL     1     -15.688   4.131  24.171  0.00  0.00    +0.110 A 
ATOM     16  C   UNL     1     -17.288   2.521  23.221  0.00  0.00    +0.048 A 
ATOM     17  C   UNL     1     -15.778   3.522  25.431  0.00  0.00    +0.031 A 
ATOM     20  C   UNL     1     -17.366   1.926  24.485  0.00  0.00    +0.004 A 
ATOM     21  C   UNL     1     -16.627   2.415  25.570  0.00  0.00    +0.002 A 
ENDBRANCH   5  10
BRANCH   3   9
ATOM      9  C   UNL     1     -11.456   7.589  20.647  0.00  0.00    +0.119 C 
BRANCH   9  11
ATOM      1 CL   UNL     1     -10.541   7.962  15.530  0.00  0.00    -0.084 Cl
ATOM     11  C   UNL     1     -11.017   8.425  19.474  0.00  0.00    -0.032 A 
ATOM     14  C   UNL     1     -10.986   7.870  18.195  0.00  0.00    +0.025 A 
ATOM     15  C   UNL     1     -10.640   9.754  19.668  0.00  0.00    +0.005 A 
ATOM     18  C   UNL     1     -10.579   8.646  17.108  0.00  0.00    +0.041 A 
ATOM     19  C   UNL     1     -10.233  10.528  18.582  0.00  0.00    +0.002 A 
ATOM     22  C   UNL     1     -10.203   9.975  17.303  0.00  0.00    +0.020 A 
ENDBRANCH   9  11
ENDBRANCH   3   9
TORSDOF 3
ENDMDL
MODEL 8
REMARK VINA RESULT:      -6.2     27.296     29.145
REMARK  Name = 51137056
REMARK  3 active torsions:
REMARK  status: ('A' for Active; 'I' for Inactive)
REMARK    1  A    between atoms: N_3  and  C_9
REMARK    2  A    between atoms: C_5  and  C_10
REMARK    3  A    between atoms: C_9  and  C_11
REMARK                            x       y       z     vdW  Elec       q    Type
REMARK                         _______ _______ _______ _____ _____    ______ ____
ROOT
ATOM      3  N   UNL     1      18.889   6.199  20.239  0.00  0.00    -0.297 NA
ATOM      5  C   UNL     1      17.034   7.633  20.214  0.00  0.00    +0.090 C 
ATOM      6  C   UNL     1      17.813   7.820  21.528  0.00  0.00    +0.029 C 
ATOM      7  C   UNL     1      17.559   6.311  19.637  0.00  0.00    +0.097 C 
ATOM      8  C   UNL     1      18.706   6.591  21.637  0.00  0.00    +0.085 C 
ENDROOT
BRANCH   5  10
ATOM      2  O   UNL     1      14.866   8.506  19.524  0.00  0.00    -0.439 OA
ATOM      4  N   UNL     1      14.777   6.965  21.184  0.00  0.00    -0.213 NA
ATOM     10  C   UNL     1      15.531   7.657  20.358  0.00  0.00    +0.201 A 
ATOM     12  C   UNL     1      13.555   8.327  19.863  0.00  0.00    +0.155 A 
ATOM     13  C   UNL     1      13.505   7.383  20.879  0.00  0.00    +0.110 A 
ATOM     16  C   UNL     1      12.446   8.957  19.312  0.00  0.00    +0.048 A 
ATOM     17  C   UNL     1      12.258   7.022  21.406  0.00  0.00    +0.031 A 
ATOM     20  C   UNL     1      11.209   8.585  19.850  0.00  0.00    +0.004 A 
ATOM     21  C   UNL     1      11.114   7.637  20.877  0.00  0.00    +0.002 A 
ENDBRANCH   5  10
BRANCH   3   9
ATOM      9  C   UNL     1      19.447   4.860  20.109  0.00  0.00    +0.119 C 
BRANCH   9  11
ATOM      1 CL   UNL     1      24.086   7.213  20.432  0.00  0.00    -0.084 Cl
ATOM     11  C   UNL     1      20.891   4.809  20.532  0.00  0.00    -0.032 A 
ATOM     14  C   UNL     1      21.722   5.906  20.311  0.00  0.00    +0.025 A 
ATOM     15  C   UNL     1      21.397   3.663  21.145  0.00  0.00    +0.005 A 
ATOM     18  C   UNL     1      23.060   5.859  20.704  0.00  0.00    +0.041 A 
ATOM     19  C   UNL     1      22.734   3.615  21.538  0.00  0.00    +0.002 A 
ATOM     22  C   UNL     1      23.565   4.713  21.318  0.00  0.00    +0.020 A 
ENDBRANCH   9  11
ENDBRANCH   3   9
TORSDOF 3
ENDMDL
MODEL 9
REMARK VINA RESULT:      -6.2     20.408     21.322
REMARK  Name = 51137056
REMARK  3 active torsions:
REMARK  status: ('A' for Active; 'I' for Inactive)
REMARK    1  A    between atoms: N_3  and  C_9
REMARK    2  A    between atoms: C_5  and  C_10
REMARK    3  A    between atoms: C_9  and  C_11
REMARK                            x       y       z     vdW  Elec       q    Type
REMARK                         _______ _______ _______ _____ _____    ______ ____
ROOT
ATOM      3  N   UNL     1     -15.482   5.962  21.910  0.00  0.00    -0.297 NA
ATOM      5  C   UNL     1     -16.086   3.940  22.932  0.00  0.00    +0.090 C 
ATOM      6  C   UNL     1     -17.349   4.661  22.431  0.00  0.00    +0.029 C 
ATOM      7  C   UNL     1     -14.992   5.015  22.914  0.00  0.00    +0.097 C 
ATOM      8  C   UNL     1     -16.912   6.100  22.186  0.00  0.00    +0.085 C 
ENDROOT
BRANCH   5  10
ATOM      2  O   UNL     1     -16.003   4.058  25.365  0.00  0.00    -0.439 OA
ATOM      4  N   UNL     1     -16.547   2.020  24.538  0.00  0.00    -0.213 NA
ATOM     10  C   UNL     1     -16.231   3.268  24.278  0.00  0.00    +0.201 A 
ATOM     12  C   UNL     1     -16.198   3.214  26.421  0.00  0.00    +0.155 A 
ATOM     13  C   UNL     1     -16.531   1.968  25.910  0.00  0.00    +0.110 A 
ATOM     16  C   UNL     1     -16.092   3.514  27.774  0.00  0.00    +0.048 A 
ATOM     17  C   UNL     1     -16.783   0.916  26.803  0.00  0.00    +0.031 A 
ATOM     20  C   UNL     1     -16.347   2.454  28.650  0.00  0.00    +0.004 A 
ATOM     21  C   UNL     1     -16.686   1.179  28.177  0.00  0.00    +0.002 A 
ENDBRANCH   5  10
BRANCH   3   9
ATOM      9  C   UNL     1     -14.782   7.237  21.961  0.00  0.00    +0.119 C 
BRANCH   9  11
ATOM      1 CL   UNL     1     -13.621   8.292  16.991  0.00  0.00    -0.084 Cl
ATOM     11  C   UNL     1     -13.743   7.352  20.877  0.00  0.00    -0.032 A 
ATOM     14  C   UNL     1     -14.120   7.725  19.587  0.00  0.00    +0.025 A 
ATOM     15  C   UNL     1     -12.405   7.083  21.163  0.00  0.00    +0.005 A 
ATOM     18  C   UNL     1     -13.157   7.832  18.582  0.00  0.00    +0.041 A 
ATOM     19  C   UNL     1     -11.443   7.190  20.158  0.00  0.00    +0.002 A 
ATOM     22  C   UNL     1     -11.819   7.564  18.869  0.00  0.00    +0.020 A 
ENDBRANCH   9  11
ENDBRANCH   3   9
TORSDOF 3
ENDMDL
MODEL 10
REMARK VINA RESULT:      -6.2     26.450     27.797
REMARK  Name = 51137056
REMARK  3 active torsions:
REMARK  status: ('A' for Active; 'I' for Inactive)
REMARK    1  A    between atoms: N_3  and  C_9
REMARK    2  A    between atoms: C_5  and  C_10
REMARK    3  A    between atoms: C_9  and  C_11
REMARK                            x       y       z     vdW  Elec       q    Type
REMARK                         _______ _______ _______ _____ _____    ______ ____
ROOT
ATOM      3  N   UNL     1      13.117   7.414  20.522  0.00  0.00    -0.297 NA
ATOM      5  C   UNL     1      11.689   8.593  21.961  0.00  0.00    +0.090 C 
ATOM      6  C   UNL     1      10.911   8.154  20.709  0.00  0.00    +0.029 C 
ATOM      7  C   UNL     1      13.166   8.427  21.578  0.00  0.00    +0.097 C 
ATOM      8  C   UNL     1      11.979   7.796  19.685  0.00  0.00    +0.085 C 
ENDROOT
BRANCH   5  10
ATOM      2  O   UNL     1      11.389  10.971  21.522  0.00  0.00    -0.439 OA
ATOM      4  N   UNL     1      11.054  10.361  23.679  0.00  0.00    -0.213 NA
ATOM     10  C   UNL     1      11.362   9.981  22.459  0.00  0.00    +0.201 A 
ATOM     12  C   UNL     1      11.062  12.092  22.231  0.00  0.00    +0.155 A 
ATOM     13  C   UNL     1      10.858  11.714  23.551  0.00  0.00    +0.110 A 
ATOM     16  C   UNL     1      10.946  13.391  21.753  0.00  0.00    +0.048 A 
ATOM     17  C   UNL     1      10.509  12.695  24.490  0.00  0.00    +0.031 A 
ATOM     20  C   UNL     1      10.597  14.357  22.703  0.00  0.00    +0.004 A 
ATOM     21  C   UNL     1      10.382  14.019  24.045  0.00  0.00    +0.002 A 
ENDBRANCH   5  10
BRANCH   3   9
ATOM      9  C   UNL     1      14.359   7.337  19.767  0.00  0.00    +0.119 C 
BRANCH   9  11
ATOM      1 CL   UNL     1      14.985  12.121  17.797  0.00  0.00    -0.084 Cl
ATOM     11  C   UNL     1      14.346   8.249  18.569  0.00  0.00    -0.032 A 
ATOM     14  C   UNL     1      14.638   9.604  18.721  0.00  0.00    +0.025 A 
ATOM     15  C   UNL     1      14.041   7.737  17.308  0.00  0.00    +0.005 A 
ATOM     18  C   UNL     1      14.626  10.449  17.610  0.00  0.00    +0.041 A 
ATOM     19  C   UNL     1      14.030   8.582  16.198  0.00  0.00    +0.002 A 
ATOM     22  C   UNL     1      14.322   9.937  16.349  0.00  0.00    +0.020 A 
ENDBRANCH   9  11
ENDBRANCH   3   9
TORSDOF 3
ENDMDL
