MODEL 1
REMARK VINA RESULT:      -7.0      0.000      0.000
REMARK  Name = 40777961
REMARK  10 active torsions:
REMARK  status: ('A' for Active; 'I' for Inactive)
REMARK    1  A    between atoms: O_2  and  C_8
REMARK    2  A    between atoms: O_3  and  C_10
REMARK    3  A    between atoms: N_6  and  C_13
REMARK    4  A    between atoms: N_7  and  C_15
REMARK    5  A    between atoms: N_7  and  C_17
REMARK    6  A    between atoms: C_9  and  C_12
REMARK    7  A    between atoms: C_11  and  C_13
REMARK    8  A    between atoms: C_12  and  C_14
REMARK    9  A    between atoms: C_15  and  C_18
REMARK   10  A    between atoms: C_16  and  C_19
REMARK                            x       y       z     vdW  Elec       q    Type
REMARK                         _______ _______ _______ _____ _____    ______ ____
ROOT
ATOM      1  O   UNL     1     -13.085   3.247  32.376  0.00  0.00    -0.366 OA
ATOM      8  C   UNL     1     -15.369   3.426  32.933  0.00  0.00    +0.175 C 
ATOM      9  C   UNL     1     -13.996   4.031  33.168  0.00  0.00    +0.159 C 
ATOM     10  C   UNL     1     -15.035   1.953  32.806  0.00  0.00    +0.176 C 
ATOM     11  C   UNL     1     -13.718   1.993  32.038  0.00  0.00    +0.167 C 
ENDROOT
BRANCH   8   2
ATOM      2  O   UNL     1     -16.260   3.707  33.990  0.00  0.00    -0.387 OA
ATOM     25  H   UNL     1     -16.920   2.993  34.014  0.00  0.00    +0.210 HD
ENDBRANCH   8   2
BRANCH  10   3
ATOM      3  O   UNL     1     -14.778   1.392  34.093  0.00  0.00    -0.387 OA
ATOM     26  H   UNL     1     -13.966   1.803  34.433  0.00  0.00    +0.210 HD
ENDBRANCH  10   3
BRANCH   9  12
ATOM     12  C   UNL     1     -13.903   5.490  32.758  0.00  0.00    +0.130 C 
BRANCH  12  14
ATOM      4  O   UNL     1     -14.485   6.109  34.999  0.00  0.00    -0.276 OA
ATOM      7  N   UNL     1     -13.293   7.673  33.769  0.00  0.00    -0.300 N 
ATOM     14  C   UNL     1     -13.928   6.440  33.948  0.00  0.00    +0.218 C 
ATOM     17  C   UNL     1     -12.641   8.043  32.518  0.00  0.00    +0.132 C 
BRANCH   7  15
ATOM     15  C   UNL     1     -13.236   8.686  34.822  0.00  0.00    +0.142 C 
BRANCH  15  18
ATOM     18  C   UNL     1     -11.972   8.589  35.625  0.00  0.00    -0.030 A 
ATOM     20  C   UNL     1     -11.881   7.679  36.678  0.00  0.00    +0.005 A 
ATOM     21  C   UNL     1     -10.887   9.411  35.319  0.00  0.00    +0.005 A 
ATOM     22  C   UNL     1     -10.706   7.590  37.425  0.00  0.00    +0.000 A 
ATOM     23  C   UNL     1      -9.712   9.322  36.066  0.00  0.00    +0.000 A 
ATOM     24  C   UNL     1      -9.622   8.411  37.119  0.00  0.00    +0.000 A 
ENDBRANCH  15  18
ENDBRANCH   7  15
ENDBRANCH  12  14
ENDBRANCH   9  12
BRANCH  11  13
ATOM     13  C   UNL     1     -13.910   1.961  30.527  0.00  0.00    +0.138 C 
BRANCH  13   6
ATOM      5  O   UNL     1     -15.083  -0.666  30.131  0.00  0.00    -0.276 OA
ATOM      6  N   UNL     1     -13.286   0.806  29.950  0.00  0.00    -0.313 N 
ATOM     16  C   UNL     1     -13.926  -0.419  29.799  0.00  0.00    +0.210 C 
ATOM     19  C   UNL     1     -13.052  -1.453  29.142  0.00  0.00    +0.109 C 
ATOM     27  H   UNL     1     -12.329   0.903  29.621  0.00  0.00    +0.149 HD
ENDBRANCH  13   6
ENDBRANCH  11  13
TORSDOF 8
ENDMDL
MODEL 2
REMARK VINA RESULT:      -6.4     27.484     29.211
REMARK  Name = 40777961
REMARK  10 active torsions:
REMARK  status: ('A' for Active; 'I' for Inactive)
REMARK    1  A    between atoms: O_2  and  C_8
REMARK    2  A    between atoms: O_3  and  C_10
REMARK    3  A    between atoms: N_6  and  C_13
REMARK    4  A    between atoms: N_7  and  C_15
REMARK    5  A    between atoms: N_7  and  C_17
REMARK    6  A    between atoms: C_9  and  C_12
REMARK    7  A    between atoms: C_11  and  C_13
REMARK    8  A    between atoms: C_12  and  C_14
REMARK    9  A    between atoms: C_15  and  C_18
REMARK   10  A    between atoms: C_16  and  C_19
REMARK                            x       y       z     vdW  Elec       q    Type
REMARK                         _______ _______ _______ _____ _____    ______ ____
ROOT
ATOM      1  O   UNL     1      13.457   8.208  21.046  0.00  0.00    -0.366 OA
ATOM      8  C   UNL     1      11.966   8.460  19.237  0.00  0.00    +0.175 C 
ATOM      9  C   UNL     1      12.139   8.691  20.728  0.00  0.00    +0.159 C 
ATOM     10  C   UNL     1      12.720   7.160  19.042  0.00  0.00    +0.176 C 
ATOM     11  C   UNL     1      13.906   7.337  19.983  0.00  0.00    +0.167 C 
ENDROOT
BRANCH   8   2
ATOM      2  O   UNL     1      10.606   8.377  18.869  0.00  0.00    -0.387 OA
ATOM     25  H   UNL     1      10.543   8.622  17.930  0.00  0.00    +0.210 HD
ENDBRANCH   8   2
BRANCH  10   3
ATOM      3  O   UNL     1      11.942   6.060  19.514  0.00  0.00    -0.387 OA
ATOM     26  H   UNL     1      12.535   5.293  19.585  0.00  0.00    +0.210 HD
ENDBRANCH  10   3
BRANCH   9  12
ATOM     12  C   UNL     1      12.020  10.150  21.129  0.00  0.00    +0.130 C 
BRANCH  12  14
ATOM      4  O   UNL     1      11.063   9.360  23.179  0.00  0.00    -0.276 OA
ATOM      7  N   UNL     1      11.057  11.657  22.851  0.00  0.00    -0.300 N 
ATOM     14  C   UNL     1      11.338  10.338  22.478  0.00  0.00    +0.218 C 
ATOM     17  C   UNL     1      11.391  12.797  22.006  0.00  0.00    +0.132 C 
BRANCH   7  15
ATOM     15  C   UNL     1      10.406  11.991  24.116  0.00  0.00    +0.142 C 
BRANCH  15  18
ATOM     18  C   UNL     1      11.303  12.791  25.015  0.00  0.00    -0.030 A 
ATOM     20  C   UNL     1      12.576  12.316  25.332  0.00  0.00    +0.005 A 
ATOM     21  C   UNL     1      10.864  14.009  25.534  0.00  0.00    +0.005 A 
ATOM     22  C   UNL     1      13.410  13.059  26.168  0.00  0.00    +0.000 A 
ATOM     23  C   UNL     1      11.698  14.751  26.370  0.00  0.00    +0.000 A 
ATOM     24  C   UNL     1      12.971  14.277  26.687  0.00  0.00    +0.000 A 
ENDBRANCH  15  18
ENDBRANCH   7  15
ENDBRANCH  12  14
ENDBRANCH   9  12
BRANCH  11  13
ATOM     13  C   UNL     1      15.104   7.999  19.314  0.00  0.00    +0.138 C 
BRANCH  13   6
ATOM      5  O   UNL     1      16.614   5.623  18.603  0.00  0.00    -0.276 OA
ATOM      6  N   UNL     1      16.335   7.545  19.891  0.00  0.00    -0.313 N 
ATOM     16  C   UNL     1      16.993   6.389  19.486  0.00  0.00    +0.210 C 
ATOM     19  C   UNL     1      18.276   6.158  20.238  0.00  0.00    +0.109 C 
ATOM     27  H   UNL     1      16.751   8.115  20.622  0.00  0.00    +0.149 HD
ENDBRANCH  13   6
ENDBRANCH  11  13
TORSDOF 8
ENDMDL
MODEL 3
REMARK VINA RESULT:      -6.1     28.489     30.452
REMARK  Name = 40777961
REMARK  10 active torsions:
REMARK  status: ('A' for Active; 'I' for Inactive)
REMARK    1  A    between atoms: O_2  and  C_8
REMARK    2  A    between atoms: O_3  and  C_10
REMARK    3  A    between atoms: N_6  and  C_13
REMARK    4  A    between atoms: N_7  and  C_15
REMARK    5  A    between atoms: N_7  and  C_17
REMARK    6  A    between atoms: C_9  and  C_12
REMARK    7  A    between atoms: C_11  and  C_13
REMARK    8  A    between atoms: C_12  and  C_14
REMARK    9  A    between atoms: C_15  and  C_18
REMARK   10  A    between atoms: C_16  and  C_19
REMARK                            x       y       z     vdW  Elec       q    Type
REMARK                         _______ _______ _______ _____ _____    ______ ____
ROOT
ATOM      1  O   UNL     1      11.146   8.814  20.363  0.00  0.00    -0.366 OA
ATOM      8  C   UNL     1      11.777   6.878  21.553  0.00  0.00    +0.175 C 
ATOM      9  C   UNL     1      11.564   7.452  20.162  0.00  0.00    +0.159 C 
ATOM     10  C   UNL     1      10.683   7.571  22.338  0.00  0.00    +0.176 C 
ATOM     11  C   UNL     1      10.688   8.967  21.726  0.00  0.00    +0.167 C 
ENDROOT
BRANCH   8   2
ATOM      2  O   UNL     1      11.671   5.471  21.567  0.00  0.00    -0.387 OA
ATOM     25  H   UNL     1      12.485   5.113  21.175  0.00  0.00    +0.210 HD
ENDBRANCH   8   2
BRANCH  10   3
ATOM      3  O   UNL     1       9.418   6.971  22.060  0.00  0.00    -0.387 OA
ATOM     26  H   UNL     1       8.734   7.536  22.457  0.00  0.00    +0.210 HD
ENDBRANCH  10   3
BRANCH   9  12
ATOM     12  C   UNL     1      12.813   7.423  19.301  0.00  0.00    +0.130 C 
BRANCH  12  14
ATOM      4  O   UNL     1      11.628   7.523  17.220  0.00  0.00    -0.276 OA
ATOM      7  N   UNL     1      13.466   8.922  17.434  0.00  0.00    -0.300 N 
ATOM     14  C   UNL     1      12.571   7.950  17.892  0.00  0.00    +0.218 C 
ATOM     17  C   UNL     1      14.573   9.412  18.246  0.00  0.00    +0.132 C 
BRANCH   7  15
ATOM     15  C   UNL     1      13.359   9.520  16.104  0.00  0.00    +0.142 C 
BRANCH  15  18
ATOM     18  C   UNL     1      14.365  10.615  15.898  0.00  0.00    -0.030 A 
ATOM     20  C   UNL     1      14.248  11.812  16.604  0.00  0.00    +0.005 A 
ATOM     21  C   UNL     1      15.417  10.435  14.999  0.00  0.00    +0.005 A 
ATOM     22  C   UNL     1      15.183  12.830  16.413  0.00  0.00    +0.000 A 
ATOM     23  C   UNL     1      16.351  11.453  14.808  0.00  0.00    +0.000 A 
ATOM     24  C   UNL     1      16.234  12.650  15.515  0.00  0.00    +0.000 A 
ENDBRANCH  15  18
ENDBRANCH   7  15
ENDBRANCH  12  14
ENDBRANCH   9  12
BRANCH  11  13
ATOM     13  C   UNL     1      11.641   9.924  22.432  0.00  0.00    +0.138 C 
BRANCH  13   6
ATOM      5  O   UNL     1      11.385  11.056  25.093  0.00  0.00    -0.276 OA
ATOM      6  N   UNL     1      10.976  11.139  22.801  0.00  0.00    -0.313 N 
ATOM     16  C   UNL     1      10.902  11.608  24.107  0.00  0.00    +0.210 C 
ATOM     19  C   UNL     1      10.168  12.918  24.213  0.00  0.00    +0.109 C 
ATOM     27  H   UNL     1      10.553  11.689  22.058  0.00  0.00    +0.149 HD
ENDBRANCH  13   6
ENDBRANCH  11  13
TORSDOF 8
ENDMDL
MODEL 4
REMARK VINA RESULT:      -5.9     36.233     39.001
REMARK  Name = 40777961
REMARK  10 active torsions:
REMARK  status: ('A' for Active; 'I' for Inactive)
REMARK    1  A    between atoms: O_2  and  C_8
REMARK    2  A    between atoms: O_3  and  C_10
REMARK    3  A    between atoms: N_6  and  C_13
REMARK    4  A    between atoms: N_7  and  C_15
REMARK    5  A    between atoms: N_7  and  C_17
REMARK    6  A    between atoms: C_9  and  C_12
REMARK    7  A    between atoms: C_11  and  C_13
REMARK    8  A    between atoms: C_12  and  C_14
REMARK    9  A    between atoms: C_15  and  C_18
REMARK   10  A    between atoms: C_16  and  C_19
REMARK                            x       y       z     vdW  Elec       q    Type
REMARK                         _______ _______ _______ _____ _____    ______ ____
ROOT
ATOM      1  O   UNL     1       9.227   5.678   6.124  0.00  0.00    -0.366 OA
ATOM      8  C   UNL     1      11.402   6.570   6.312  0.00  0.00    +0.175 C 
ATOM      9  C   UNL     1      10.542   5.578   5.548  0.00  0.00    +0.159 C 
ATOM     10  C   UNL     1      10.818   6.466   7.706  0.00  0.00    +0.176 C 
ATOM     11  C   UNL     1       9.329   6.316   7.417  0.00  0.00    +0.167 C 
ENDROOT
BRANCH   8   2
ATOM      2  O   UNL     1      12.772   6.238   6.253  0.00  0.00    -0.387 OA
ATOM     25  H   UNL     1      12.976   5.700   7.037  0.00  0.00    +0.210 HD
ENDBRANCH   8   2
BRANCH  10   3
ATOM      3  O   UNL     1      11.268   5.270   8.343  0.00  0.00    -0.387 OA
ATOM     26  H   UNL     1      12.153   5.070   7.995  0.00  0.00    +0.210 HD
ENDBRANCH  10   3
BRANCH   9  12
ATOM     12  C   UNL     1      10.471   5.864   4.059  0.00  0.00    +0.130 C 
BRANCH  12  14
ATOM      4  O   UNL     1      10.937   3.653   3.261  0.00  0.00    -0.276 OA
ATOM      7  N   UNL     1      12.283   5.355   2.441  0.00  0.00    -0.300 N 
ATOM     14  C   UNL     1      11.241   4.849   3.225  0.00  0.00    +0.218 C 
ATOM     17  C   UNL     1      12.625   6.772   2.414  0.00  0.00    +0.132 C 
BRANCH   7  15
ATOM     15  C   UNL     1      13.109   4.501   1.590  0.00  0.00    +0.142 C 
BRANCH  15  18
ATOM     18  C   UNL     1      12.438   4.195   0.282  0.00  0.00    -0.030 A 
ATOM     20  C   UNL     1      11.254   4.846  -0.064  0.00  0.00    +0.005 A 
ATOM     21  C   UNL     1      12.999   3.259  -0.587  0.00  0.00    +0.005 A 
ATOM     22  C   UNL     1      10.631   4.562  -1.279  0.00  0.00    +0.000 A 
ATOM     23  C   UNL     1      12.375   2.975  -1.802  0.00  0.00    +0.000 A 
ATOM     24  C   UNL     1      11.191   3.627  -2.148  0.00  0.00    +0.000 A 
ENDBRANCH  15  18
ENDBRANCH   7  15
ENDBRANCH  12  14
ENDBRANCH   9  12
BRANCH  11  13
ATOM     13  C   UNL     1       8.600   7.651   7.336  0.00  0.00    +0.138 C 
BRANCH  13   6
ATOM      5  O   UNL     1       9.287   9.560   5.259  0.00  0.00    -0.276 OA
ATOM      6  N   UNL     1       7.965   7.818   6.062  0.00  0.00    -0.313 N 
ATOM     16  C   UNL     1       8.361   8.763   5.123  0.00  0.00    +0.210 C 
ATOM     19  C   UNL     1       7.541   8.708   3.863  0.00  0.00    +0.109 C 
ATOM     27  H   UNL     1       7.194   7.196   5.836  0.00  0.00    +0.149 HD
ENDBRANCH  13   6
ENDBRANCH  11  13
TORSDOF 8
ENDMDL
MODEL 5
REMARK VINA RESULT:      -5.8     21.761     26.511
REMARK  Name = 40777961
REMARK  10 active torsions:
REMARK  status: ('A' for Active; 'I' for Inactive)
REMARK    1  A    between atoms: O_2  and  C_8
REMARK    2  A    between atoms: O_3  and  C_10
REMARK    3  A    between atoms: N_6  and  C_13
REMARK    4  A    between atoms: N_7  and  C_15
REMARK    5  A    between atoms: N_7  and  C_17
REMARK    6  A    between atoms: C_9  and  C_12
REMARK    7  A    between atoms: C_11  and  C_13
REMARK    8  A    between atoms: C_12  and  C_14
REMARK    9  A    between atoms: C_15  and  C_18
REMARK   10  A    between atoms: C_16  and  C_19
REMARK                            x       y       z     vdW  Elec       q    Type
REMARK                         _______ _______ _______ _____ _____    ______ ____
ROOT
ATOM      1  O   UNL     1      -6.124 -11.651  17.111  0.00  0.00    -0.366 OA
ATOM      8  C   UNL     1      -3.891 -11.107  17.640  0.00  0.00    +0.175 C 
ATOM      9  C   UNL     1      -4.822 -11.514  16.512  0.00  0.00    +0.159 C 
ATOM     10  C   UNL     1      -4.471 -11.881  18.807  0.00  0.00    +0.176 C 
ATOM     11  C   UNL     1      -5.969 -11.777  18.543  0.00  0.00    +0.167 C 
ENDROOT
BRANCH   8   2
ATOM      2  O   UNL     1      -2.548 -11.437  17.363  0.00  0.00    -0.387 OA
ATOM     25  H   UNL     1      -2.034 -11.275  18.173  0.00  0.00    +0.210 HD
ENDBRANCH   8   2
BRANCH  10   3
ATOM      3  O   UNL     1      -4.101 -13.257  18.721  0.00  0.00    -0.387 OA
ATOM     26  H   UNL     1      -4.829 -13.778  19.099  0.00  0.00    +0.210 HD
ENDBRANCH  10   3
BRANCH   9  12
ATOM     12  C   UNL     1      -4.884 -10.499  15.385  0.00  0.00    +0.130 C 
BRANCH  12  14
ATOM      4  O   UNL     1      -2.673 -10.392  14.467  0.00  0.00    -0.276 OA
ATOM      7  N   UNL     1      -4.292 -11.406  13.151  0.00  0.00    -0.300 N 
ATOM     14  C   UNL     1      -3.842 -10.753  14.304  0.00  0.00    +0.218 C 
ATOM     17  C   UNL     1      -5.678 -11.824  12.981  0.00  0.00    +0.132 C 
BRANCH   7  15
ATOM     15  C   UNL     1      -3.407 -11.717  12.031  0.00  0.00    +0.142 C 
BRANCH  15  18
ATOM     18  C   UNL     1      -3.792 -10.972  10.787  0.00  0.00    -0.030 A 
ATOM     20  C   UNL     1      -3.688  -9.581  10.746  0.00  0.00    +0.005 A 
ATOM     21  C   UNL     1      -4.255 -11.669   9.671  0.00  0.00    +0.005 A 
ATOM     22  C   UNL     1      -4.046  -8.888   9.590  0.00  0.00    +0.000 A 
ATOM     23  C   UNL     1      -4.614 -10.975   8.515  0.00  0.00    +0.000 A 
ATOM     24  C   UNL     1      -4.509  -9.585   8.475  0.00  0.00    +0.000 A 
ENDBRANCH  15  18
ENDBRANCH   7  15
ENDBRANCH  12  14
ENDBRANCH   9  12
BRANCH  11  13
ATOM     13  C   UNL     1      -6.604 -10.552  19.189  0.00  0.00    +0.138 C 
BRANCH  13   6
ATOM      5  O   UNL     1      -9.294 -11.120  20.122  0.00  0.00    -0.276 OA
ATOM      6  N   UNL     1      -7.839 -10.210  18.547  0.00  0.00    -0.313 N 
ATOM     16  C   UNL     1      -9.089 -10.523  19.068  0.00  0.00    +0.210 C 
ATOM     19  C   UNL     1     -10.218 -10.026  18.206  0.00  0.00    +0.109 C 
ATOM     27  H   UNL     1      -7.788  -9.695  17.672  0.00  0.00    +0.149 HD
ENDBRANCH  13   6
ENDBRANCH  11  13
TORSDOF 8
ENDMDL
MODEL 6
REMARK VINA RESULT:      -5.8     21.792     26.380
REMARK  Name = 40777961
REMARK  10 active torsions:
REMARK  status: ('A' for Active; 'I' for Inactive)
REMARK    1  A    between atoms: O_2  and  C_8
REMARK    2  A    between atoms: O_3  and  C_10
REMARK    3  A    between atoms: N_6  and  C_13
REMARK    4  A    between atoms: N_7  and  C_15
REMARK    5  A    between atoms: N_7  and  C_17
REMARK    6  A    between atoms: C_9  and  C_12
REMARK    7  A    between atoms: C_11  and  C_13
REMARK    8  A    between atoms: C_12  and  C_14
REMARK    9  A    between atoms: C_15  and  C_18
REMARK   10  A    between atoms: C_16  and  C_19
REMARK                            x       y       z     vdW  Elec       q    Type
REMARK                         _______ _______ _______ _____ _____    ______ ____
ROOT
ATOM      1  O   UNL     1      -5.889 -11.235  16.409  0.00  0.00    -0.366 OA
ATOM      8  C   UNL     1      -4.603 -11.703  18.329  0.00  0.00    +0.175 C 
ATOM      9  C   UNL     1      -4.652 -11.846  16.818  0.00  0.00    +0.159 C 
ATOM     10  C   UNL     1      -6.064 -11.864  18.697  0.00  0.00    +0.176 C 
ATOM     11  C   UNL     1      -6.760 -11.127  17.558  0.00  0.00    +0.167 C 
ENDROOT
BRANCH   8   2
ATOM      2  O   UNL     1      -3.767 -12.672  18.925  0.00  0.00    -0.387 OA
ATOM     25  H   UNL     1      -2.989 -12.207  19.279  0.00  0.00    +0.210 HD
ENDBRANCH   8   2
BRANCH  10   3
ATOM      3  O   UNL     1      -6.443 -13.238  18.632  0.00  0.00    -0.387 OA
ATOM     26  H   UNL     1      -6.824 -13.476  19.494  0.00  0.00    +0.210 HD
ENDBRANCH  10   3
BRANCH   9  12
ATOM     12  C   UNL     1      -3.491 -11.171  16.111  0.00  0.00    +0.130 C 
BRANCH  12  14
ATOM      4  O   UNL     1      -3.803 -12.788  14.371  0.00  0.00    -0.276 OA
ATOM      7  N   UNL     1      -2.171 -11.181  14.009  0.00  0.00    -0.300 N 
ATOM     14  C   UNL     1      -3.180 -11.796  14.757  0.00  0.00    +0.218 C 
ATOM     17  C   UNL     1      -1.448 -10.008  14.486  0.00  0.00    +0.132 C 
BRANCH   7  15
ATOM     15  C   UNL     1      -1.764 -11.669  12.692  0.00  0.00    +0.142 C 
BRANCH  15  18
ATOM     18  C   UNL     1      -2.594 -11.074  11.592  0.00  0.00    -0.030 A 
ATOM     20  C   UNL     1      -3.617 -11.821  11.008  0.00  0.00    +0.005 A 
ATOM     21  C   UNL     1      -2.343  -9.774  11.153  0.00  0.00    +0.005 A 
ATOM     22  C   UNL     1      -4.389 -11.268   9.986  0.00  0.00    +0.000 A 
ATOM     23  C   UNL     1      -3.114  -9.222  10.131  0.00  0.00    +0.000 A 
ATOM     24  C   UNL     1      -4.137  -9.969   9.547  0.00  0.00    +0.000 A 
ENDBRANCH  15  18
ENDBRANCH   7  15
ENDBRANCH  12  14
ENDBRANCH   9  12
BRANCH  11  13
ATOM     13  C   UNL     1      -6.969  -9.646  17.846  0.00  0.00    +0.138 C 
BRANCH  13   6
ATOM      5  O   UNL     1      -9.000  -8.888  15.914  0.00  0.00    -0.276 OA
ATOM      6  N   UNL     1      -8.350  -9.358  18.102  0.00  0.00    -0.313 N 
ATOM     16  C   UNL     1      -9.257  -9.000  17.111  0.00  0.00    +0.210 C 
ATOM     19  C   UNL     1     -10.645  -8.777  17.648  0.00  0.00    +0.109 C 
ATOM     27  H   UNL     1      -8.678  -9.438  19.060  0.00  0.00    +0.149 HD
ENDBRANCH  13   6
ENDBRANCH  11  13
TORSDOF 8
ENDMDL
MODEL 7
REMARK VINA RESULT:      -5.7     28.864     30.535
REMARK  Name = 40777961
REMARK  10 active torsions:
REMARK  status: ('A' for Active; 'I' for Inactive)
REMARK    1  A    between atoms: O_2  and  C_8
REMARK    2  A    between atoms: O_3  and  C_10
REMARK    3  A    between atoms: N_6  and  C_13
REMARK    4  A    between atoms: N_7  and  C_15
REMARK    5  A    between atoms: N_7  and  C_17
REMARK    6  A    between atoms: C_9  and  C_12
REMARK    7  A    between atoms: C_11  and  C_13
REMARK    8  A    between atoms: C_12  and  C_14
REMARK    9  A    between atoms: C_15  and  C_18
REMARK   10  A    between atoms: C_16  and  C_19
REMARK                            x       y       z     vdW  Elec       q    Type
REMARK                         _______ _______ _______ _____ _____    ______ ____
ROOT
ATOM      1  O   UNL     1      13.077   8.304  20.751  0.00  0.00    -0.366 OA
ATOM      8  C   UNL     1      10.824   7.664  21.023  0.00  0.00    +0.175 C 
ATOM      9  C   UNL     1      11.923   8.557  21.572  0.00  0.00    +0.159 C 
ATOM     10  C   UNL     1      11.611   6.437  20.607  0.00  0.00    +0.176 C 
ATOM     11  C   UNL     1      12.889   7.053  20.051  0.00  0.00    +0.167 C 
ENDROOT
BRANCH   8   2
ATOM      2  O   UNL     1       9.832   7.390  21.988  0.00  0.00    -0.387 OA
ATOM     25  H   UNL     1       8.968   7.551  21.572  0.00  0.00    +0.210 HD
ENDBRANCH   8   2
BRANCH  10   3
ATOM      3  O   UNL     1      11.957   5.659  21.752  0.00  0.00    -0.387 OA
ATOM     26  H   UNL     1      12.119   4.750  21.448  0.00  0.00    +0.210 HD
ENDBRANCH  10   3
BRANCH   9  12
ATOM     12  C   UNL     1      11.577  10.035  21.525  0.00  0.00    +0.130 C 
BRANCH  12  14
ATOM      4  O   UNL     1      12.771  11.086  19.734  0.00  0.00    -0.276 OA
ATOM      7  N   UNL     1      13.616  11.408  21.870  0.00  0.00    -0.300 N 
ATOM     14  C   UNL     1      12.701  10.886  20.949  0.00  0.00    +0.218 C 
ATOM     17  C   UNL     1      13.512  11.158  23.303  0.00  0.00    +0.132 C 
BRANCH   7  15
ATOM     15  C   UNL     1      14.745  12.242  21.465  0.00  0.00    +0.142 C 
BRANCH  15  18
ATOM     18  C   UNL     1      16.050  11.509  21.566  0.00  0.00    -0.030 A 
ATOM     20  C   UNL     1      17.056  11.986  22.407  0.00  0.00    +0.005 A 
ATOM     21  C   UNL     1      16.259  10.349  20.819  0.00  0.00    +0.005 A 
ATOM     22  C   UNL     1      18.269  11.305  22.501  0.00  0.00    +0.000 A 
ATOM     23  C   UNL     1      17.472   9.668  20.914  0.00  0.00    +0.000 A 
ATOM     24  C   UNL     1      18.477  10.146  21.755  0.00  0.00    +0.000 A 
ENDBRANCH  15  18
ENDBRANCH   7  15
ENDBRANCH  12  14
ENDBRANCH   9  12
BRANCH  11  13
ATOM     13  C   UNL     1      12.804   7.361  18.562  0.00  0.00    +0.138 C 
BRANCH  13   6
ATOM      5  O   UNL     1      13.570   8.299  15.923  0.00  0.00    -0.276 OA
ATOM      6  N   UNL     1      13.524   8.557  18.238  0.00  0.00    -0.313 N 
ATOM     16  C   UNL     1      13.851   8.931  16.939  0.00  0.00    +0.210 C 
ATOM     19  C   UNL     1      14.586  10.242  16.880  0.00  0.00    +0.109 C 
ATOM     27  H   UNL     1      13.792   9.168  19.005  0.00  0.00    +0.149 HD
ENDBRANCH  13   6
ENDBRANCH  11  13
TORSDOF 8
ENDMDL
MODEL 8
REMARK VINA RESULT:      -5.7     11.280     13.580
REMARK  Name = 40777961
REMARK  10 active torsions:
REMARK  status: ('A' for Active; 'I' for Inactive)
REMARK    1  A    between atoms: O_2  and  C_8
REMARK    2  A    between atoms: O_3  and  C_10
REMARK    3  A    between atoms: N_6  and  C_13
REMARK    4  A    between atoms: N_7  and  C_15
REMARK    5  A    between atoms: N_7  and  C_17
REMARK    6  A    between atoms: C_9  and  C_12
REMARK    7  A    between atoms: C_11  and  C_13
REMARK    8  A    between atoms: C_12  and  C_14
REMARK    9  A    between atoms: C_15  and  C_18
REMARK   10  A    between atoms: C_16  and  C_19
REMARK                            x       y       z     vdW  Elec       q    Type
REMARK                         _______ _______ _______ _____ _____    ______ ____
ROOT
ATOM      1  O   UNL     1     -16.056   5.991  21.932  0.00  0.00    -0.366 OA
ATOM      8  C   UNL     1     -14.304   5.269  23.336  0.00  0.00    +0.175 C 
ATOM      9  C   UNL     1     -14.634   5.769  21.940  0.00  0.00    +0.159 C 
ATOM     10  C   UNL     1     -15.532   4.442  23.661  0.00  0.00    +0.176 C 
ATOM     11  C   UNL     1     -16.648   5.275  23.040  0.00  0.00    +0.167 C 
ENDROOT
BRANCH   8   2
ATOM      2  O   UNL     1     -13.106   4.524  23.363  0.00  0.00    -0.387 OA
ATOM     25  H   UNL     1     -13.096   3.959  22.571  0.00  0.00    +0.210 HD
ENDBRANCH   8   2
BRANCH  10   3
ATOM      3  O   UNL     1     -15.481   3.191  22.976  0.00  0.00    -0.387 OA
ATOM     26  H   UNL     1     -16.292   3.117  22.444  0.00  0.00    +0.210 HD
ENDBRANCH  10   3
BRANCH   9  12
ATOM     12  C   UNL     1     -13.914   7.055  21.576  0.00  0.00    +0.130 C 
BRANCH  12  14
ATOM      4  O   UNL     1     -11.686   6.196  21.377  0.00  0.00    -0.276 OA
ATOM      7  N   UNL     1     -12.533   7.314  19.529  0.00  0.00    -0.300 N 
ATOM     14  C   UNL     1     -12.608   6.810  20.832  0.00  0.00    +0.218 C 
ATOM     17  C   UNL     1     -13.636   8.036  18.906  0.00  0.00    +0.132 C 
BRANCH   7  15
ATOM     15  C   UNL     1     -11.344   7.155  18.695  0.00  0.00    +0.142 C 
BRANCH  15  18
ATOM     18  C   UNL     1     -10.888   8.461  18.113  0.00  0.00    -0.030 A 
ATOM     20  C   UNL     1     -10.589   9.534  18.953  0.00  0.00    +0.005 A 
ATOM     21  C   UNL     1     -10.764   8.603  16.730  0.00  0.00    +0.005 A 
ATOM     22  C   UNL     1     -10.166  10.748  18.411  0.00  0.00    +0.000 A 
ATOM     23  C   UNL     1     -10.342   9.817  16.189  0.00  0.00    +0.000 A 
ATOM     24  C   UNL     1     -10.042  10.890  17.030  0.00  0.00    +0.000 A 
ENDBRANCH  15  18
ENDBRANCH   7  15
ENDBRANCH  12  14
ENDBRANCH   9  12
BRANCH  11  13
ATOM     13  C   UNL     1     -17.229   6.304  24.002  0.00  0.00    +0.138 C 
BRANCH  13   6
ATOM      5  O   UNL     1     -19.056   5.445  26.088  0.00  0.00    -0.276 OA
ATOM      6  N   UNL     1     -16.908   5.981  25.361  0.00  0.00    -0.313 N 
ATOM     16  C   UNL     1     -17.852   5.576  26.298  0.00  0.00    +0.210 C 
ATOM     19  C   UNL     1     -17.244   5.276  27.642  0.00  0.00    +0.109 C 
ATOM     27  H   UNL     1     -15.933   6.038  25.641  0.00  0.00    +0.149 HD
ENDBRANCH  13   6
ENDBRANCH  11  13
TORSDOF 8
ENDMDL
MODEL 9
REMARK VINA RESULT:      -5.7     22.990     27.335
REMARK  Name = 40777961
REMARK  10 active torsions:
REMARK  status: ('A' for Active; 'I' for Inactive)
REMARK    1  A    between atoms: O_2  and  C_8
REMARK    2  A    between atoms: O_3  and  C_10
REMARK    3  A    between atoms: N_6  and  C_13
REMARK    4  A    between atoms: N_7  and  C_15
REMARK    5  A    between atoms: N_7  and  C_17
REMARK    6  A    between atoms: C_9  and  C_12
REMARK    7  A    between atoms: C_11  and  C_13
REMARK    8  A    between atoms: C_12  and  C_14
REMARK    9  A    between atoms: C_15  and  C_18
REMARK   10  A    between atoms: C_16  and  C_19
REMARK                            x       y       z     vdW  Elec       q    Type
REMARK                         _______ _______ _______ _____ _____    ______ ____
ROOT
ATOM      1  O   UNL     1      -4.102 -12.242  14.704  0.00  0.00    -0.366 OA
ATOM      8  C   UNL     1      -2.384 -10.950  15.673  0.00  0.00    +0.175 C 
ATOM      9  C   UNL     1      -2.674 -12.211  14.878  0.00  0.00    +0.159 C 
ATOM     10  C   UNL     1      -3.589 -10.886  16.590  0.00  0.00    +0.176 C 
ATOM     11  C   UNL     1      -4.711 -11.358  15.673  0.00  0.00    +0.167 C 
ENDROOT
BRANCH   8   2
ATOM      2  O   UNL     1      -1.158 -11.032  16.367  0.00  0.00    -0.387 OA
ATOM     25  H   UNL     1      -1.258 -11.709  17.058  0.00  0.00    +0.210 HD
ENDBRANCH   8   2
BRANCH  10   3
ATOM      3  O   UNL     1      -3.456 -11.834  17.649  0.00  0.00    -0.387 OA
ATOM     26  H   UNL     1      -4.233 -12.418  17.616  0.00  0.00    +0.210 HD
ENDBRANCH  10   3
BRANCH   9  12
ATOM     12  C   UNL     1      -1.994 -12.237  13.521  0.00  0.00    +0.130 C 
BRANCH  12  14
ATOM      4  O   UNL     1      -1.561  -9.886  13.345  0.00  0.00    -0.276 OA
ATOM      7  N   UNL     1      -2.650 -10.875  11.551  0.00  0.00    -0.300 N 
ATOM     14  C   UNL     1      -2.042 -10.890  12.811  0.00  0.00    +0.218 C 
ATOM     17  C   UNL     1      -3.211 -12.074  10.940  0.00  0.00    +0.132 C 
BRANCH   7  15
ATOM     15  C   UNL     1      -2.768  -9.657  10.753  0.00  0.00    +0.142 C 
BRANCH  15  18
ATOM     18  C   UNL     1      -4.194  -9.363  10.385  0.00  0.00    -0.030 A 
ATOM     20  C   UNL     1      -5.149  -9.179  11.385  0.00  0.00    +0.005 A 
ATOM     21  C   UNL     1      -4.564  -9.276   9.043  0.00  0.00    +0.005 A 
ATOM     22  C   UNL     1      -6.474  -8.906  11.043  0.00  0.00    +0.000 A 
ATOM     23  C   UNL     1      -5.889  -9.004   8.701  0.00  0.00    +0.000 A 
ATOM     24  C   UNL     1      -6.843  -8.819   9.702  0.00  0.00    +0.000 A 
ENDBRANCH  15  18
ENDBRANCH   7  15
ENDBRANCH  12  14
ENDBRANCH   9  12
BRANCH  11  13
ATOM     13  C   UNL     1      -5.375 -10.219  14.910  0.00  0.00    +0.138 C 
BRANCH  13   6
ATOM      5  O   UNL     1      -8.137 -10.852  15.546  0.00  0.00    -0.276 OA
ATOM      6  N   UNL     1      -6.266  -9.479  15.755  0.00  0.00    -0.313 N 
ATOM     16  C   UNL     1      -7.580  -9.857  16.006  0.00  0.00    +0.210 C 
ATOM     19  C   UNL     1      -8.285  -8.918  16.947  0.00  0.00    +0.109 C 
ATOM     27  H   UNL     1      -5.902  -8.644  16.205  0.00  0.00    +0.149 HD
ENDBRANCH  13   6
ENDBRANCH  11  13
TORSDOF 8
ENDMDL
MODEL 10
REMARK VINA RESULT:      -5.6     20.788     23.411
REMARK  Name = 40777961
REMARK  10 active torsions:
REMARK  status: ('A' for Active; 'I' for Inactive)
REMARK    1  A    between atoms: O_2  and  C_8
REMARK    2  A    between atoms: O_3  and  C_10
REMARK    3  A    between atoms: N_6  and  C_13
REMARK    4  A    between atoms: N_7  and  C_15
REMARK    5  A    between atoms: N_7  and  C_17
REMARK    6  A    between atoms: C_9  and  C_12
REMARK    7  A    between atoms: C_11  and  C_13
REMARK    8  A    between atoms: C_12  and  C_14
REMARK    9  A    between atoms: C_15  and  C_18
REMARK   10  A    between atoms: C_16  and  C_19
REMARK                            x       y       z     vdW  Elec       q    Type
REMARK                         _______ _______ _______ _____ _____    ______ ____
ROOT
ATOM      1  O   UNL     1      -8.721 -11.300  17.748  0.00  0.00    -0.366 OA
ATOM      8  C   UNL     1      -9.882 -10.896  19.760  0.00  0.00    +0.175 C 
ATOM      9  C   UNL     1      -9.046 -11.916  19.007  0.00  0.00    +0.159 C 
ATOM     10  C   UNL     1     -10.666 -10.255  18.633  0.00  0.00    +0.176 C 
ATOM     11  C   UNL     1      -9.628 -10.199  17.517  0.00  0.00    +0.167 C 
ENDROOT
BRANCH   8   2
ATOM      2  O   UNL     1     -10.701 -11.500  20.738  0.00  0.00    -0.387 OA
ATOM     25  H   UNL     1     -10.878 -10.833  21.423  0.00  0.00    +0.210 HD
ENDBRANCH   8   2
BRANCH  10   3
ATOM      3  O   UNL     1     -11.722 -11.117  18.212  0.00  0.00    -0.387 OA
ATOM     26  H   UNL     1     -11.596 -11.290  17.263  0.00  0.00    +0.210 HD
ENDBRANCH  10   3
BRANCH   9  12
ATOM     12  C   UNL     1      -7.769 -12.301  19.732  0.00  0.00    +0.130 C 
BRANCH  12  14
ATOM      4  O   UNL     1      -6.557 -10.245  19.945  0.00  0.00    -0.276 OA
ATOM      7  N   UNL     1      -5.641 -11.845  18.538  0.00  0.00    -0.300 N 
ATOM     14  C   UNL     1      -6.609 -11.362  19.424  0.00  0.00    +0.218 C 
ATOM     17  C   UNL     1      -5.723 -13.170  17.935  0.00  0.00    +0.132 C 
BRANCH   7  15
ATOM     15  C   UNL     1      -4.472 -11.057  18.149  0.00  0.00    +0.142 C 
BRANCH  15  18
ATOM     18  C   UNL     1      -4.414 -10.834  16.667  0.00  0.00    -0.030 A 
ATOM     20  C   UNL     1      -3.274 -11.198  15.950  0.00  0.00    +0.005 A 
ATOM     21  C   UNL     1      -5.500 -10.260  16.004  0.00  0.00    +0.005 A 
ATOM     22  C   UNL     1      -3.220 -10.990  14.571  0.00  0.00    +0.000 A 
ATOM     23  C   UNL     1      -5.445 -10.052  14.626  0.00  0.00    +0.000 A 
ATOM     24  C   UNL     1      -4.305 -10.417  13.910  0.00  0.00    +0.000 A 
ENDBRANCH  15  18
ENDBRANCH   7  15
ENDBRANCH  12  14
ENDBRANCH   9  12
BRANCH  11  13
ATOM     13  C   UNL     1      -8.812  -8.913  17.527  0.00  0.00    +0.138 C 
BRANCH  13   6
ATOM      5  O   UNL     1     -10.083  -7.850  15.142  0.00  0.00    -0.276 OA
ATOM      6  N   UNL     1      -9.660  -7.761  17.431  0.00  0.00    -0.313 N 
ATOM     16  C   UNL     1     -10.229  -7.321  16.242  0.00  0.00    +0.210 C 
ATOM     19  C   UNL     1     -11.095  -6.104  16.427  0.00  0.00    +0.109 C 
ATOM     27  H   UNL     1      -9.864  -7.254  18.289  0.00  0.00    +0.149 HD
ENDBRANCH  13   6
ENDBRANCH  11  13
TORSDOF 8
ENDMDL
