MODEL 1
REMARK VINA RESULT:      -7.3      0.000      0.000
REMARK  Name = 11883345
REMARK  7 active torsions:
REMARK  status: ('A' for Active; 'I' for Inactive)
REMARK    1  A    between atoms: S_1  and  N_8
REMARK    2  A    between atoms: S_1  and  C_16
REMARK    3  A    between atoms: O_4  and  C_13
REMARK    4  A    between atoms: O_4  and  C_17
REMARK    5  A    between atoms: N_8  and  C_12
REMARK    6  A    between atoms: N_9  and  C_23
REMARK    7  A    between atoms: C_22  and  C_24
REMARK                            x       y       z     vdW  Elec       q    Type
REMARK                         _______ _______ _______ _____ _____    ______ ____
ROOT
ATOM      2  O   UNL     1     -16.284   2.179  24.494  0.00  0.00    -0.369 OA
ATOM      3  O   UNL     1     -17.891   4.605  25.461  0.00  0.00    -0.368 OA
ATOM     10  C   UNL     1     -16.712   4.507  24.634  0.00  0.00    +0.171 C 
ATOM     11  C   UNL     1     -15.879   3.370  25.190  0.00  0.00    +0.191 C 
ATOM     12  C   UNL     1     -17.089   4.037  23.249  0.00  0.00    +0.133 C 
ATOM     13  C   UNL     1     -16.296   3.338  26.641  0.00  0.00    +0.235 C 
ATOM     14  C   UNL     1     -17.187   2.533  23.434  0.00  0.00    +0.183 C 
ATOM     15  C   UNL     1     -17.764   3.689  26.560  0.00  0.00    +0.207 C 
ENDROOT
BRANCH  12   8
ATOM      8  N   UNL     1     -16.073   4.382  22.285  0.00  0.00    -0.182 NA
ATOM     30  H   UNL     1     -15.094   4.246  22.566  0.00  0.00    +0.148 HD
BRANCH   8   1
ATOM      1  S   UNL     1     -16.419   5.504  21.056  0.00  0.00    +0.059 S 
ATOM      5  O   UNL     1     -17.318   6.520  21.570  0.00  0.00    -0.153 OA
ATOM      6  O   UNL     1     -16.750   4.782  19.843  0.00  0.00    -0.153 OA
BRANCH   1  16
ATOM     16  C   UNL     1     -14.840   6.255  20.795  0.00  0.00    +0.105 A 
ATOM     18  C   UNL     1     -13.747   5.794  21.507  0.00  0.00    +0.029 A 
ATOM     19  C   UNL     1     -14.726   7.290  19.884  0.00  0.00    +0.029 A 
ATOM     20  C   UNL     1     -12.501   6.385  21.302  0.00  0.00    +0.005 A 
ATOM     21  C   UNL     1     -13.480   7.882  19.678  0.00  0.00    +0.005 A 
ATOM     22  C   UNL     1     -12.367   7.430  20.387  0.00  0.00    -0.050 A 
ATOM     24  C   UNL     1     -11.034   8.062  20.167  0.00  0.00    +0.044 C 
ENDBRANCH   1  16
ENDBRANCH   8   1
ENDBRANCH  12   8
BRANCH  13   4
ATOM      4  O   UNL     1     -16.081   2.091  27.262  0.00  0.00    -0.442 OA
BRANCH   4  17
ATOM      7  O   UNL     1     -16.231   1.231  29.375  0.00  0.00    -0.226 OA
ATOM      9  N   UNL     1     -15.078   3.220  28.936  0.00  0.00    -0.251 N 
ATOM     17  C   UNL     1     -15.827   2.104  28.618  0.00  0.00    +0.405 C 
ATOM     31  H   UNL     1     -14.836   3.834  28.162  0.00  0.00    +0.158 HD
BRANCH   9  23
ATOM     23  C   UNL     1     -14.602   3.615  30.207  0.00  0.00    +0.036 A 
ATOM     25  C   UNL     1     -13.481   2.994  30.736  0.00  0.00    +0.023 A 
ATOM     26  C   UNL     1     -15.266   4.615  30.900  0.00  0.00    +0.023 A 
ATOM     27  C   UNL     1     -13.012   3.384  31.990  0.00  0.00    +0.002 A 
ATOM     28  C   UNL     1     -14.797   5.004  32.155  0.00  0.00    +0.002 A 
ATOM     29  C   UNL     1     -13.670   4.389  32.700  0.00  0.00    +0.000 A 
ENDBRANCH   9  23
ENDBRANCH   4  17
ENDBRANCH  13   4
TORSDOF 6
ENDMDL
MODEL 2
REMARK VINA RESULT:      -7.2     15.939     18.739
REMARK  Name = 11883345
REMARK  7 active torsions:
REMARK  status: ('A' for Active; 'I' for Inactive)
REMARK    1  A    between atoms: S_1  and  N_8
REMARK    2  A    between atoms: S_1  and  C_16
REMARK    3  A    between atoms: O_4  and  C_13
REMARK    4  A    between atoms: O_4  and  C_17
REMARK    5  A    between atoms: N_8  and  C_12
REMARK    6  A    between atoms: N_9  and  C_23
REMARK    7  A    between atoms: C_22  and  C_24
REMARK                            x       y       z     vdW  Elec       q    Type
REMARK                         _______ _______ _______ _____ _____    ______ ____
ROOT
ATOM      2  O   UNL     1     -10.990  -8.151  17.678  0.00  0.00    -0.369 OA
ATOM      3  O   UNL     1      -9.884  -8.946  14.931  0.00  0.00    -0.368 OA
ATOM     10  C   UNL     1      -9.221  -8.577  16.158  0.00  0.00    +0.171 C 
ATOM     11  C   UNL     1     -10.060  -7.493  16.803  0.00  0.00    +0.191 C 
ATOM     12  C   UNL     1      -9.285  -9.719  17.145  0.00  0.00    +0.133 C 
ATOM     13  C   UNL     1     -10.755  -6.869  15.616  0.00  0.00    +0.235 C 
ATOM     14  C   UNL     1     -10.670  -9.550  17.744  0.00  0.00    +0.183 C 
ATOM     15  C   UNL     1     -10.999  -8.065  14.724  0.00  0.00    +0.207 C 
ENDROOT
BRANCH  12   8
ATOM      8  N   UNL     1      -8.259  -9.599  18.151  0.00  0.00    -0.182 NA
ATOM     30  H   UNL     1      -7.764  -8.700  18.212  0.00  0.00    +0.148 HD
BRANCH   8   1
ATOM      1  S   UNL     1      -7.492 -10.993  18.748  0.00  0.00    +0.059 S 
ATOM      5  O   UNL     1      -8.189 -12.171  18.267  0.00  0.00    -0.153 OA
ATOM      6  O   UNL     1      -7.243 -10.820  20.166  0.00  0.00    -0.153 OA
BRANCH   1  16
ATOM     16  C   UNL     1      -5.923 -10.920  17.937  0.00  0.00    +0.105 A 
ATOM     18  C   UNL     1      -5.822 -10.267  16.720  0.00  0.00    +0.029 A 
ATOM     19  C   UNL     1      -4.825 -11.517  18.531  0.00  0.00    +0.029 A 
ATOM     20  C   UNL     1      -4.585 -10.208  16.079  0.00  0.00    +0.005 A 
ATOM     21  C   UNL     1      -3.587 -11.459  17.890  0.00  0.00    +0.005 A 
ATOM     22  C   UNL     1      -3.467 -10.804  16.664  0.00  0.00    -0.050 A 
ATOM     24  C   UNL     1      -2.144 -10.741  15.979  0.00  0.00    +0.044 C 
ENDBRANCH   1  16
ENDBRANCH   8   1
ENDBRANCH  12   8
BRANCH  13   4
ATOM      4  O   UNL     1     -11.951  -6.203  15.950  0.00  0.00    -0.442 OA
BRANCH   4  17
ATOM      7  O   UNL     1     -13.867  -6.558  14.753  0.00  0.00    -0.226 OA
ATOM      9  N   UNL     1     -12.333  -4.896  14.152  0.00  0.00    -0.251 N 
ATOM     17  C   UNL     1     -12.826  -5.935  14.917  0.00  0.00    +0.405 C 
ATOM     31  H   UNL     1     -11.443  -4.502  14.450  0.00  0.00    +0.158 HD
BRANCH   9  23
ATOM     23  C   UNL     1     -12.912  -4.310  13.004  0.00  0.00    +0.036 A 
ATOM     25  C   UNL     1     -12.179  -4.249  11.829  0.00  0.00    +0.023 A 
ATOM     26  C   UNL     1     -14.202  -3.807  13.075  0.00  0.00    +0.023 A 
ATOM     27  C   UNL     1     -12.751  -3.671  10.695  0.00  0.00    +0.002 A 
ATOM     28  C   UNL     1     -14.773  -3.228  11.942  0.00  0.00    +0.002 A 
ATOM     29  C   UNL     1     -14.048  -3.160  10.752  0.00  0.00    +0.000 A 
ENDBRANCH   9  23
ENDBRANCH   4  17
ENDBRANCH  13   4
TORSDOF 6
ENDMDL
MODEL 3
REMARK VINA RESULT:      -7.1      2.258      9.230
REMARK  Name = 11883345
REMARK  7 active torsions:
REMARK  status: ('A' for Active; 'I' for Inactive)
REMARK    1  A    between atoms: S_1  and  N_8
REMARK    2  A    between atoms: S_1  and  C_16
REMARK    3  A    between atoms: O_4  and  C_13
REMARK    4  A    between atoms: O_4  and  C_17
REMARK    5  A    between atoms: N_8  and  C_12
REMARK    6  A    between atoms: N_9  and  C_23
REMARK    7  A    between atoms: C_22  and  C_24
REMARK                            x       y       z     vdW  Elec       q    Type
REMARK                         _______ _______ _______ _____ _____    ______ ____
ROOT
ATOM      2  O   UNL     1     -16.814   4.456  25.716  0.00  0.00    -0.369 OA
ATOM      3  O   UNL     1     -16.940   1.722  24.332  0.00  0.00    -0.368 OA
ATOM     10  C   UNL     1     -16.083   2.226  25.378  0.00  0.00    +0.171 C 
ATOM     11  C   UNL     1     -15.802   3.679  25.054  0.00  0.00    +0.191 C 
ATOM     12  C   UNL     1     -16.838   2.286  26.685  0.00  0.00    +0.133 C 
ATOM     13  C   UNL     1     -15.961   3.716  23.553  0.00  0.00    +0.235 C 
ATOM     14  C   UNL     1     -17.596   3.595  26.559  0.00  0.00    +0.183 C 
ATOM     15  C   UNL     1     -17.091   2.736  23.327  0.00  0.00    +0.207 C 
ENDROOT
BRANCH  12   8
ATOM      8  N   UNL     1     -15.937   2.305  27.810  0.00  0.00    -0.182 NA
ATOM     30  H   UNL     1     -15.069   2.846  27.706  0.00  0.00    +0.148 HD
BRANCH   8   1
ATOM      1  S   UNL     1     -15.981   1.048  28.952  0.00  0.00    +0.059 S 
ATOM      5  O   UNL     1     -14.917   0.103  28.671  0.00  0.00    -0.153 OA
ATOM      6  O   UNL     1     -17.349   0.588  29.089  0.00  0.00    -0.153 OA
BRANCH   1  16
ATOM     16  C   UNL     1     -15.572   1.900  30.447  0.00  0.00    +0.105 A 
ATOM     18  C   UNL     1     -14.957   1.204  31.473  0.00  0.00    +0.029 A 
ATOM     19  C   UNL     1     -15.872   3.245  30.563  0.00  0.00    +0.029 A 
ATOM     20  C   UNL     1     -14.633   1.874  32.653  0.00  0.00    +0.005 A 
ATOM     21  C   UNL     1     -15.549   3.916  31.742  0.00  0.00    +0.005 A 
ATOM     22  C   UNL     1     -14.929   3.231  32.787  0.00  0.00    -0.050 A 
ATOM     24  C   UNL     1     -14.583   3.948  34.048  0.00  0.00    +0.044 C 
ENDBRANCH   1  16
ENDBRANCH   8   1
ENDBRANCH  12   8
BRANCH  13   4
ATOM      4  O   UNL     1     -16.262   4.998  23.049  0.00  0.00    -0.442 OA
BRANCH   4  17
ATOM      7  O   UNL     1     -15.732   5.078  20.827  0.00  0.00    -0.226 OA
ATOM      9  N   UNL     1     -14.536   6.305  22.421  0.00  0.00    -0.251 N 
ATOM     17  C   UNL     1     -15.514   5.438  21.976  0.00  0.00    +0.405 C 
ATOM     31  H   UNL     1     -14.514   6.483  23.422  0.00  0.00    +0.158 HD
BRANCH   9  23
ATOM     23  C   UNL     1     -13.559   6.981  21.654  0.00  0.00    +0.036 A 
ATOM     25  C   UNL     1     -12.442   6.287  21.214  0.00  0.00    +0.023 A 
ATOM     26  C   UNL     1     -13.735   8.323  21.358  0.00  0.00    +0.023 A 
ATOM     27  C   UNL     1     -11.478   6.953  20.457  0.00  0.00    +0.002 A 
ATOM     28  C   UNL     1     -12.771   8.989  20.602  0.00  0.00    +0.002 A 
ATOM     29  C   UNL     1     -11.642   8.304  20.151  0.00  0.00    +0.000 A 
ENDBRANCH   9  23
ENDBRANCH   4  17
ENDBRANCH  13   4
TORSDOF 6
ENDMDL
MODEL 4
REMARK VINA RESULT:      -7.1     31.363     36.427
REMARK  Name = 11883345
REMARK  7 active torsions:
REMARK  status: ('A' for Active; 'I' for Inactive)
REMARK    1  A    between atoms: S_1  and  N_8
REMARK    2  A    between atoms: S_1  and  C_16
REMARK    3  A    between atoms: O_4  and  C_13
REMARK    4  A    between atoms: O_4  and  C_17
REMARK    5  A    between atoms: N_8  and  C_12
REMARK    6  A    between atoms: N_9  and  C_23
REMARK    7  A    between atoms: C_22  and  C_24
REMARK                            x       y       z     vdW  Elec       q    Type
REMARK                         _______ _______ _______ _____ _____    ______ ____
ROOT
ATOM      2  O   UNL     1      14.783   7.029   6.603  0.00  0.00    -0.369 OA
ATOM      3  O   UNL     1      13.399   9.584   5.622  0.00  0.00    -0.368 OA
ATOM     10  C   UNL     1      13.417   8.243   5.092  0.00  0.00    +0.171 C 
ATOM     11  C   UNL     1      14.809   7.693   5.328  0.00  0.00    +0.191 C 
ATOM     12  C   UNL     1      12.528   7.345   5.921  0.00  0.00    +0.133 C 
ATOM     13  C   UNL     1      15.651   8.946   5.369  0.00  0.00    +0.235 C 
ATOM     14  C   UNL     1      13.431   6.985   7.087  0.00  0.00    +0.183 C 
ATOM     15  C   UNL     1      14.726   9.931   6.047  0.00  0.00    +0.207 C 
ENDROOT
BRANCH  12   8
ATOM      8  N   UNL     1      12.132   6.172   5.181  0.00  0.00    -0.182 NA
ATOM     30  H   UNL     1      12.810   5.791   4.509  0.00  0.00    +0.148 HD
BRANCH   8   1
ATOM      1  S   UNL     1      10.483   5.829   4.958  0.00  0.00    +0.059 S 
ATOM      5  O   UNL     1      10.345   4.606   4.190  0.00  0.00    -0.153 OA
ATOM      6  O   UNL     1       9.806   7.039   4.532  0.00  0.00    -0.153 OA
BRANCH   1  16
ATOM     16  C   UNL     1       9.953   5.497   6.611  0.00  0.00    +0.105 A 
ATOM     18  C   UNL     1       9.410   6.523   7.365  0.00  0.00    +0.029 A 
ATOM     19  C   UNL     1      10.090   4.218   7.122  0.00  0.00    +0.029 A 
ATOM     20  C   UNL     1       8.991   6.263   8.669  0.00  0.00    +0.005 A 
ATOM     21  C   UNL     1       9.672   3.957   8.427  0.00  0.00    +0.005 A 
ATOM     22  C   UNL     1       9.122   4.980   9.200  0.00  0.00    -0.050 A 
ATOM     24  C   UNL     1       8.674   4.701  10.595  0.00  0.00    +0.044 C 
ENDBRANCH   1  16
ENDBRANCH   8   1
ENDBRANCH  12   8
BRANCH  13   4
ATOM      4  O   UNL     1      16.864   8.787   6.070  0.00  0.00    -0.442 OA
BRANCH   4  17
ATOM      7  O   UNL     1      18.100   9.549   4.303  0.00  0.00    -0.226 OA
ATOM      9  N   UNL     1      19.030   8.173   5.952  0.00  0.00    -0.251 N 
ATOM     17  C   UNL     1      18.027   8.896   5.336  0.00  0.00    +0.405 C 
ATOM     31  H   UNL     1      18.775   7.693   6.812  0.00  0.00    +0.158 HD
BRANCH   9  23
ATOM     23  C   UNL     1      20.372   8.017   5.535  0.00  0.00    +0.036 A 
ATOM     25  C   UNL     1      20.714   6.939   4.734  0.00  0.00    +0.023 A 
ATOM     26  C   UNL     1      21.320   8.946   5.936  0.00  0.00    +0.023 A 
ATOM     27  C   UNL     1      22.038   6.785   4.322  0.00  0.00    +0.002 A 
ATOM     28  C   UNL     1      22.644   8.792   5.525  0.00  0.00    +0.002 A 
ATOM     29  C   UNL     1      23.003   7.711   4.718  0.00  0.00    +0.000 A 
ENDBRANCH   9  23
ENDBRANCH   4  17
ENDBRANCH  13   4
TORSDOF 6
ENDMDL
MODEL 5
REMARK VINA RESULT:      -7.1      2.570      9.292
REMARK  Name = 11883345
REMARK  7 active torsions:
REMARK  status: ('A' for Active; 'I' for Inactive)
REMARK    1  A    between atoms: S_1  and  N_8
REMARK    2  A    between atoms: S_1  and  C_16
REMARK    3  A    between atoms: O_4  and  C_13
REMARK    4  A    between atoms: O_4  and  C_17
REMARK    5  A    between atoms: N_8  and  C_12
REMARK    6  A    between atoms: N_9  and  C_23
REMARK    7  A    between atoms: C_22  and  C_24
REMARK                            x       y       z     vdW  Elec       q    Type
REMARK                         _______ _______ _______ _____ _____    ______ ____
ROOT
ATOM      2  O   UNL     1     -16.476   3.836  26.885  0.00  0.00    -0.369 OA
ATOM      3  O   UNL     1     -17.864   1.178  26.245  0.00  0.00    -0.368 OA
ATOM     10  C   UNL     1     -16.514   1.476  26.654  0.00  0.00    +0.171 C 
ATOM     11  C   UNL     1     -16.126   2.775  25.979  0.00  0.00    +0.191 C 
ATOM     12  C   UNL     1     -16.480   1.809  28.127  0.00  0.00    +0.133 C 
ATOM     13  C   UNL     1     -17.003   2.779  24.750  0.00  0.00    +0.235 C 
ATOM     14  C   UNL     1     -16.895   3.270  28.137  0.00  0.00    +0.183 C 
ATOM     15  C   UNL     1     -18.275   2.142  25.263  0.00  0.00    +0.207 C 
ENDROOT
BRANCH  12   8
ATOM      8  N   UNL     1     -15.157   1.635  28.674  0.00  0.00    -0.182 NA
ATOM     30  H   UNL     1     -14.363   1.859  28.060  0.00  0.00    +0.148 HD
BRANCH   8   1
ATOM      1  S   UNL     1     -14.909   0.561  29.966  0.00  0.00    +0.059 S 
ATOM      5  O   UNL     1     -13.637  -0.115  29.795  0.00  0.00    -0.153 OA
ATOM      6  O   UNL     1     -16.121  -0.207  30.175  0.00  0.00    -0.153 OA
BRANCH   1  16
ATOM     16  C   UNL     1     -14.757   1.668  31.336  0.00  0.00    +0.105 A 
ATOM     18  C   UNL     1     -14.603   3.023  31.094  0.00  0.00    +0.029 A 
ATOM     19  C   UNL     1     -14.795   1.162  32.623  0.00  0.00    +0.029 A 
ATOM     20  C   UNL     1     -14.483   3.898  32.174  0.00  0.00    +0.005 A 
ATOM     21  C   UNL     1     -14.675   2.037  33.703  0.00  0.00    +0.005 A 
ATOM     22  C   UNL     1     -14.519   3.405  33.478  0.00  0.00    -0.050 A 
ATOM     24  C   UNL     1     -14.392   4.341  34.632  0.00  0.00    +0.044 C 
ENDBRANCH   1  16
ENDBRANCH   8   1
ENDBRANCH  12   8
BRANCH  13   4
ATOM      4  O   UNL     1     -17.230   4.067  24.223  0.00  0.00    -0.442 OA
BRANCH   4  17
ATOM      7  O   UNL     1     -16.738   3.995  21.991  0.00  0.00    -0.226 OA
ATOM      9  N   UNL     1     -15.496   5.303  23.482  0.00  0.00    -0.251 N 
ATOM     17  C   UNL     1     -16.495   4.425  23.111  0.00  0.00    +0.405 C 
ATOM     31  H   UNL     1     -15.454   5.544  24.469  0.00  0.00    +0.158 HD
BRANCH   9  23
ATOM     23  C   UNL     1     -14.523   5.912  22.657  0.00  0.00    +0.036 A 
ATOM     25  C   UNL     1     -14.738   7.199  22.189  0.00  0.00    +0.023 A 
ATOM     26  C   UNL     1     -13.372   5.210  22.332  0.00  0.00    +0.023 A 
ATOM     27  C   UNL     1     -13.777   7.800  21.375  0.00  0.00    +0.002 A 
ATOM     28  C   UNL     1     -12.412   5.811  21.518  0.00  0.00    +0.002 A 
ATOM     29  C   UNL     1     -12.615   7.106  21.039  0.00  0.00    +0.000 A 
ENDBRANCH   9  23
ENDBRANCH   4  17
ENDBRANCH  13   4
TORSDOF 6
ENDMDL
MODEL 6
REMARK VINA RESULT:      -7.1     19.449     20.968
REMARK  Name = 11883345
REMARK  7 active torsions:
REMARK  status: ('A' for Active; 'I' for Inactive)
REMARK    1  A    between atoms: S_1  and  N_8
REMARK    2  A    between atoms: S_1  and  C_16
REMARK    3  A    between atoms: O_4  and  C_13
REMARK    4  A    between atoms: O_4  and  C_17
REMARK    5  A    between atoms: N_8  and  C_12
REMARK    6  A    between atoms: N_9  and  C_23
REMARK    7  A    between atoms: C_22  and  C_24
REMARK                            x       y       z     vdW  Elec       q    Type
REMARK                         _______ _______ _______ _____ _____    ______ ____
ROOT
ATOM      2  O   UNL     1      -3.155 -10.363  16.750  0.00  0.00    -0.369 OA
ATOM      3  O   UNL     1      -4.445 -12.876  15.557  0.00  0.00    -0.368 OA
ATOM     10  C   UNL     1      -4.296 -11.538  15.036  0.00  0.00    +0.171 C 
ATOM     11  C   UNL     1      -4.466 -10.590  16.205  0.00  0.00    +0.191 C 
ATOM     12  C   UNL     1      -2.871 -11.311  14.589  0.00  0.00    +0.133 C 
ATOM     13  C   UNL     1      -5.333 -11.387  17.149  0.00  0.00    +0.235 C 
ATOM     14  C   UNL     1      -2.174 -10.971  15.894  0.00  0.00    +0.183 C 
ATOM     15  C   UNL     1      -4.823 -12.795  16.940  0.00  0.00    +0.207 C 
ENDROOT
BRANCH  12   8
ATOM      8  N   UNL     1      -2.785 -10.222  13.647  0.00  0.00    -0.182 NA
ATOM     30  H   UNL     1      -3.330  -9.377  13.857  0.00  0.00    +0.148 HD
BRANCH   8   1
ATOM      1  S   UNL     1      -2.348 -10.531  12.035  0.00  0.00    +0.059 S 
ATOM      5  O   UNL     1      -2.370 -11.961  11.794  0.00  0.00    -0.153 OA
ATOM      6  O   UNL     1      -1.166  -9.754  11.714  0.00  0.00    -0.153 OA
BRANCH   1  16
ATOM     16  C   UNL     1      -3.696  -9.808  11.148  0.00  0.00    +0.105 A 
ATOM     18  C   UNL     1      -3.483  -9.334   9.865  0.00  0.00    +0.029 A 
ATOM     19  C   UNL     1      -4.938  -9.731  11.751  0.00  0.00    +0.029 A 
ATOM     20  C   UNL     1      -4.545  -8.764   9.164  0.00  0.00    +0.005 A 
ATOM     21  C   UNL     1      -6.002  -9.161  11.051  0.00  0.00    +0.005 A 
ATOM     22  C   UNL     1      -5.805  -8.677   9.757  0.00  0.00    -0.050 A 
ATOM     24  C   UNL     1      -6.942  -8.069   9.008  0.00  0.00    +0.044 C 
ENDBRANCH   1  16
ENDBRANCH   8   1
ENDBRANCH  12   8
BRANCH  13   4
ATOM      4  O   UNL     1      -5.225 -10.978  18.494  0.00  0.00    -0.442 OA
BRANCH   4  17
ATOM      7  O   UNL     1      -6.428 -10.275  20.307  0.00  0.00    -0.226 OA
ATOM      9  N   UNL     1      -7.444 -10.675  18.237  0.00  0.00    -0.251 N 
ATOM     17  C   UNL     1      -6.392 -10.606  19.129  0.00  0.00    +0.405 C 
ATOM     31  H   UNL     1      -7.214 -10.974  17.293  0.00  0.00    +0.158 HD
BRANCH   9  23
ATOM     23  C   UNL     1      -8.806 -10.380  18.475  0.00  0.00    +0.036 A 
ATOM     25  C   UNL     1      -9.448  -9.446  17.677  0.00  0.00    +0.023 A 
ATOM     26  C   UNL     1      -9.473 -11.030  19.502  0.00  0.00    +0.023 A 
ATOM     27  C   UNL     1     -10.792  -9.155  17.911  0.00  0.00    +0.002 A 
ATOM     28  C   UNL     1     -10.817 -10.739  19.736  0.00  0.00    +0.002 A 
ATOM     29  C   UNL     1     -11.477  -9.801  18.941  0.00  0.00    +0.000 A 
ENDBRANCH   9  23
ENDBRANCH   4  17
ENDBRANCH  13   4
TORSDOF 6
ENDMDL
MODEL 7
REMARK VINA RESULT:      -7.0     19.010     20.795
REMARK  Name = 11883345
REMARK  7 active torsions:
REMARK  status: ('A' for Active; 'I' for Inactive)
REMARK    1  A    between atoms: S_1  and  N_8
REMARK    2  A    between atoms: S_1  and  C_16
REMARK    3  A    between atoms: O_4  and  C_13
REMARK    4  A    between atoms: O_4  and  C_17
REMARK    5  A    between atoms: N_8  and  C_12
REMARK    6  A    between atoms: N_9  and  C_23
REMARK    7  A    between atoms: C_22  and  C_24
REMARK                            x       y       z     vdW  Elec       q    Type
REMARK                         _______ _______ _______ _____ _____    ______ ____
ROOT
ATOM      2  O   UNL     1      -5.703 -10.139  17.127  0.00  0.00    -0.369 OA
ATOM      3  O   UNL     1      -4.367 -12.161  19.005  0.00  0.00    -0.368 OA
ATOM     10  C   UNL     1      -4.757 -12.257  17.620  0.00  0.00    +0.171 C 
ATOM     11  C   UNL     1      -6.055 -11.489  17.474  0.00  0.00    +0.191 C 
ATOM     12  C   UNL     1      -3.785 -11.491  16.753  0.00  0.00    +0.133 C 
ATOM     13  C   UNL     1      -6.641 -11.573  18.863  0.00  0.00    +0.235 C 
ATOM     14  C   UNL     1      -4.290 -10.065  16.884  0.00  0.00    +0.183 C 
ATOM     15  C   UNL     1      -5.409 -11.497  19.736  0.00  0.00    +0.207 C 
ENDROOT
BRANCH  12   8
ATOM      8  N   UNL     1      -3.836 -11.943  15.384  0.00  0.00    -0.182 NA
ATOM     30  H   UNL     1      -4.609 -12.570  15.126  0.00  0.00    +0.148 HD
BRANCH   8   1
ATOM      1  S   UNL     1      -2.419 -11.970  14.448  0.00  0.00    +0.059 S 
ATOM      5  O   UNL     1      -2.147 -13.329  14.021  0.00  0.00    -0.153 OA
ATOM      6  O   UNL     1      -1.395 -11.199  15.127  0.00  0.00    -0.153 OA
BRANCH   1  16
ATOM     16  C   UNL     1      -2.905 -11.040  13.025  0.00  0.00    +0.105 A 
ATOM     18  C   UNL     1      -4.245 -10.750  12.834  0.00  0.00    +0.029 A 
ATOM     19  C   UNL     1      -1.939 -10.619  12.129  0.00  0.00    +0.029 A 
ATOM     20  C   UNL     1      -4.631 -10.017  11.712  0.00  0.00    +0.005 A 
ATOM     21  C   UNL     1      -2.324  -9.885  11.006  0.00  0.00    +0.005 A 
ATOM     22  C   UNL     1      -3.670  -9.584  10.798  0.00  0.00    -0.050 A 
ATOM     24  C   UNL     1      -4.082  -8.799   9.599  0.00  0.00    +0.044 C 
ENDBRANCH   1  16
ENDBRANCH   8   1
ENDBRANCH  12   8
BRANCH  13   4
ATOM      4  O   UNL     1      -7.560 -10.543  19.151  0.00  0.00    -0.442 OA
BRANCH   4  17
ATOM      7  O   UNL     1      -9.438 -11.305  18.092  0.00  0.00    -0.226 OA
ATOM      9  N   UNL     1      -8.623  -9.140  17.742  0.00  0.00    -0.251 N 
ATOM     17  C   UNL     1      -8.632 -10.406  18.294  0.00  0.00    +0.405 C 
ATOM     31  H   UNL     1      -7.865  -8.528  18.036  0.00  0.00    +0.158 HD
BRANCH   9  23
ATOM     23  C   UNL     1      -9.538  -8.587  16.817  0.00  0.00    +0.036 A 
ATOM     25  C   UNL     1     -10.381  -7.564  17.224  0.00  0.00    +0.023 A 
ATOM     26  C   UNL     1      -9.575  -9.078  15.521  0.00  0.00    +0.023 A 
ATOM     27  C   UNL     1     -11.284  -7.018  16.312  0.00  0.00    +0.002 A 
ATOM     28  C   UNL     1     -10.479  -8.533  14.610  0.00  0.00    +0.002 A 
ATOM     29  C   UNL     1     -11.334  -7.503  15.005  0.00  0.00    +0.000 A 
ENDBRANCH   9  23
ENDBRANCH   4  17
ENDBRANCH  13   4
TORSDOF 6
ENDMDL
MODEL 8
REMARK VINA RESULT:      -7.0     18.806     20.403
REMARK  Name = 11883345
REMARK  7 active torsions:
REMARK  status: ('A' for Active; 'I' for Inactive)
REMARK    1  A    between atoms: S_1  and  N_8
REMARK    2  A    between atoms: S_1  and  C_16
REMARK    3  A    between atoms: O_4  and  C_13
REMARK    4  A    between atoms: O_4  and  C_17
REMARK    5  A    between atoms: N_8  and  C_12
REMARK    6  A    between atoms: N_9  and  C_23
REMARK    7  A    between atoms: C_22  and  C_24
REMARK                            x       y       z     vdW  Elec       q    Type
REMARK                         _______ _______ _______ _____ _____    ______ ____
ROOT
ATOM      2  O   UNL     1      -5.854 -10.137  16.849  0.00  0.00    -0.369 OA
ATOM      3  O   UNL     1      -4.582 -11.873  19.034  0.00  0.00    -0.368 OA
ATOM     10  C   UNL     1      -4.846 -12.132  17.640  0.00  0.00    +0.171 C 
ATOM     11  C   UNL     1      -6.164 -11.463  17.309  0.00  0.00    +0.191 C 
ATOM     12  C   UNL     1      -3.843 -11.402  16.778  0.00  0.00    +0.133 C 
ATOM     13  C   UNL     1      -6.863 -11.441  18.647  0.00  0.00    +0.235 C 
ATOM     14  C   UNL     1      -4.430 -10.003  16.715  0.00  0.00    +0.183 C 
ATOM     15  C   UNL     1      -5.717 -11.202  19.603  0.00  0.00    +0.207 C 
ENDROOT
BRANCH  12   8
ATOM      8  N   UNL     1      -3.751 -11.993  15.465  0.00  0.00    -0.182 NA
ATOM     30  H   UNL     1      -4.399 -12.763  15.252  0.00  0.00    +0.148 HD
BRANCH   8   1
ATOM      1  S   UNL     1      -2.303 -11.880  14.585  0.00  0.00    +0.059 S 
ATOM      5  O   UNL     1      -1.886 -13.205  14.168  0.00  0.00    -0.153 OA
ATOM      6  O   UNL     1      -1.385 -11.018  15.303  0.00  0.00    -0.153 OA
BRANCH   1  16
ATOM     16  C   UNL     1      -2.821 -10.995  13.145  0.00  0.00    +0.105 A 
ATOM     18  C   UNL     1      -4.163 -10.692  12.985  0.00  0.00    +0.029 A 
ATOM     19  C   UNL     1      -1.878 -10.620  12.204  0.00  0.00    +0.029 A 
ATOM     20  C   UNL     1      -4.574  -9.994  11.850  0.00  0.00    +0.005 A 
ATOM     21  C   UNL     1      -2.288  -9.922  11.069  0.00  0.00    +0.005 A 
ATOM     22  C   UNL     1      -3.636  -9.609  10.892  0.00  0.00    -0.050 A 
ATOM     24  C   UNL     1      -4.075  -8.861   9.678  0.00  0.00    +0.044 C 
ENDBRANCH   1  16
ENDBRANCH   8   1
ENDBRANCH  12   8
BRANCH  13   4
ATOM      4  O   UNL     1      -7.856 -10.445  18.748  0.00  0.00    -0.442 OA
BRANCH   4  17
ATOM      7  O   UNL     1      -9.468 -12.058  18.906  0.00  0.00    -0.226 OA
ATOM      9  N   UNL     1      -9.998  -9.780  18.981  0.00  0.00    -0.251 N 
ATOM     17  C   UNL     1      -9.160 -10.874  18.883  0.00  0.00    +0.405 C 
ATOM     31  H   UNL     1      -9.551  -8.867  18.942  0.00  0.00    +0.158 HD
BRANCH   9  23
ATOM     23  C   UNL     1     -11.403  -9.772  19.130  0.00  0.00    +0.036 A 
ATOM     25  C   UNL     1     -12.204  -9.584  18.014  0.00  0.00    +0.023 A 
ATOM     26  C   UNL     1     -11.954  -9.951  20.390  0.00  0.00    +0.023 A 
ATOM     27  C   UNL     1     -13.591  -9.576  18.161  0.00  0.00    +0.002 A 
ATOM     28  C   UNL     1     -13.341  -9.943  20.537  0.00  0.00    +0.002 A 
ATOM     29  C   UNL     1     -14.160  -9.755  19.422  0.00  0.00    +0.000 A 
ENDBRANCH   9  23
ENDBRANCH   4  17
ENDBRANCH  13   4
TORSDOF 6
ENDMDL
MODEL 9
REMARK VINA RESULT:      -6.9      2.592      9.652
REMARK  Name = 11883345
REMARK  7 active torsions:
REMARK  status: ('A' for Active; 'I' for Inactive)
REMARK    1  A    between atoms: S_1  and  N_8
REMARK    2  A    between atoms: S_1  and  C_16
REMARK    3  A    between atoms: O_4  and  C_13
REMARK    4  A    between atoms: O_4  and  C_17
REMARK    5  A    between atoms: N_8  and  C_12
REMARK    6  A    between atoms: N_9  and  C_23
REMARK    7  A    between atoms: C_22  and  C_24
REMARK                            x       y       z     vdW  Elec       q    Type
REMARK                         _______ _______ _______ _____ _____    ______ ____
ROOT
ATOM      2  O   UNL     1     -15.614   6.359  23.838  0.00  0.00    -0.369 OA
ATOM      3  O   UNL     1     -16.508   4.216  21.834  0.00  0.00    -0.368 OA
ATOM     10  C   UNL     1     -15.856   4.113  23.117  0.00  0.00    +0.171 C 
ATOM     11  C   UNL     1     -14.895   5.280  23.218  0.00  0.00    +0.191 C 
ATOM     12  C   UNL     1     -16.850   4.366  24.226  0.00  0.00    +0.133 C 
ATOM     13  C   UNL     1     -14.586   5.574  21.769  0.00  0.00    +0.235 C 
ATOM     14  C   UNL     1     -16.896   5.883  24.278  0.00  0.00    +0.183 C 
ATOM     15  C   UNL     1     -15.911   5.294  21.096  0.00  0.00    +0.207 C 
ENDROOT
BRANCH  12   8
ATOM      8  N   UNL     1     -16.393   3.811  25.476  0.00  0.00    -0.182 NA
ATOM     30  H   UNL     1     -15.465   4.105  25.808  0.00  0.00    +0.148 HD
BRANCH   8   1
ATOM      1  S   UNL     1     -17.025   2.334  26.029  0.00  0.00    +0.059 S 
ATOM      5  O   UNL     1     -16.464   1.247  25.249  0.00  0.00    -0.153 OA
ATOM      6  O   UNL     1     -18.462   2.465  26.172  0.00  0.00    -0.153 OA
BRANCH   1  16
ATOM     16  C   UNL     1     -16.351   2.238  27.660  0.00  0.00    +0.105 A 
ATOM     18  C   UNL     1     -15.856   3.385  28.255  0.00  0.00    +0.029 A 
ATOM     19  C   UNL     1     -16.331   1.018  28.313  0.00  0.00    +0.029 A 
ATOM     20  C   UNL     1     -15.325   3.311  29.542  0.00  0.00    +0.005 A 
ATOM     21  C   UNL     1     -15.800   0.943  29.600  0.00  0.00    +0.005 A 
ATOM     22  C   UNL     1     -15.296   2.089  30.215  0.00  0.00    -0.050 A 
ATOM     24  C   UNL     1     -14.728   2.010  31.592  0.00  0.00    +0.044 C 
ENDBRANCH   1  16
ENDBRANCH   8   1
ENDBRANCH  12   8
BRANCH  13   4
ATOM      4  O   UNL     1     -14.145   6.894  21.543  0.00  0.00    -0.442 OA
BRANCH   4  17
ATOM      7  O   UNL     1     -11.939   6.389  21.215  0.00  0.00    -0.226 OA
ATOM      9  N   UNL     1     -13.031   8.019  19.938  0.00  0.00    -0.251 N 
ATOM     17  C   UNL     1     -12.927   7.046  20.913  0.00  0.00    +0.405 C 
ATOM     31  H   UNL     1     -13.944   8.455  19.835  0.00  0.00    +0.158 HD
BRANCH   9  23
ATOM     23  C   UNL     1     -12.023   8.484  19.063  0.00  0.00    +0.036 A 
ATOM     25  C   UNL     1     -11.006   9.283  19.562  0.00  0.00    +0.023 A 
ATOM     26  C   UNL     1     -12.071   8.133  17.723  0.00  0.00    +0.023 A 
ATOM     27  C   UNL     1     -10.011   9.741  18.698  0.00  0.00    +0.002 A 
ATOM     28  C   UNL     1     -11.077   8.592  16.859  0.00  0.00    +0.002 A 
ATOM     29  C   UNL     1     -10.046   9.397  17.347  0.00  0.00    +0.000 A 
ENDBRANCH   9  23
ENDBRANCH   4  17
ENDBRANCH  13   4
TORSDOF 6
ENDMDL
MODEL 10
REMARK VINA RESULT:      -6.9     18.112     20.565
REMARK  Name = 11883345
REMARK  7 active torsions:
REMARK  status: ('A' for Active; 'I' for Inactive)
REMARK    1  A    between atoms: S_1  and  N_8
REMARK    2  A    between atoms: S_1  and  C_16
REMARK    3  A    between atoms: O_4  and  C_13
REMARK    4  A    between atoms: O_4  and  C_17
REMARK    5  A    between atoms: N_8  and  C_12
REMARK    6  A    between atoms: N_9  and  C_23
REMARK    7  A    between atoms: C_22  and  C_24
REMARK                            x       y       z     vdW  Elec       q    Type
REMARK                         _______ _______ _______ _____ _____    ______ ____
ROOT
ATOM      2  O   UNL     1      -6.497 -11.784  16.993  0.00  0.00    -0.369 OA
ATOM      3  O   UNL     1      -5.402 -11.465  19.840  0.00  0.00    -0.368 OA
ATOM     10  C   UNL     1      -6.227 -10.601  19.031  0.00  0.00    +0.171 C 
ATOM     11  C   UNL     1      -5.733 -10.731  17.604  0.00  0.00    +0.191 C 
ATOM     12  C   UNL     1      -7.639 -11.137  18.975  0.00  0.00    +0.133 C 
ATOM     13  C   UNL     1      -4.288 -11.126  17.794  0.00  0.00    +0.235 C 
ATOM     14  C   UNL     1      -7.539 -12.196  17.892  0.00  0.00    +0.183 C 
ATOM     15  C   UNL     1      -4.356 -12.009  19.019  0.00  0.00    +0.207 C 
ENDROOT
BRANCH  12   8
ATOM      8  N   UNL     1      -8.577 -10.102  18.614  0.00  0.00    -0.182 NA
ATOM     30  H   UNL     1      -8.226  -9.136  18.598  0.00  0.00    +0.148 HD
BRANCH   8   1
ATOM      1  S   UNL     1     -10.243 -10.361  18.822  0.00  0.00    +0.059 S 
ATOM      5  O   UNL     1     -10.609 -10.066  20.194  0.00  0.00    -0.153 OA
ATOM      6  O   UNL     1     -10.597 -11.636  18.229  0.00  0.00    -0.153 OA
BRANCH   1  16
ATOM     16  C   UNL     1     -10.938  -9.103  17.791  0.00  0.00    +0.105 A 
ATOM     18  C   UNL     1     -12.271  -9.188  17.429  0.00  0.00    +0.029 A 
ATOM     19  C   UNL     1     -10.137  -8.058  17.366  0.00  0.00    +0.029 A 
ATOM     20  C   UNL     1     -12.821  -8.197  16.616  0.00  0.00    +0.005 A 
ATOM     21  C   UNL     1     -10.686  -7.066  16.554  0.00  0.00    +0.005 A 
ATOM     22  C   UNL     1     -12.028  -7.136  16.179  0.00  0.00    -0.050 A 
ATOM     24  C   UNL     1     -12.616  -6.075  15.310  0.00  0.00    +0.044 C 
ENDBRANCH   1  16
ENDBRANCH   8   1
ENDBRANCH  12   8
BRANCH  13   4
ATOM      4  O   UNL     1      -3.738 -11.799  16.684  0.00  0.00    -0.442 OA
BRANCH   4  17
ATOM      7  O   UNL     1      -2.255 -10.213  15.969  0.00  0.00    -0.226 OA
ATOM      9  N   UNL     1      -3.694 -11.309  14.484  0.00  0.00    -0.251 N 
ATOM     17  C   UNL     1      -3.139 -11.021  15.715  0.00  0.00    +0.405 C 
ATOM     31  H   UNL     1      -4.424 -12.017  14.475  0.00  0.00    +0.158 HD
BRANCH   9  23
ATOM     23  C   UNL     1      -3.372 -10.741  13.230  0.00  0.00    +0.036 A 
ATOM     25  C   UNL     1      -2.041 -10.630  12.856  0.00  0.00    +0.023 A 
ATOM     26  C   UNL     1      -4.392 -10.303  12.399  0.00  0.00    +0.023 A 
ATOM     27  C   UNL     1      -1.723 -10.070  11.619  0.00  0.00    +0.002 A 
ATOM     28  C   UNL     1      -4.073  -9.742  11.163  0.00  0.00    +0.002 A 
ATOM     29  C   UNL     1      -2.739  -9.625  10.772  0.00  0.00    +0.000 A 
ENDBRANCH   9  23
ENDBRANCH   4  17
ENDBRANCH  13   4
TORSDOF 6
ENDMDL
