MODEL 1
REMARK VINA RESULT:      -6.8      0.000      0.000
REMARK  Name = 45361338
REMARK  11 active torsions:
REMARK  status: ('A' for Active; 'I' for Inactive)
REMARK    1  A    between atoms: O_2  and  C_11
REMARK    2  A    between atoms: N_6  and  C_25
REMARK    3  A    between atoms: N_6  and  C_26
REMARK    4  A    between atoms: N_8  and  C_34
REMARK    5  A    between atoms: C_9  and  C_17
REMARK    6  A    between atoms: C_12  and  C_18
REMARK    7  A    between atoms: C_14  and  C_21
REMARK    8  A    between atoms: C_18  and  C_22
REMARK    9  A    between atoms: C_18  and  C_23
REMARK   10  A    between atoms: C_25  and  C_28
REMARK   11  A    between atoms: C_27  and  C_29
REMARK                            x       y       z     vdW  Elec       q    Type
REMARK                         _______ _______ _______ _____ _____    ______ ____
ROOT
ATOM      1  S   UNL     1      17.920   5.613  19.129  0.00  0.00    -0.057 S 
ATOM      4  O   UNL     1      21.451   6.120  22.158  0.00  0.00    -0.268 OA
ATOM      5  N   UNL     1      18.767   7.019  21.127  0.00  0.00    -0.229 NA
ATOM      7  N   UNL     1      20.197   5.231  20.372  0.00  0.00    -0.259 N 
ATOM      9  C   UNL     1      14.766   8.053  20.135  0.00  0.00    -0.022 C 
ATOM     10  C   UNL     1      15.648   9.233  20.705  0.00  0.00    +0.033 C 
ATOM     11  C   UNL     1      14.791  10.232  21.534  0.00  0.00    +0.123 C 
ATOM     12  C   UNL     1      13.545  10.729  20.769  0.00  0.00    +0.029 C 
ATOM     13  C   UNL     1      13.555   8.632  19.367  0.00  0.00    +0.008 C 
ATOM     14  C   UNL     1      16.920   8.699  21.482  0.00  0.00    +0.042 C 
ATOM     15  C   UNL     1      12.708   9.578  20.207  0.00  0.00    +0.007 C 
ATOM     16  C   UNL     1      15.602   7.210  19.124  0.00  0.00    +0.051 C 
ATOM     17  C   UNL     1      14.247   7.119  21.260  0.00  0.00    +0.012 C 
ATOM     19  C   UNL     1      17.544   7.539  20.743  0.00  0.00    +0.057 A 
ATOM     20  C   UNL     1      16.935   6.880  19.696  0.00  0.00    +0.015 A 
ATOM     21  C   UNL     1      17.976   9.786  21.736  0.00  0.00    +0.014 C 
ATOM     24  C   UNL     1      19.071   6.010  20.339  0.00  0.00    +0.165 A 
ATOM     27  C   UNL     1      21.307   5.310  21.249  0.00  0.00    +0.266 C 
ATOM     36  H   UNL     1      20.207   4.496  19.669  0.00  0.00    +0.157 HD
ENDROOT
BRANCH  27  29
ATOM      8  N   UNL     1      23.666   4.583  20.691  0.00  0.00    -0.346 N 
ATOM     29  C   UNL     1      22.375   4.295  21.050  0.00  0.00    +0.105 A 
ATOM     31  C   UNL     1      22.269   2.929  21.186  0.00  0.00    +0.032 A 
ATOM     32  C   UNL     1      24.386   3.421  20.598  0.00  0.00    +0.086 A 
ATOM     33  C   UNL     1      23.543   2.376  20.900  0.00  0.00    +0.020 A 
ATOM     34  C   UNL     1      24.202   5.904  20.445  0.00  0.00    +0.149 C 
ENDBRANCH  27  29
BRANCH  11   2
ATOM      2  O   UNL     1      15.577  11.380  21.851  0.00  0.00    -0.391 OA
ATOM     35  H   UNL     1      15.116  12.165  21.510  0.00  0.00    +0.210 HD
ENDBRANCH  11   2
BRANCH  12  18
ATOM     18  C   UNL     1      12.661  11.627  21.641  0.00  0.00    +0.078 C 
ATOM     22  C   UNL     1      11.271  11.001  21.774  0.00  0.00    +0.017 C 
BRANCH  18  23
ATOM      3  O   UNL     1      12.580  13.151  19.795  0.00  0.00    -0.275 OA
ATOM      6  N   UNL     1      12.520  14.120  21.896  0.00  0.00    -0.301 N 
ATOM     23  C   UNL     1      12.577  13.026  21.026  0.00  0.00    +0.219 C 
ATOM     26  C   UNL     1      12.463  15.468  21.342  0.00  0.00    +0.132 C 
BRANCH   6  25
ATOM     25  C   UNL     1      12.478  14.057  23.356  0.00  0.00    +0.134 C 
BRANCH  25  28
ATOM     28  C   UNL     1      11.075  14.288  23.813  0.00  0.00    -0.016 C 
ATOM     30  C   UNL     1      10.350  13.384  24.479  0.00  0.00    +0.005 C 
ENDBRANCH  25  28
ENDBRANCH   6  25
ENDBRANCH  18  23
ENDBRANCH  12  18
TORSDOF 6
ENDMDL
MODEL 2
REMARK VINA RESULT:      -6.7     29.700     32.679
REMARK  Name = 45361338
REMARK  11 active torsions:
REMARK  status: ('A' for Active; 'I' for Inactive)
REMARK    1  A    between atoms: O_2  and  C_11
REMARK    2  A    between atoms: N_6  and  C_25
REMARK    3  A    between atoms: N_6  and  C_26
REMARK    4  A    between atoms: N_8  and  C_34
REMARK    5  A    between atoms: C_9  and  C_17
REMARK    6  A    between atoms: C_12  and  C_18
REMARK    7  A    between atoms: C_14  and  C_21
REMARK    8  A    between atoms: C_18  and  C_22
REMARK    9  A    between atoms: C_18  and  C_23
REMARK   10  A    between atoms: C_25  and  C_28
REMARK   11  A    between atoms: C_27  and  C_29
REMARK                            x       y       z     vdW  Elec       q    Type
REMARK                         _______ _______ _______ _____ _____    ______ ____
ROOT
ATOM      1  S   UNL     1      -6.092 -10.115   6.524  0.00  0.00    -0.057 S 
ATOM      4  O   UNL     1      -9.565  -7.000   6.896  0.00  0.00    -0.268 OA
ATOM      5  N   UNL     1      -7.423  -8.666   8.202  0.00  0.00    -0.229 NA
ATOM      7  N   UNL     1      -8.057  -8.502   5.883  0.00  0.00    -0.259 N 
ATOM      9  C   UNL     1      -4.114 -10.537  10.105  0.00  0.00    -0.022 C 
ATOM     10  C   UNL     1      -5.383 -10.315  11.019  0.00  0.00    +0.033 C 
ATOM     11  C   UNL     1      -4.978 -10.041  12.496  0.00  0.00    +0.123 C 
ATOM     12  C   UNL     1      -4.011 -11.107  13.058  0.00  0.00    +0.029 C 
ATOM     13  C   UNL     1      -3.213 -11.631  10.723  0.00  0.00    +0.008 C 
ATOM     14  C   UNL     1      -6.359  -9.221  10.421  0.00  0.00    +0.042 C 
ATOM     15  C   UNL     1      -2.796 -11.326  12.156  0.00  0.00    +0.007 C 
ATOM     16  C   UNL     1      -4.560 -11.039   8.697  0.00  0.00    +0.051 C 
ATOM     17  C   UNL     1      -3.284  -9.238   9.936  0.00  0.00    +0.012 C 
ATOM     19  C   UNL     1      -6.489  -9.387   8.926  0.00  0.00    +0.057 A 
ATOM     20  C   UNL     1      -5.668 -10.198   8.170  0.00  0.00    +0.015 A 
ATOM     21  C   UNL     1      -7.751  -9.230  11.071  0.00  0.00    +0.014 C 
ATOM     24  C   UNL     1      -7.314  -8.979   6.929  0.00  0.00    +0.165 A 
ATOM     27  C   UNL     1      -9.119  -7.563   5.902  0.00  0.00    +0.266 C 
ATOM     36  H   UNL     1      -7.782  -8.879   4.979  0.00  0.00    +0.157 HD
ENDROOT
BRANCH  27  29
ATOM      8  N   UNL     1     -11.061  -7.212   4.319  0.00  0.00    -0.346 N 
ATOM     29  C   UNL     1      -9.717  -7.221   4.585  0.00  0.00    +0.105 A 
ATOM     31  C   UNL     1      -9.055  -6.859   3.432  0.00  0.00    +0.032 A 
ATOM     32  C   UNL     1     -11.268  -6.851   3.013  0.00  0.00    +0.086 A 
ATOM     33  C   UNL     1     -10.037  -6.625   2.437  0.00  0.00    +0.020 A 
ATOM     34  C   UNL     1     -12.113  -7.534   5.259  0.00  0.00    +0.149 C 
ENDBRANCH  27  29
BRANCH  11   2
ATOM      2  O   UNL     1      -6.144 -10.053  13.317  0.00  0.00    -0.391 OA
ATOM     35  H   UNL     1      -6.705  -9.304  13.055  0.00  0.00    +0.210 HD
ENDBRANCH  11   2
BRANCH  12  18
ATOM     18  C   UNL     1      -3.542 -10.761  14.475  0.00  0.00    +0.078 C 
ATOM     22  C   UNL     1      -2.038 -10.484  14.461  0.00  0.00    +0.017 C 
BRANCH  18  23
ATOM      3  O   UNL     1      -3.580 -13.067  15.117  0.00  0.00    -0.275 OA
ATOM      6  N   UNL     1      -4.547 -11.594  16.618  0.00  0.00    -0.301 N 
ATOM     23  C   UNL     1      -3.882 -11.909  15.428  0.00  0.00    +0.219 C 
ATOM     26  C   UNL     1      -4.905 -12.668  17.538  0.00  0.00    +0.132 C 
BRANCH   6  25
ATOM     25  C   UNL     1      -4.907 -10.254  17.075  0.00  0.00    +0.134 C 
BRANCH  25  28
ATOM     28  C   UNL     1      -6.370 -10.218  17.374  0.00  0.00    -0.016 C 
ATOM     30  C   UNL     1      -7.237  -9.409  16.756  0.00  0.00    +0.005 C 
ENDBRANCH  25  28
ENDBRANCH   6  25
ENDBRANCH  18  23
ENDBRANCH  12  18
TORSDOF 6
ENDMDL
MODEL 3
REMARK VINA RESULT:      -6.5      2.342      3.137
REMARK  Name = 45361338
REMARK  11 active torsions:
REMARK  status: ('A' for Active; 'I' for Inactive)
REMARK    1  A    between atoms: O_2  and  C_11
REMARK    2  A    between atoms: N_6  and  C_25
REMARK    3  A    between atoms: N_6  and  C_26
REMARK    4  A    between atoms: N_8  and  C_34
REMARK    5  A    between atoms: C_9  and  C_17
REMARK    6  A    between atoms: C_12  and  C_18
REMARK    7  A    between atoms: C_14  and  C_21
REMARK    8  A    between atoms: C_18  and  C_22
REMARK    9  A    between atoms: C_18  and  C_23
REMARK   10  A    between atoms: C_25  and  C_28
REMARK   11  A    between atoms: C_27  and  C_29
REMARK                            x       y       z     vdW  Elec       q    Type
REMARK                         _______ _______ _______ _____ _____    ______ ____
ROOT
ATOM      1  S   UNL     1      19.247   5.094  20.097  0.00  0.00    -0.057 S 
ATOM      4  O   UNL     1      21.694   6.884  23.662  0.00  0.00    -0.268 OA
ATOM      5  N   UNL     1      19.349   7.055  21.780  0.00  0.00    -0.229 NA
ATOM      7  N   UNL     1      21.095   5.401  21.932  0.00  0.00    -0.259 N 
ATOM      9  C   UNL     1      15.723   7.148  19.563  0.00  0.00    -0.022 C 
ATOM     10  C   UNL     1      16.290   8.559  19.991  0.00  0.00    +0.033 C 
ATOM     11  C   UNL     1      15.143   9.571  20.268  0.00  0.00    +0.123 C 
ATOM     12  C   UNL     1      14.128   9.658  19.107  0.00  0.00    +0.029 C 
ATOM     13  C   UNL     1      14.737   7.319  18.384  0.00  0.00    +0.008 C 
ATOM     14  C   UNL     1      17.330   8.443  21.180  0.00  0.00    +0.042 C 
ATOM     15  C   UNL     1      13.599   8.285  18.690  0.00  0.00    +0.007 C 
ATOM     16  C   UNL     1      16.890   6.238  19.068  0.00  0.00    +0.051 C 
ATOM     17  C   UNL     1      14.993   6.436  20.731  0.00  0.00    +0.012 C 
ATOM     19  C   UNL     1      18.245   7.260  20.971  0.00  0.00    +0.057 A 
ATOM     20  C   UNL     1      18.026   6.279  20.026  0.00  0.00    +0.015 A 
ATOM     21  C   UNL     1      18.162   9.718  21.384  0.00  0.00    +0.014 C 
ATOM     24  C   UNL     1      19.958   5.953  21.402  0.00  0.00    +0.165 A 
ATOM     27  C   UNL     1      21.894   5.869  23.004  0.00  0.00    +0.266 C 
ATOM     36  H   UNL     1      21.375   4.532  21.484  0.00  0.00    +0.157 HD
ENDROOT
BRANCH  27  29
ATOM      8  N   UNL     1      24.295   5.105  22.773  0.00  0.00    -0.346 N 
ATOM     29  C   UNL     1      23.063   5.027  23.369  0.00  0.00    +0.105 A 
ATOM     31  C   UNL     1      23.125   4.051  24.338  0.00  0.00    +0.032 A 
ATOM     32  C   UNL     1      25.142   4.194  23.347  0.00  0.00    +0.086 A 
ATOM     33  C   UNL     1      24.440   3.523  24.325  0.00  0.00    +0.020 A 
ATOM     34  C   UNL     1      24.662   6.004  21.700  0.00  0.00    +0.149 C 
ENDBRANCH  27  29
BRANCH  11   2
ATOM      2  O   UNL     1      15.694  10.875  20.447  0.00  0.00    -0.391 OA
ATOM     35  H   UNL     1      15.872  10.999  21.394  0.00  0.00    +0.210 HD
ENDBRANCH  11   2
BRANCH  12  18
ATOM     18  C   UNL     1      12.952  10.579  19.445  0.00  0.00    +0.078 C 
ATOM     22  C   UNL     1      13.257  11.997  18.959  0.00  0.00    +0.017 C 
BRANCH  18  23
ATOM      3  O   UNL     1      13.312  11.341  21.687  0.00  0.00    -0.275 OA
ATOM      6  N   UNL     1      11.773   9.628  21.446  0.00  0.00    -0.301 N 
ATOM     23  C   UNL     1      12.694  10.559  20.954  0.00  0.00    +0.219 C 
ATOM     26  C   UNL     1      11.522   9.568  22.882  0.00  0.00    +0.132 C 
BRANCH   6  25
ATOM     25  C   UNL     1      10.980   8.696  20.648  0.00  0.00    +0.134 C 
BRANCH  25  28
ATOM     28  C   UNL     1      10.732   7.459  21.447  0.00  0.00    -0.016 C 
ATOM     30  C   UNL     1      11.378   6.304  21.252  0.00  0.00    +0.005 C 
ENDBRANCH  25  28
ENDBRANCH   6  25
ENDBRANCH  18  23
ENDBRANCH  12  18
TORSDOF 6
ENDMDL
MODEL 4
REMARK VINA RESULT:      -6.4     16.028     19.859
REMARK  Name = 45361338
REMARK  11 active torsions:
REMARK  status: ('A' for Active; 'I' for Inactive)
REMARK    1  A    between atoms: O_2  and  C_11
REMARK    2  A    between atoms: N_6  and  C_25
REMARK    3  A    between atoms: N_6  and  C_26
REMARK    4  A    between atoms: N_8  and  C_34
REMARK    5  A    between atoms: C_9  and  C_17
REMARK    6  A    between atoms: C_12  and  C_18
REMARK    7  A    between atoms: C_14  and  C_21
REMARK    8  A    between atoms: C_18  and  C_22
REMARK    9  A    between atoms: C_18  and  C_23
REMARK   10  A    between atoms: C_25  and  C_28
REMARK   11  A    between atoms: C_27  and  C_29
REMARK                            x       y       z     vdW  Elec       q    Type
REMARK                         _______ _______ _______ _____ _____    ______ ____
ROOT
ATOM      1  S   UNL     1       9.141   7.501   7.908  0.00  0.00    -0.057 S 
ATOM      4  O   UNL     1      10.934  11.805   8.319  0.00  0.00    -0.268 OA
ATOM      5  N   UNL     1      10.781   9.189   6.834  0.00  0.00    -0.229 NA
ATOM      7  N   UNL     1       9.629   9.909   8.825  0.00  0.00    -0.259 N 
ATOM      9  C   UNL     1      10.274   5.777   4.349  0.00  0.00    -0.022 C 
ATOM     10  C   UNL     1      11.701   6.453   4.288  0.00  0.00    +0.033 C 
ATOM     11  C   UNL     1      12.328   6.325   2.871  0.00  0.00    +0.123 C 
ATOM     12  C   UNL     1      12.328   4.872   2.345  0.00  0.00    +0.029 C 
ATOM     13  C   UNL     1      10.364   4.323   3.830  0.00  0.00    +0.008 C 
ATOM     14  C   UNL     1      11.676   7.938   4.835  0.00  0.00    +0.042 C 
ATOM     15  C   UNL     1      10.945   4.223   2.426  0.00  0.00    +0.007 C 
ATOM     16  C   UNL     1       9.783   5.715   5.829  0.00  0.00    +0.051 C 
ATOM     17  C   UNL     1       9.228   6.550   3.505  0.00  0.00    +0.012 C 
ATOM     19  C   UNL     1      10.815   8.034   6.072  0.00  0.00    +0.057 A 
ATOM     20  C   UNL     1       9.968   7.032   6.496  0.00  0.00    +0.015 A 
ATOM     21  C   UNL     1      13.075   8.500   5.127  0.00  0.00    +0.014 C 
ATOM     24  C   UNL     1       9.944   9.017   7.834  0.00  0.00    +0.165 A 
ATOM     27  C   UNL     1      10.118  11.224   9.025  0.00  0.00    +0.266 C 
ATOM     36  H   UNL     1       8.941   9.559   9.487  0.00  0.00    +0.157 HD
ENDROOT
BRANCH  27  29
ATOM      8  N   UNL     1       8.554  12.889  10.114  0.00  0.00    -0.346 N 
ATOM     29  C   UNL     1       9.560  11.962  10.189  0.00  0.00    +0.105 A 
ATOM     31  C   UNL     1       9.934  11.851  11.510  0.00  0.00    +0.032 A 
ATOM     32  C   UNL     1       8.280  13.372  11.366  0.00  0.00    +0.086 A 
ATOM     33  C   UNL     1       9.124  12.744  12.255  0.00  0.00    +0.020 A 
ATOM     34  C   UNL     1       7.876  13.307   8.905  0.00  0.00    +0.149 C 
ENDBRANCH  27  29
BRANCH  11   2
ATOM      2  O   UNL     1      13.687   6.759   2.913  0.00  0.00    -0.391 OA
ATOM     35  H   UNL     1      14.156   6.217   3.570  0.00  0.00    +0.210 HD
ENDBRANCH  11   2
BRANCH  12  18
ATOM     18  C   UNL     1      12.851   4.786   0.908  0.00  0.00    +0.078 C 
ATOM     22  C   UNL     1      11.820   4.073   0.031  0.00  0.00    +0.017 C 
BRANCH  18  23
ATOM      3  O   UNL     1      14.425   3.185   1.741  0.00  0.00    -0.275 OA
ATOM      6  N   UNL     1      15.120   4.408  -0.097  0.00  0.00    -0.301 N 
ATOM     23  C   UNL     1      14.193   4.049   0.888  0.00  0.00    +0.219 C 
ATOM     26  C   UNL     1      16.417   3.741  -0.129  0.00  0.00    +0.132 C 
BRANCH   6  25
ATOM     25  C   UNL     1      14.912   5.391  -1.158  0.00  0.00    +0.134 C 
BRANCH  25  28
ATOM     28  C   UNL     1      14.885   4.688  -2.475  0.00  0.00    -0.016 C 
ATOM     30  C   UNL     1      13.762   4.369  -3.127  0.00  0.00    +0.005 C 
ENDBRANCH  25  28
ENDBRANCH   6  25
ENDBRANCH  18  23
ENDBRANCH  12  18
TORSDOF 6
ENDMDL
MODEL 5
REMARK VINA RESULT:      -6.4     31.516     33.646
REMARK  Name = 45361338
REMARK  11 active torsions:
REMARK  status: ('A' for Active; 'I' for Inactive)
REMARK    1  A    between atoms: O_2  and  C_11
REMARK    2  A    between atoms: N_6  and  C_25
REMARK    3  A    between atoms: N_6  and  C_26
REMARK    4  A    between atoms: N_8  and  C_34
REMARK    5  A    between atoms: C_9  and  C_17
REMARK    6  A    between atoms: C_12  and  C_18
REMARK    7  A    between atoms: C_14  and  C_21
REMARK    8  A    between atoms: C_18  and  C_22
REMARK    9  A    between atoms: C_18  and  C_23
REMARK   10  A    between atoms: C_25  and  C_28
REMARK   11  A    between atoms: C_27  and  C_29
REMARK                            x       y       z     vdW  Elec       q    Type
REMARK                         _______ _______ _______ _____ _____    ______ ____
ROOT
ATOM      1  S   UNL     1      -7.862  -9.222  17.145  0.00  0.00    -0.057 S 
ATOM      4  O   UNL     1      -4.536 -12.511  16.981  0.00  0.00    -0.268 OA
ATOM      5  N   UNL     1      -7.262 -11.620  17.903  0.00  0.00    -0.229 NA
ATOM      7  N   UNL     1      -5.608 -10.446  16.602  0.00  0.00    -0.259 N 
ATOM      9  C   UNL     1     -11.313 -10.712  18.815  0.00  0.00    -0.022 C 
ATOM     10  C   UNL     1     -10.596 -11.691  19.825  0.00  0.00    +0.033 C 
ATOM     11  C   UNL     1     -11.594 -12.727  20.416  0.00  0.00    +0.123 C 
ATOM     12  C   UNL     1     -12.857 -12.068  21.012  0.00  0.00    +0.029 C 
ATOM     13  C   UNL     1     -12.551 -10.078  19.492  0.00  0.00    +0.008 C 
ATOM     14  C   UNL     1      -9.303 -12.351  19.194  0.00  0.00    +0.042 C 
ATOM     15  C   UNL     1     -13.533 -11.110  20.030  0.00  0.00    +0.007 C 
ATOM     16  C   UNL     1     -10.346  -9.551  18.428  0.00  0.00    +0.051 C 
ATOM     17  C   UNL     1     -11.766 -11.440  17.521  0.00  0.00    +0.012 C 
ATOM     19  C   UNL     1      -8.521 -11.331  18.400  0.00  0.00    +0.057 A 
ATOM     20  C   UNL     1      -9.008 -10.086  18.060  0.00  0.00    +0.015 A 
ATOM     21  C   UNL     1      -8.390 -13.014  20.235  0.00  0.00    +0.014 C 
ATOM     24  C   UNL     1      -6.814 -10.578  17.238  0.00  0.00    +0.165 A 
ATOM     27  C   UNL     1      -4.550 -11.383  16.499  0.00  0.00    +0.266 C 
ATOM     36  H   UNL     1      -5.486  -9.549  16.138  0.00  0.00    +0.157 HD
ENDROOT
BRANCH  27  29
ATOM      8  N   UNL     1      -3.343 -10.826  14.346  0.00  0.00    -0.346 N 
ATOM     29  C   UNL     1      -3.366 -10.953  15.711  0.00  0.00    +0.105 A 
ATOM     31  C   UNL     1      -2.119 -10.610  16.187  0.00  0.00    +0.032 A 
ATOM     32  C   UNL     1      -2.102 -10.408  13.945  0.00  0.00    +0.086 A 
ATOM     33  C   UNL     1      -1.319 -10.266  15.069  0.00  0.00    +0.020 A 
ATOM     34  C   UNL     1      -4.450 -11.090  13.452  0.00  0.00    +0.149 C 
ENDBRANCH  27  29
BRANCH  11   2
ATOM      2  O   UNL     1     -10.958 -13.450  21.469  0.00  0.00    -0.391 OA
ATOM     35  H   UNL     1     -11.617 -14.042  21.869  0.00  0.00    +0.210 HD
ENDBRANCH  11   2
BRANCH  12  18
ATOM     18  C   UNL     1     -13.873 -13.112  21.491  0.00  0.00    +0.078 C 
ATOM     22  C   UNL     1     -15.102 -13.083  20.580  0.00  0.00    +0.017 C 
BRANCH  18  23
ATOM      3  O   UNL     1     -14.872 -11.793  23.222  0.00  0.00    -0.275 OA
ATOM      6  N   UNL     1     -13.876 -13.764  23.913  0.00  0.00    -0.301 N 
ATOM     23  C   UNL     1     -14.259 -12.831  22.945  0.00  0.00    +0.219 C 
ATOM     26  C   UNL     1     -14.208 -13.515  25.312  0.00  0.00    +0.132 C 
BRANCH   6  25
ATOM     25  C   UNL     1     -13.183 -15.027  23.667  0.00  0.00    +0.134 C 
BRANCH  25  28
ATOM     28  C   UNL     1     -12.174 -15.248  24.746  0.00  0.00    -0.016 C 
ATOM     30  C   UNL     1     -10.852 -15.234  24.546  0.00  0.00    +0.005 C 
ENDBRANCH  25  28
ENDBRANCH   6  25
ENDBRANCH  18  23
ENDBRANCH  12  18
TORSDOF 6
ENDMDL
MODEL 6
REMARK VINA RESULT:      -6.3      1.900      2.322
REMARK  Name = 45361338
REMARK  11 active torsions:
REMARK  status: ('A' for Active; 'I' for Inactive)
REMARK    1  A    between atoms: O_2  and  C_11
REMARK    2  A    between atoms: N_6  and  C_25
REMARK    3  A    between atoms: N_6  and  C_26
REMARK    4  A    between atoms: N_8  and  C_34
REMARK    5  A    between atoms: C_9  and  C_17
REMARK    6  A    between atoms: C_12  and  C_18
REMARK    7  A    between atoms: C_14  and  C_21
REMARK    8  A    between atoms: C_18  and  C_22
REMARK    9  A    between atoms: C_18  and  C_23
REMARK   10  A    between atoms: C_25  and  C_28
REMARK   11  A    between atoms: C_27  and  C_29
REMARK                            x       y       z     vdW  Elec       q    Type
REMARK                         _______ _______ _______ _____ _____    ______ ____
ROOT
ATOM      1  S   UNL     1      19.770   4.907  20.255  0.00  0.00    -0.057 S 
ATOM      4  O   UNL     1      22.342   6.571  23.793  0.00  0.00    -0.268 OA
ATOM      5  N   UNL     1      19.946   6.821  21.985  0.00  0.00    -0.229 NA
ATOM      7  N   UNL     1      21.674   5.142  22.042  0.00  0.00    -0.259 N 
ATOM      9  C   UNL     1      16.259   7.017  19.878  0.00  0.00    -0.022 C 
ATOM     10  C   UNL     1      16.857   8.409  20.326  0.00  0.00    +0.033 C 
ATOM     11  C   UNL     1      15.731   9.427  20.663  0.00  0.00    +0.123 C 
ATOM     12  C   UNL     1      14.685   9.557  19.535  0.00  0.00    +0.029 C 
ATOM     13  C   UNL     1      15.241   7.231  18.734  0.00  0.00    +0.008 C 
ATOM     14  C   UNL     1      17.928   8.249  21.480  0.00  0.00    +0.042 C 
ATOM     15  C   UNL     1      14.126   8.203  19.098  0.00  0.00    +0.007 C 
ATOM     16  C   UNL     1      17.399   6.107  19.325  0.00  0.00    +0.051 C 
ATOM     17  C   UNL     1      15.554   6.283  21.048  0.00  0.00    +0.012 C 
ATOM     19  C   UNL     1      18.822   7.060  21.214  0.00  0.00    +0.057 A 
ATOM     20  C   UNL     1      18.563   6.107  20.251  0.00  0.00    +0.015 A 
ATOM     21  C   UNL     1      18.783   9.507  21.694  0.00  0.00    +0.014 C 
ATOM     24  C   UNL     1      20.530   5.721  21.561  0.00  0.00    +0.165 A 
ATOM     27  C   UNL     1      22.510   5.572  23.103  0.00  0.00    +0.266 C 
ATOM     36  H   UNL     1      21.930   4.282  21.564  0.00  0.00    +0.157 HD
ENDROOT
BRANCH  27  29
ATOM      8  N   UNL     1      24.921   4.847  22.850  0.00  0.00    -0.346 N 
ATOM     29  C   UNL     1      23.678   4.706  23.410  0.00  0.00    +0.105 A 
ATOM     31  C   UNL     1      23.728   3.643  24.285  0.00  0.00    +0.032 A 
ATOM     32  C   UNL     1      25.763   3.891  23.354  0.00  0.00    +0.086 A 
ATOM     33  C   UNL     1      25.047   3.127  24.250  0.00  0.00    +0.020 A 
ATOM     34  C   UNL     1      25.302   5.845  21.874  0.00  0.00    +0.149 C 
ENDBRANCH  27  29
BRANCH  11   2
ATOM      2  O   UNL     1      16.304  10.719  20.860  0.00  0.00    -0.391 OA
ATOM     35  H   UNL     1      16.262  11.199  20.016  0.00  0.00    +0.210 HD
ENDBRANCH  11   2
BRANCH  12  18
ATOM     18  C   UNL     1      13.530  10.484  19.932  0.00  0.00    +0.078 C 
ATOM     22  C   UNL     1      12.227   9.684  19.980  0.00  0.00    +0.017 C 
BRANCH  18  23
ATOM      3  O   UNL     1      13.518  11.411  17.724  0.00  0.00    -0.275 OA
ATOM      6  N   UNL     1      13.257  12.931  19.449  0.00  0.00    -0.301 N 
ATOM     23  C   UNL     1      13.428  11.641  18.936  0.00  0.00    +0.219 C 
ATOM     26  C   UNL     1      13.179  14.059  18.528  0.00  0.00    +0.132 C 
BRANCH   6  25
ATOM     25  C   UNL     1      13.108  13.284  20.860  0.00  0.00    +0.134 C 
BRANCH  25  28
ATOM     28  C   UNL     1      11.655  13.418  21.178  0.00  0.00    -0.016 C 
ATOM     30  C   UNL     1      11.001  12.618  22.027  0.00  0.00    +0.005 C 
ENDBRANCH  25  28
ENDBRANCH   6  25
ENDBRANCH  18  23
ENDBRANCH  12  18
TORSDOF 6
ENDMDL
MODEL 7
REMARK VINA RESULT:      -6.2      2.309      3.979
REMARK  Name = 45361338
REMARK  11 active torsions:
REMARK  status: ('A' for Active; 'I' for Inactive)
REMARK    1  A    between atoms: O_2  and  C_11
REMARK    2  A    between atoms: N_6  and  C_25
REMARK    3  A    between atoms: N_6  and  C_26
REMARK    4  A    between atoms: N_8  and  C_34
REMARK    5  A    between atoms: C_9  and  C_17
REMARK    6  A    between atoms: C_12  and  C_18
REMARK    7  A    between atoms: C_14  and  C_21
REMARK    8  A    between atoms: C_18  and  C_22
REMARK    9  A    between atoms: C_18  and  C_23
REMARK   10  A    between atoms: C_25  and  C_28
REMARK   11  A    between atoms: C_27  and  C_29
REMARK                            x       y       z     vdW  Elec       q    Type
REMARK                         _______ _______ _______ _____ _____    ______ ____
ROOT
ATOM      1  S   UNL     1      21.656   7.240  23.228  0.00  0.00    -0.057 S 
ATOM      4  O   UNL     1      21.042   3.262  20.839  0.00  0.00    -0.268 OA
ATOM      5  N   UNL     1      20.090   6.026  21.566  0.00  0.00    -0.229 NA
ATOM      7  N   UNL     1      22.045   4.819  22.297  0.00  0.00    -0.259 N 
ATOM      9  C   UNL     1      18.911  10.078  22.076  0.00  0.00    -0.022 C 
ATOM     10  C   UNL     1      17.736   9.062  21.794  0.00  0.00    +0.033 C 
ATOM     11  C   UNL     1      16.592   9.730  20.978  0.00  0.00    +0.123 C 
ATOM     12  C   UNL     1      16.105  11.054  21.606  0.00  0.00    +0.029 C 
ATOM     13  C   UNL     1      18.345  11.363  22.724  0.00  0.00    +0.008 C 
ATOM     14  C   UNL     1      18.260   7.712  21.153  0.00  0.00    +0.042 C 
ATOM     15  C   UNL     1      17.254  12.023  21.891  0.00  0.00    +0.007 C 
ATOM     16  C   UNL     1      19.919   9.450  23.088  0.00  0.00    +0.051 C 
ATOM     17  C   UNL     1      19.674  10.461  20.781  0.00  0.00    +0.012 C 
ATOM     19  C   UNL     1      19.537   7.267  21.826  0.00  0.00    +0.057 A 
ATOM     20  C   UNL     1      20.270   8.062  22.683  0.00  0.00    +0.015 A 
ATOM     21  C   UNL     1      17.225   6.578  21.194  0.00  0.00    +0.014 C 
ATOM     24  C   UNL     1      21.201   5.898  22.259  0.00  0.00    +0.165 A 
ATOM     27  C   UNL     1      21.939   3.584  21.610  0.00  0.00    +0.266 C 
ATOM     36  H   UNL     1      22.855   4.954  22.897  0.00  0.00    +0.157 HD
ENDROOT
BRANCH  27  29
ATOM      8  N   UNL     1      23.312   2.010  23.039  0.00  0.00    -0.346 N 
ATOM     29  C   UNL     1      23.040   2.611  21.837  0.00  0.00    +0.105 A 
ATOM     31  C   UNL     1      23.953   2.147  20.917  0.00  0.00    +0.032 A 
ATOM     32  C   UNL     1      24.385   1.170  22.899  0.00  0.00    +0.086 A 
ATOM     33  C   UNL     1      24.805   1.235  21.589  0.00  0.00    +0.020 A 
ATOM     34  C   UNL     1      22.589   2.220  24.274  0.00  0.00    +0.149 C 
ENDBRANCH  27  29
BRANCH  11   2
ATOM      2  O   UNL     1      15.471   8.850  20.924  0.00  0.00    -0.391 OA
ATOM     35  H   UNL     1      15.485   8.295  21.722  0.00  0.00    +0.210 HD
ENDBRANCH  11   2
BRANCH  12  18
ATOM     18  C   UNL     1      15.055  11.748  20.731  0.00  0.00    +0.078 C 
ATOM     22  C   UNL     1      15.671  12.990  20.083  0.00  0.00    +0.017 C 
BRANCH  18  23
ATOM      3  O   UNL     1      13.947  12.974  22.463  0.00  0.00    -0.275 OA
ATOM      6  N   UNL     1      12.636  11.444  21.325  0.00  0.00    -0.301 N 
ATOM     23  C   UNL     1      13.836  12.118  21.578  0.00  0.00    +0.219 C 
ATOM     26  C   UNL     1      11.461  11.756  22.131  0.00  0.00    +0.132 C 
BRANCH   6  25
ATOM     25  C   UNL     1      12.412  10.447  20.280  0.00  0.00    +0.134 C 
BRANCH  25  28
ATOM     28  C   UNL     1      11.592   9.332  20.838  0.00  0.00    -0.016 C 
ATOM     30  C   UNL     1      10.918   8.453  20.088  0.00  0.00    +0.005 C 
ENDBRANCH  25  28
ENDBRANCH   6  25
ENDBRANCH  18  23
ENDBRANCH  12  18
TORSDOF 6
ENDMDL
MODEL 8
REMARK VINA RESULT:      -5.9     31.023     33.224
REMARK  Name = 45361338
REMARK  11 active torsions:
REMARK  status: ('A' for Active; 'I' for Inactive)
REMARK    1  A    between atoms: O_2  and  C_11
REMARK    2  A    between atoms: N_6  and  C_25
REMARK    3  A    between atoms: N_6  and  C_26
REMARK    4  A    between atoms: N_8  and  C_34
REMARK    5  A    between atoms: C_9  and  C_17
REMARK    6  A    between atoms: C_12  and  C_18
REMARK    7  A    between atoms: C_14  and  C_21
REMARK    8  A    between atoms: C_18  and  C_22
REMARK    9  A    between atoms: C_18  and  C_23
REMARK   10  A    between atoms: C_25  and  C_28
REMARK   11  A    between atoms: C_27  and  C_29
REMARK                            x       y       z     vdW  Elec       q    Type
REMARK                         _______ _______ _______ _____ _____    ______ ____
ROOT
ATOM      1  S   UNL     1      -8.756 -10.452  13.785  0.00  0.00    -0.057 S 
ATOM      4  O   UNL     1      -7.456  -9.225  18.111  0.00  0.00    -0.268 OA
ATOM      5  N   UNL     1      -9.350  -8.927  15.787  0.00  0.00    -0.229 NA
ATOM      7  N   UNL     1      -7.413 -10.340  16.035  0.00  0.00    -0.259 N 
ATOM      9  C   UNL     1     -12.393  -8.790  12.822  0.00  0.00    -0.022 C 
ATOM     10  C   UNL     1     -12.182  -7.454  13.637  0.00  0.00    +0.033 C 
ATOM     11  C   UNL     1     -13.521  -6.683  13.819  0.00  0.00    +0.123 C 
ATOM     12  C   UNL     1     -14.270  -6.463  12.486  0.00  0.00    +0.029 C 
ATOM     13  C   UNL     1     -13.126  -8.482  11.496  0.00  0.00    +0.008 C 
ATOM     14  C   UNL     1     -11.410  -7.705  14.996  0.00  0.00    +0.042 C 
ATOM     15  C   UNL     1     -14.453  -7.761  11.699  0.00  0.00    +0.007 C 
ATOM     16  C   UNL     1     -11.008  -9.410  12.458  0.00  0.00    +0.051 C 
ATOM     17  C   UNL     1     -13.216  -9.835  13.621  0.00  0.00    +0.012 C 
ATOM     19  C   UNL     1     -10.280  -8.685  14.791  0.00  0.00    +0.057 A 
ATOM     20  C   UNL     1     -10.122  -9.446  13.651  0.00  0.00    +0.015 A 
ATOM     21  C   UNL     1     -10.874  -6.416  15.637  0.00  0.00    +0.014 C 
ATOM     24  C   UNL     1      -8.493  -9.830  15.363  0.00  0.00    +0.165 A 
ATOM     27  C   UNL     1      -6.950 -10.031  17.338  0.00  0.00    +0.266 C 
ATOM     36  H   UNL     1      -6.899 -11.043  15.509  0.00  0.00    +0.157 HD
ENDROOT
BRANCH  27  29
ATOM      8  N   UNL     1      -5.768 -11.737  18.786  0.00  0.00    -0.346 N 
ATOM     29  C   UNL     1      -5.753 -10.780  17.804  0.00  0.00    +0.105 A 
ATOM     31  C   UNL     1      -4.459 -10.659  17.351  0.00  0.00    +0.032 A 
ATOM     32  C   UNL     1      -4.501 -12.228  18.966  0.00  0.00    +0.086 A 
ATOM     33  C   UNL     1      -3.666 -11.576  18.086  0.00  0.00    +0.020 A 
ATOM     34  C   UNL     1      -6.931 -12.172  19.528  0.00  0.00    +0.149 C 
ENDBRANCH  27  29
BRANCH  11   2
ATOM      2  O   UNL     1     -13.255  -5.396  14.373  0.00  0.00    -0.391 OA
ATOM     35  H   UNL     1     -14.015  -4.822  14.179  0.00  0.00    +0.210 HD
ENDBRANCH  11   2
BRANCH  12  18
ATOM     18  C   UNL     1     -15.634  -5.798  12.702  0.00  0.00    +0.078 C 
ATOM     22  C   UNL     1     -16.652  -6.852  13.142  0.00  0.00    +0.017 C 
BRANCH  18  23
ATOM      3  O   UNL     1     -16.950  -5.633  10.709  0.00  0.00    -0.275 OA
ATOM      6  N   UNL     1     -15.465  -3.896  11.074  0.00  0.00    -0.301 N 
ATOM     23  C   UNL     1     -16.082  -5.105  11.414  0.00  0.00    +0.219 C 
ATOM     26  C   UNL     1     -15.853  -3.221   9.840  0.00  0.00    +0.132 C 
BRANCH   6  25
ATOM     25  C   UNL     1     -14.459  -3.190  11.865  0.00  0.00    +0.134 C 
BRANCH  25  28
ATOM     28  C   UNL     1     -13.129  -3.333  11.202  0.00  0.00    -0.016 C 
ATOM     30  C   UNL     1     -11.985  -3.547  11.862  0.00  0.00    +0.005 C 
ENDBRANCH  25  28
ENDBRANCH   6  25
ENDBRANCH  18  23
ENDBRANCH  12  18
TORSDOF 6
ENDMDL
MODEL 9
REMARK VINA RESULT:      -5.9     33.678     36.257
REMARK  Name = 45361338
REMARK  11 active torsions:
REMARK  status: ('A' for Active; 'I' for Inactive)
REMARK    1  A    between atoms: O_2  and  C_11
REMARK    2  A    between atoms: N_6  and  C_25
REMARK    3  A    between atoms: N_6  and  C_26
REMARK    4  A    between atoms: N_8  and  C_34
REMARK    5  A    between atoms: C_9  and  C_17
REMARK    6  A    between atoms: C_12  and  C_18
REMARK    7  A    between atoms: C_14  and  C_21
REMARK    8  A    between atoms: C_18  and  C_22
REMARK    9  A    between atoms: C_18  and  C_23
REMARK   10  A    between atoms: C_25  and  C_28
REMARK   11  A    between atoms: C_27  and  C_29
REMARK                            x       y       z     vdW  Elec       q    Type
REMARK                         _______ _______ _______ _____ _____    ______ ____
ROOT
ATOM      1  S   UNL     1      -8.888  -7.450   6.418  0.00  0.00    -0.057 S 
ATOM      4  O   UNL     1      -5.174 -10.297   6.501  0.00  0.00    -0.268 OA
ATOM      5  N   UNL     1      -7.405  -8.987   4.959  0.00  0.00    -0.229 NA
ATOM      7  N   UNL     1      -6.827  -8.815   7.293  0.00  0.00    -0.259 N 
ATOM      9  C   UNL     1     -10.156  -6.811   2.558  0.00  0.00    -0.022 C 
ATOM     10  C   UNL     1      -9.782  -8.249   2.023  0.00  0.00    +0.033 C 
ATOM     11  C   UNL     1      -9.784  -8.295   0.469  0.00  0.00    +0.123 C 
ATOM     12  C   UNL     1     -11.092  -7.747  -0.144  0.00  0.00    +0.029 C 
ATOM     13  C   UNL     1     -11.484  -6.346   1.917  0.00  0.00    +0.008 C 
ATOM     14  C   UNL     1      -8.441  -8.790   2.668  0.00  0.00    +0.042 C 
ATOM     15  C   UNL     1     -11.453  -6.362   0.394  0.00  0.00    +0.007 C 
ATOM     16  C   UNL     1     -10.375  -6.862   4.102  0.00  0.00    +0.051 C 
ATOM     17  C   UNL     1      -9.053  -5.768   2.242  0.00  0.00    +0.012 C 
ATOM     19  C   UNL     1      -8.391  -8.463   4.141  0.00  0.00    +0.057 A 
ATOM     20  C   UNL     1      -9.260  -7.591   4.763  0.00  0.00    +0.015 A 
ATOM     21  C   UNL     1      -8.233 -10.298   2.459  0.00  0.00    +0.014 C 
ATOM     24  C   UNL     1      -7.576  -8.532   6.181  0.00  0.00    +0.165 A 
ATOM     27  C   UNL     1      -5.693  -9.657   7.409  0.00  0.00    +0.266 C 
ATOM     36  H   UNL     1      -7.140  -8.333   8.132  0.00  0.00    +0.157 HD
ENDROOT
BRANCH  27  29
ATOM      8  N   UNL     1      -5.428 -10.645   9.723  0.00  0.00    -0.346 N 
ATOM     29  C   UNL     1      -5.073  -9.740   8.758  0.00  0.00    +0.105 A 
ATOM     31  C   UNL     1      -4.062  -8.955   9.266  0.00  0.00    +0.032 A 
ATOM     32  C   UNL     1      -4.659 -10.450  10.840  0.00  0.00    +0.086 A 
ATOM     33  C   UNL     1      -3.800  -9.404  10.585  0.00  0.00    +0.020 A 
ATOM     34  C   UNL     1      -6.455 -11.657   9.600  0.00  0.00    +0.149 C 
ENDBRANCH  27  29
BRANCH  11   2
ATOM      2  O   UNL     1      -9.648  -9.647   0.034  0.00  0.00    -0.391 OA
ATOM     35  H   UNL     1      -9.236  -9.640  -0.846  0.00  0.00    +0.210 HD
ENDBRANCH  11   2
BRANCH  12  18
ATOM     18  C   UNL     1     -11.030  -7.702  -1.674  0.00  0.00    +0.078 C 
ATOM     22  C   UNL     1     -11.986  -6.626  -2.193  0.00  0.00    +0.017 C 
BRANCH  18  23
ATOM      3  O   UNL     1     -12.372  -9.680  -1.812  0.00  0.00    -0.275 OA
ATOM      6  N   UNL     1     -10.553  -9.603  -3.241  0.00  0.00    -0.301 N 
ATOM     23  C   UNL     1     -11.386  -9.076  -2.248  0.00  0.00    +0.219 C 
ATOM     26  C   UNL     1     -10.851 -10.921  -3.793  0.00  0.00    +0.132 C 
BRANCH   6  25
ATOM     25  C   UNL     1      -9.392  -8.942  -3.834  0.00  0.00    +0.134 C 
BRANCH  25  28
ATOM     28  C   UNL     1      -8.150  -9.495  -3.218  0.00  0.00    -0.016 C 
ATOM     30  C   UNL     1      -7.327  -8.789  -2.435  0.00  0.00    +0.005 C 
ENDBRANCH  25  28
ENDBRANCH   6  25
ENDBRANCH  18  23
ENDBRANCH  12  18
TORSDOF 6
ENDMDL
MODEL 10
REMARK VINA RESULT:      -5.9     22.595     25.238
REMARK  Name = 45361338
REMARK  11 active torsions:
REMARK  status: ('A' for Active; 'I' for Inactive)
REMARK    1  A    between atoms: O_2  and  C_11
REMARK    2  A    between atoms: N_6  and  C_25
REMARK    3  A    between atoms: N_6  and  C_26
REMARK    4  A    between atoms: N_8  and  C_34
REMARK    5  A    between atoms: C_9  and  C_17
REMARK    6  A    between atoms: C_12  and  C_18
REMARK    7  A    between atoms: C_14  and  C_21
REMARK    8  A    between atoms: C_18  and  C_22
REMARK    9  A    between atoms: C_18  and  C_23
REMARK   10  A    between atoms: C_25  and  C_28
REMARK   11  A    between atoms: C_27  and  C_29
REMARK                            x       y       z     vdW  Elec       q    Type
REMARK                         _______ _______ _______ _____ _____    ______ ____
ROOT
ATOM      1  S   UNL     1       7.141  -5.080  33.957  0.00  0.00    -0.057 S 
ATOM      4  O   UNL     1       8.255  -5.579  38.475  0.00  0.00    -0.268 OA
ATOM      5  N   UNL     1       7.649  -6.823  35.799  0.00  0.00    -0.229 NA
ATOM      7  N   UNL     1       7.720  -4.502  36.448  0.00  0.00    -0.259 N 
ATOM      9  C   UNL     1       7.342  -8.689  31.992  0.00  0.00    -0.022 C 
ATOM     10  C   UNL     1       6.868  -9.567  33.216  0.00  0.00    +0.033 C 
ATOM     11  C   UNL     1       7.157 -11.076  32.977  0.00  0.00    +0.123 C 
ATOM     12  C   UNL     1       6.608 -11.583  31.625  0.00  0.00    +0.029 C 
ATOM     13  C   UNL     1       6.734  -9.246  30.684  0.00  0.00    +0.008 C 
ATOM     14  C   UNL     1       7.440  -9.026  34.590  0.00  0.00    +0.042 C 
ATOM     15  C   UNL     1       7.061 -10.715  30.450  0.00  0.00    +0.007 C 
ATOM     16  C   UNL     1       6.827  -7.226  32.162  0.00  0.00    +0.051 C 
ATOM     17  C   UNL     1       8.888  -8.664  31.858  0.00  0.00    +0.012 C 
ATOM     19  C   UNL     1       7.375  -7.518  34.635  0.00  0.00    +0.057 A 
ATOM     20  C   UNL     1       7.108  -6.729  33.535  0.00  0.00    +0.015 A 
ATOM     21  C   UNL     1       6.729  -9.617  35.817  0.00  0.00    +0.014 C 
ATOM     24  C   UNL     1       7.542  -5.533  35.563  0.00  0.00    +0.165 A 
ATOM     27  C   UNL     1       8.058  -4.559  37.823  0.00  0.00    +0.266 C 
ATOM     36  H   UNL     1       7.599  -3.581  36.033  0.00  0.00    +0.157 HD
ENDROOT
BRANCH  27  29
ATOM      8  N   UNL     1       9.358  -2.508  38.533  0.00  0.00    -0.346 N 
ATOM     29  C   UNL     1       8.209  -3.253  38.517  0.00  0.00    +0.105 A 
ATOM     31  C   UNL     1       7.255  -2.574  39.242  0.00  0.00    +0.032 A 
ATOM     32  C   UNL     1       9.153  -1.363  39.257  0.00  0.00    +0.086 A 
ATOM     33  C   UNL     1       7.853  -1.378  39.711  0.00  0.00    +0.020 A 
ATOM     34  C   UNL     1      10.606  -2.861  37.891  0.00  0.00    +0.149 C 
ENDBRANCH  27  29
BRANCH  11   2
ATOM      2  O   UNL     1       6.532 -11.847  34.002  0.00  0.00    -0.391 OA
ATOM     35  H   UNL     1       5.575 -11.853  33.833  0.00  0.00    +0.210 HD
ENDBRANCH  11   2
BRANCH  12  18
ATOM     18  C   UNL     1       6.997 -13.042  31.363  0.00  0.00    +0.078 C 
ATOM     22  C   UNL     1       8.514 -13.145  31.198  0.00  0.00    +0.017 C 
BRANCH  18  23
ATOM      3  O   UNL     1       6.731 -13.299  28.997  0.00  0.00    -0.275 OA
ATOM      6  N   UNL     1       5.093 -14.286  30.301  0.00  0.00    -0.301 N 
ATOM     23  C   UNL     1       6.272 -13.556  30.116  0.00  0.00    +0.219 C 
ATOM     26  C   UNL     1       4.366 -14.770  29.133  0.00  0.00    +0.132 C 
BRANCH   6  25
ATOM     25  C   UNL     1       4.504 -14.660  31.585  0.00  0.00    +0.134 C 
BRANCH  25  28
ATOM     28  C   UNL     1       3.405 -13.704  31.914  0.00  0.00    -0.016 C 
ATOM     30  C   UNL     1       3.085 -13.336  33.159  0.00  0.00    +0.005 C 
ENDBRANCH  25  28
ENDBRANCH   6  25
ENDBRANCH  18  23
ENDBRANCH  12  18
TORSDOF 6
ENDMDL
