MODEL 1
REMARK VINA RESULT:      -5.9      0.000      0.000
REMARK  Name = 38027050
REMARK  15 active torsions:
REMARK  status: ('A' for Active; 'I' for Inactive)
REMARK    1  A    between atoms: O_4  and  C_29
REMARK    2  A    between atoms: O_4  and  C_30
REMARK    3  A    between atoms: N_5  and  C_15
REMARK    4  A    between atoms: N_6  and  C_22
REMARK    5  A    between atoms: N_7  and  C_23
REMARK    6  A    between atoms: C_8  and  C_12
REMARK    7  A    between atoms: C_9  and  C_15
REMARK    8  A    between atoms: C_11  and  C_16
REMARK    9  A    between atoms: C_12  and  C_17
REMARK   10  A    between atoms: C_12  and  C_18
REMARK   11  A    between atoms: C_13  and  C_19
REMARK   12  A    between atoms: C_16  and  C_20
REMARK   13  A    between atoms: C_21  and  C_24
REMARK   14  A    between atoms: C_22  and  C_23
REMARK   15  A    between atoms: C_24  and  C_29
REMARK                            x       y       z     vdW  Elec       q    Type
REMARK                         _______ _______ _______ _____ _____    ______ ____
ROOT
ATOM      8  C   UNL     1      16.275   8.381  21.215  0.00  0.00    +0.000 C 
ATOM      9  C   UNL     1      15.663   7.470  20.123  0.00  0.00    +0.032 C 
ATOM     10  C   UNL     1      17.760   8.645  20.922  0.00  0.00    +0.012 C 
ATOM     11  C   UNL     1      18.581   7.344  20.857  0.00  0.00    +0.023 C 
ATOM     13  C   UNL     1      17.900   6.291  20.006  0.00  0.00    -0.073 C 
ATOM     14  C   UNL     1      16.599   6.371  19.676  0.00  0.00    -0.022 C 
ATOM     19  C   UNL     1      18.762   5.167  19.503  0.00  0.00    +0.039 C 
ENDROOT
BRANCH   8  12
ATOM     12  C   UNL     1      15.525   9.712  21.331  0.00  0.00    -0.013 C 
ATOM     17  C   UNL     1      16.270  10.664  22.262  0.00  0.00    +0.007 C 
ATOM     18  C   UNL     1      15.338  10.338  19.953  0.00  0.00    +0.007 C 
ENDBRANCH   8  12
BRANCH   9  15
ATOM     15  C   UNL     1      14.340   6.854  20.594  0.00  0.00    +0.112 C 
BRANCH  15   5
ATOM      2  O   UNL     1      12.190   8.591  21.422  0.00  0.00    -0.276 OA
ATOM      5  N   UNL     1      13.251   7.318  19.792  0.00  0.00    -0.315 N 
ATOM     21  C   UNL     1      12.248   8.161  20.273  0.00  0.00    +0.215 C 
ATOM     31  H   UNL     1      13.237   7.058  18.810  0.00  0.00    +0.149 HD
BRANCH  21  24
ATOM     24  C   UNL     1      11.221   8.495  19.203  0.00  0.00    +0.124 C 
BRANCH  24  29
ATOM     29  C   UNL     1      11.777   8.389  17.792  0.00  0.00    +0.168 C 
BRANCH  29   4
ATOM      4  O   UNL     1      10.714   8.138  16.883  0.00  0.00    -0.382 OA
ATOM     30  C   UNL     1      10.772   9.009  15.761  0.00  0.00    +0.194 C 
ENDBRANCH  29   4
ENDBRANCH  24  29
ENDBRANCH  21  24
ENDBRANCH  15   5
ENDBRANCH   9  15
BRANCH  11  16
ATOM     16  C   UNL     1      18.878   6.805  22.261  0.00  0.00    +0.103 C 
BRANCH  16  20
ATOM      1  O   UNL     1      20.947   7.643  23.193  0.00  0.00    -0.276 OA
ATOM      6  N   UNL     1      20.952   5.644  22.008  0.00  0.00    -0.314 N 
ATOM     20  C   UNL     1      20.361   6.774  22.555  0.00  0.00    +0.214 C 
ATOM     32  H   UNL     1      20.377   4.978  21.502  0.00  0.00    +0.149 HD
BRANCH   6  22
ATOM     22  C   UNL     1      22.363   5.355  22.131  0.00  0.00    +0.119 C 
BRANCH  22  23
ATOM     23  C   UNL     1      23.109   5.691  20.848  0.00  0.00    +0.103 C 
BRANCH  23   7
ATOM      3  O   UNL     1      25.679   2.413  20.342  0.00  0.00    -0.377 OA
ATOM      7  N   UNL     1      23.737   4.492  20.296  0.00  0.00    -0.297 NA
ATOM     25  C   UNL     1      23.639   3.370  21.240  0.00  0.00    +0.112 C 
ATOM     26  C   UNL     1      25.145   4.748  19.962  0.00  0.00    +0.112 C 
ATOM     27  C   UNL     1      24.312   2.135  20.649  0.00  0.00    +0.175 C 
ATOM     28  C   UNL     1      25.782   3.480  19.400  0.00  0.00    +0.175 C 
ENDBRANCH  23   7
ENDBRANCH  22  23
ENDBRANCH   6  22
ENDBRANCH  16  20
ENDBRANCH  11  16
TORSDOF 11
ENDMDL
MODEL 2
REMARK VINA RESULT:      -5.8     28.099     32.348
REMARK  Name = 38027050
REMARK  15 active torsions:
REMARK  status: ('A' for Active; 'I' for Inactive)
REMARK    1  A    between atoms: O_4  and  C_29
REMARK    2  A    between atoms: O_4  and  C_30
REMARK    3  A    between atoms: N_5  and  C_15
REMARK    4  A    between atoms: N_6  and  C_22
REMARK    5  A    between atoms: N_7  and  C_23
REMARK    6  A    between atoms: C_8  and  C_12
REMARK    7  A    between atoms: C_9  and  C_15
REMARK    8  A    between atoms: C_11  and  C_16
REMARK    9  A    between atoms: C_12  and  C_17
REMARK   10  A    between atoms: C_12  and  C_18
REMARK   11  A    between atoms: C_13  and  C_19
REMARK   12  A    between atoms: C_16  and  C_20
REMARK   13  A    between atoms: C_21  and  C_24
REMARK   14  A    between atoms: C_22  and  C_23
REMARK   15  A    between atoms: C_24  and  C_29
REMARK                            x       y       z     vdW  Elec       q    Type
REMARK                         _______ _______ _______ _____ _____    ______ ____
ROOT
ATOM      8  C   UNL     1      -6.035 -10.551  17.702  0.00  0.00    +0.000 C 
ATOM      9  C   UNL     1      -5.437 -10.882  16.312  0.00  0.00    +0.032 C 
ATOM     10  C   UNL     1      -7.543 -10.843  17.720  0.00  0.00    +0.012 C 
ATOM     11  C   UNL     1      -8.306 -10.033  16.656  0.00  0.00    +0.023 C 
ATOM     13  C   UNL     1      -7.621 -10.092  15.306  0.00  0.00    -0.073 C 
ATOM     14  C   UNL     1      -6.343 -10.487  15.169  0.00  0.00    -0.022 C 
ATOM     19  C   UNL     1      -8.455  -9.731  14.108  0.00  0.00    +0.039 C 
ENDROOT
BRANCH   8  12
ATOM     12  C   UNL     1      -5.341 -11.336  18.821  0.00  0.00    -0.013 C 
ATOM     17  C   UNL     1      -6.107 -11.183  20.132  0.00  0.00    +0.007 C 
ATOM     18  C   UNL     1      -5.213 -12.806  18.438  0.00  0.00    +0.007 C 
ENDBRANCH   8  12
BRANCH   9  15
ATOM     15  C   UNL     1      -4.066 -10.221  16.129  0.00  0.00    +0.112 C 
BRANCH  15   5
ATOM      2  O   UNL     1      -1.486 -11.181  15.262  0.00  0.00    -0.276 OA
ATOM      5  N   UNL     1      -3.610 -10.367  14.782  0.00  0.00    -0.315 N 
ATOM     21  C   UNL     1      -2.340 -10.841  14.448  0.00  0.00    +0.215 C 
ATOM     31  H   UNL     1      -4.263 -10.160  14.032  0.00  0.00    +0.149 HD
BRANCH  21  24
ATOM     24  C   UNL     1      -2.127 -10.894  12.943  0.00  0.00    +0.124 C 
BRANCH  24  29
ATOM     29  C   UNL     1      -3.421 -11.081  12.167  0.00  0.00    +0.168 C 
BRANCH  29   4
ATOM      4  O   UNL     1      -3.953  -9.808  11.824  0.00  0.00    -0.382 OA
ATOM     30  C   UNL     1      -5.356  -9.873  11.603  0.00  0.00    +0.194 C 
ENDBRANCH  29   4
ENDBRANCH  24  29
ENDBRANCH  21  24
ENDBRANCH  15   5
ENDBRANCH   9  15
BRANCH  11  16
ATOM     16  C   UNL     1      -8.508  -8.581  17.105  0.00  0.00    +0.103 C 
BRANCH  16  20
ATOM      1  O   UNL     1     -10.892  -8.838  17.427  0.00  0.00    -0.276 OA
ATOM      6  N   UNL     1     -10.074  -6.910  16.420  0.00  0.00    -0.314 N 
ATOM     20  C   UNL     1      -9.957  -8.156  17.019  0.00  0.00    +0.214 C 
ATOM     32  H   UNL     1      -9.236  -6.421  16.122  0.00  0.00    +0.149 HD
BRANCH   6  22
ATOM     22  C   UNL     1     -11.345  -6.256  16.205  0.00  0.00    +0.119 C 
BRANCH  22  23
ATOM     23  C   UNL     1     -11.605  -6.031  14.722  0.00  0.00    +0.103 C 
BRANCH  23   7
ATOM      3  O   UNL     1     -15.301  -5.071  12.982  0.00  0.00    -0.377 OA
ATOM      7  N   UNL     1     -12.940  -5.473  14.520  0.00  0.00    -0.297 NA
ATOM     25  C   UNL     1     -13.931  -6.542  14.341  0.00  0.00    +0.112 C 
ATOM     26  C   UNL     1     -12.957  -4.570  13.359  0.00  0.00    +0.112 C 
ATOM     27  C   UNL     1     -15.314  -5.935  14.119  0.00  0.00    +0.175 C 
ATOM     28  C   UNL     1     -14.363  -4.010  13.162  0.00  0.00    +0.175 C 
ENDBRANCH  23   7
ENDBRANCH  22  23
ENDBRANCH   6  22
ENDBRANCH  16  20
ENDBRANCH  11  16
TORSDOF 11
ENDMDL
MODEL 3
REMARK VINA RESULT:      -5.8      1.266      2.163
REMARK  Name = 38027050
REMARK  15 active torsions:
REMARK  status: ('A' for Active; 'I' for Inactive)
REMARK    1  A    between atoms: O_4  and  C_29
REMARK    2  A    between atoms: O_4  and  C_30
REMARK    3  A    between atoms: N_5  and  C_15
REMARK    4  A    between atoms: N_6  and  C_22
REMARK    5  A    between atoms: N_7  and  C_23
REMARK    6  A    between atoms: C_8  and  C_12
REMARK    7  A    between atoms: C_9  and  C_15
REMARK    8  A    between atoms: C_11  and  C_16
REMARK    9  A    between atoms: C_12  and  C_17
REMARK   10  A    between atoms: C_12  and  C_18
REMARK   11  A    between atoms: C_13  and  C_19
REMARK   12  A    between atoms: C_16  and  C_20
REMARK   13  A    between atoms: C_21  and  C_24
REMARK   14  A    between atoms: C_22  and  C_23
REMARK   15  A    between atoms: C_24  and  C_29
REMARK                            x       y       z     vdW  Elec       q    Type
REMARK                         _______ _______ _______ _____ _____    ______ ____
ROOT
ATOM      8  C   UNL     1      15.890   8.302  21.224  0.00  0.00    +0.000 C 
ATOM      9  C   UNL     1      15.306   7.324  20.174  0.00  0.00    +0.032 C 
ATOM     10  C   UNL     1      17.325   8.699  20.847  0.00  0.00    +0.012 C 
ATOM     11  C   UNL     1      18.259   7.478  20.747  0.00  0.00    +0.023 C 
ATOM     13  C   UNL     1      17.634   6.356  19.943  0.00  0.00    -0.073 C 
ATOM     14  C   UNL     1      16.315   6.311  19.685  0.00  0.00    -0.022 C 
ATOM     19  C   UNL     1      18.568   5.310  19.402  0.00  0.00    +0.039 C 
ENDROOT
BRANCH   8  12
ATOM     12  C   UNL     1      15.026   9.559  21.371  0.00  0.00    -0.013 C 
ATOM     17  C   UNL     1      15.619  10.492  22.422  0.00  0.00    +0.007 C 
ATOM     18  C   UNL     1      14.891  10.272  20.030  0.00  0.00    +0.007 C 
ENDBRANCH   8  12
BRANCH   9  15
ATOM     15  C   UNL     1      14.074   6.594  20.723  0.00  0.00    +0.112 C 
BRANCH  15   5
ATOM      2  O   UNL     1      12.065   7.106  18.716  0.00  0.00    -0.276 OA
ATOM      5  N   UNL     1      12.962   7.486  20.826  0.00  0.00    -0.315 N 
ATOM     21  C   UNL     1      12.031   7.675  19.803  0.00  0.00    +0.215 C 
ATOM     31  H   UNL     1      12.817   7.968  21.709  0.00  0.00    +0.149 HD
BRANCH  21  24
ATOM     24  C   UNL     1      10.954   8.678  20.188  0.00  0.00    +0.124 C 
BRANCH  24  29
ATOM     29  C   UNL     1      10.677   8.706  21.683  0.00  0.00    +0.168 C 
BRANCH  29   4
ATOM      4  O   UNL     1      11.618   9.560  22.321  0.00  0.00    -0.382 OA
ATOM     30  C   UNL     1      11.431  10.917  21.940  0.00  0.00    +0.194 C 
ENDBRANCH  29   4
ENDBRANCH  24  29
ENDBRANCH  21  24
ENDBRANCH  15   5
ENDBRANCH   9  15
BRANCH  11  16
ATOM     16  C   UNL     1      18.681   6.988  22.136  0.00  0.00    +0.103 C 
BRANCH  16  20
ATOM      1  O   UNL     1      20.739   8.189  22.555  0.00  0.00    -0.276 OA
ATOM      6  N   UNL     1      20.793   5.880  22.299  0.00  0.00    -0.314 N 
ATOM     20  C   UNL     1      20.171   7.119  22.357  0.00  0.00    +0.214 C 
ATOM     32  H   UNL     1      20.232   5.049  22.136  0.00  0.00    +0.149 HD
BRANCH   6  22
ATOM     22  C   UNL     1      22.217   5.704  22.473  0.00  0.00    +0.119 C 
BRANCH  22  23
ATOM     23  C   UNL     1      22.562   4.250  22.759  0.00  0.00    +0.103 C 
BRANCH  23   7
ATOM      3  O   UNL     1      24.794   2.818  19.507  0.00  0.00    -0.377 OA
ATOM      7  N   UNL     1      23.684   3.821  21.929  0.00  0.00    -0.297 NA
ATOM     25  C   UNL     1      23.799   4.662  20.730  0.00  0.00    +0.112 C 
ATOM     26  C   UNL     1      23.538   2.410  21.542  0.00  0.00    +0.112 C 
ATOM     27  C   UNL     1      24.969   4.188  19.873  0.00  0.00    +0.175 C 
ATOM     28  C   UNL     1      24.715   1.989  20.666  0.00  0.00    +0.175 C 
ENDBRANCH  23   7
ENDBRANCH  22  23
ENDBRANCH   6  22
ENDBRANCH  16  20
ENDBRANCH  11  16
TORSDOF 11
ENDMDL
MODEL 4
REMARK VINA RESULT:      -5.8     14.728     19.187
REMARK  Name = 38027050
REMARK  15 active torsions:
REMARK  status: ('A' for Active; 'I' for Inactive)
REMARK    1  A    between atoms: O_4  and  C_29
REMARK    2  A    between atoms: O_4  and  C_30
REMARK    3  A    between atoms: N_5  and  C_15
REMARK    4  A    between atoms: N_6  and  C_22
REMARK    5  A    between atoms: N_7  and  C_23
REMARK    6  A    between atoms: C_8  and  C_12
REMARK    7  A    between atoms: C_9  and  C_15
REMARK    8  A    between atoms: C_11  and  C_16
REMARK    9  A    between atoms: C_12  and  C_17
REMARK   10  A    between atoms: C_12  and  C_18
REMARK   11  A    between atoms: C_13  and  C_19
REMARK   12  A    between atoms: C_16  and  C_20
REMARK   13  A    between atoms: C_21  and  C_24
REMARK   14  A    between atoms: C_22  and  C_23
REMARK   15  A    between atoms: C_24  and  C_29
REMARK                            x       y       z     vdW  Elec       q    Type
REMARK                         _______ _______ _______ _____ _____    ______ ____
ROOT
ATOM      8  C   UNL     1      12.777   7.516   4.913  0.00  0.00    +0.000 C 
ATOM      9  C   UNL     1      11.799   8.662   5.275  0.00  0.00    +0.032 C 
ATOM     10  C   UNL     1      12.693   7.194   3.413  0.00  0.00    +0.012 C 
ATOM     11  C   UNL     1      11.274   6.777   2.985  0.00  0.00    +0.023 C 
ATOM     13  C   UNL     1      10.222   7.719   3.534  0.00  0.00    -0.073 C 
ATOM     14  C   UNL     1      10.478   8.564   4.549  0.00  0.00    -0.022 C 
ATOM     19  C   UNL     1       8.878   7.699   2.859  0.00  0.00    +0.039 C 
ENDROOT
BRANCH   8  12
ATOM     12  C   UNL     1      14.221   7.860   5.291  0.00  0.00    -0.013 C 
ATOM     17  C   UNL     1      14.616   7.153   6.583  0.00  0.00    +0.007 C 
ATOM     18  C   UNL     1      15.171   7.486   4.157  0.00  0.00    +0.007 C 
ENDBRANCH   8  12
BRANCH   9  15
ATOM     15  C   UNL     1      11.548   8.719   6.786  0.00  0.00    +0.112 C 
BRANCH  15   5
ATOM      2  O   UNL     1       9.000   8.633   8.138  0.00  0.00    -0.276 OA
ATOM      5  N   UNL     1      10.847   7.554   7.228  0.00  0.00    -0.315 N 
ATOM     21  C   UNL     1       9.612   7.601   7.877  0.00  0.00    +0.215 C 
ATOM     31  H   UNL     1      11.248   6.645   7.013  0.00  0.00    +0.149 HD
BRANCH  21  24
ATOM     24  C   UNL     1       9.099   6.214   8.230  0.00  0.00    +0.124 C 
BRANCH  24  29
ATOM     29  C   UNL     1      10.149   5.129   8.050  0.00  0.00    +0.168 C 
BRANCH  29   4
ATOM      4  O   UNL     1      10.171   4.298   9.203  0.00  0.00    -0.382 OA
ATOM     30  C   UNL     1       9.086   4.588  10.074  0.00  0.00    +0.194 C 
ENDBRANCH  29   4
ENDBRANCH  24  29
ENDBRANCH  21  24
ENDBRANCH  15   5
ENDBRANCH   9  15
BRANCH  11  16
ATOM     16  C   UNL     1      10.977   5.328   3.387  0.00  0.00    +0.103 C 
BRANCH  16  20
ATOM      1  O   UNL     1      10.399   3.927   1.502  0.00  0.00    -0.276 OA
ATOM      6  N   UNL     1      12.607   4.027   2.219  0.00  0.00    -0.314 N 
ATOM     20  C   UNL     1      11.260   4.357   2.263  0.00  0.00    +0.214 C 
ATOM     32  H   UNL     1      13.243   4.444   2.892  0.00  0.00    +0.149 HD
BRANCH   6  22
ATOM     22  C   UNL     1      13.164   3.115   1.246  0.00  0.00    +0.119 C 
BRANCH  22  23
ATOM     23  C   UNL     1      13.965   3.859   0.188  0.00  0.00    +0.103 C 
BRANCH  23   7
ATOM      3  O   UNL     1      10.886   3.851  -2.663  0.00  0.00    -0.377 OA
ATOM      7  N   UNL     1      13.258   3.842  -1.090  0.00  0.00    -0.297 NA
ATOM     25  C   UNL     1      12.453   5.059  -1.259  0.00  0.00    +0.112 C 
ATOM     26  C   UNL     1      12.401   2.652  -1.197  0.00  0.00    +0.112 C 
ATOM     27  C   UNL     1      11.715   5.012  -2.594  0.00  0.00    +0.175 C 
ATOM     28  C   UNL     1      11.666   2.662  -2.534  0.00  0.00    +0.175 C 
ENDBRANCH  23   7
ENDBRANCH  22  23
ENDBRANCH   6  22
ENDBRANCH  16  20
ENDBRANCH  11  16
TORSDOF 11
ENDMDL
MODEL 5
REMARK VINA RESULT:      -5.6     27.696     30.362
REMARK  Name = 38027050
REMARK  15 active torsions:
REMARK  status: ('A' for Active; 'I' for Inactive)
REMARK    1  A    between atoms: O_4  and  C_29
REMARK    2  A    between atoms: O_4  and  C_30
REMARK    3  A    between atoms: N_5  and  C_15
REMARK    4  A    between atoms: N_6  and  C_22
REMARK    5  A    between atoms: N_7  and  C_23
REMARK    6  A    between atoms: C_8  and  C_12
REMARK    7  A    between atoms: C_9  and  C_15
REMARK    8  A    between atoms: C_11  and  C_16
REMARK    9  A    between atoms: C_12  and  C_17
REMARK   10  A    between atoms: C_12  and  C_18
REMARK   11  A    between atoms: C_13  and  C_19
REMARK   12  A    between atoms: C_16  and  C_20
REMARK   13  A    between atoms: C_21  and  C_24
REMARK   14  A    between atoms: C_22  and  C_23
REMARK   15  A    between atoms: C_24  and  C_29
REMARK                            x       y       z     vdW  Elec       q    Type
REMARK                         _______ _______ _______ _____ _____    ______ ____
ROOT
ATOM      8  C   UNL     1      -6.229 -10.302  15.951  0.00  0.00    +0.000 C 
ATOM      9  C   UNL     1      -6.928 -10.558  17.309  0.00  0.00    +0.032 C 
ATOM     10  C   UNL     1      -5.252 -11.443  15.627  0.00  0.00    +0.012 C 
ATOM     11  C   UNL     1      -4.169 -11.606  16.709  0.00  0.00    +0.023 C 
ATOM     13  C   UNL     1      -4.761 -11.598  18.104  0.00  0.00    -0.073 C 
ATOM     14  C   UNL     1      -6.001 -11.139  18.351  0.00  0.00    -0.022 C 
ATOM     19  C   UNL     1      -3.912 -12.173  19.203  0.00  0.00    +0.039 C 
ENDROOT
BRANCH   8  12
ATOM     12  C   UNL     1      -7.242 -10.146  14.811  0.00  0.00    -0.013 C 
ATOM     17  C   UNL     1      -6.521 -10.016  13.473  0.00  0.00    +0.007 C 
ATOM     18  C   UNL     1      -8.207 -11.327  14.793  0.00  0.00    +0.007 C 
ENDBRANCH   8  12
BRANCH   9  15
ATOM     15  C   UNL     1      -7.568  -9.275  17.853  0.00  0.00    +0.112 C 
BRANCH  15   5
ATOM      2  O   UNL     1      -9.568  -7.832  16.354  0.00  0.00    -0.276 OA
ATOM      5  N   UNL     1      -8.987  -9.419  17.951  0.00  0.00    -0.315 N 
ATOM     21  C   UNL     1      -9.889  -8.678  17.185  0.00  0.00    +0.215 C 
ATOM     31  H   UNL     1      -9.352 -10.131  18.576  0.00  0.00    +0.149 HD
BRANCH  21  24
ATOM     24  C   UNL     1     -11.333  -9.039  17.495  0.00  0.00    +0.124 C 
BRANCH  24  29
ATOM     29  C   UNL     1     -11.558 -10.538  17.615  0.00  0.00    +0.168 C 
BRANCH  29   4
ATOM      4  O   UNL     1     -11.431 -10.927  18.976  0.00  0.00    -0.382 OA
ATOM     30  C   UNL     1     -12.156 -10.056  19.835  0.00  0.00    +0.194 C 
ENDBRANCH  29   4
ENDBRANCH  24  29
ENDBRANCH  21  24
ENDBRANCH  15   5
ENDBRANCH   9  15
BRANCH  11  16
ATOM     16  C   UNL     1      -3.081 -10.537  16.569  0.00  0.00    +0.103 C 
BRANCH  16  20
ATOM      1  O   UNL     1      -1.112 -10.185  15.208  0.00  0.00    -0.276 OA
ATOM      6  N   UNL     1      -2.294 -12.177  15.018  0.00  0.00    -0.314 N 
ATOM     20  C   UNL     1      -2.043 -10.914  15.535  0.00  0.00    +0.214 C 
ATOM     32  H   UNL     1      -3.090 -12.706  15.361  0.00  0.00    +0.149 HD
BRANCH   6  22
ATOM     22  C   UNL     1      -1.463 -12.794  14.008  0.00  0.00    +0.119 C 
BRANCH  22  23
ATOM     23  C   UNL     1      -2.296 -13.284  12.833  0.00  0.00    +0.103 C 
BRANCH  23   7
ATOM      3  O   UNL     1      -3.478 -10.402  10.021  0.00  0.00    -0.377 OA
ATOM      7  N   UNL     1      -2.992 -12.164  12.202  0.00  0.00    -0.297 NA
ATOM     25  C   UNL     1      -3.715 -12.608  11.002  0.00  0.00    +0.112 C 
ATOM     26  C   UNL     1      -2.047 -11.093  11.853  0.00  0.00    +0.112 C 
ATOM     27  C   UNL     1      -4.422 -11.421  10.354  0.00  0.00    +0.175 C 
ATOM     28  C   UNL     1      -2.794  -9.942  11.186  0.00  0.00    +0.175 C 
ENDBRANCH  23   7
ENDBRANCH  22  23
ENDBRANCH   6  22
ENDBRANCH  16  20
ENDBRANCH  11  16
TORSDOF 11
ENDMDL
MODEL 6
REMARK VINA RESULT:      -5.6     15.390     18.374
REMARK  Name = 38027050
REMARK  15 active torsions:
REMARK  status: ('A' for Active; 'I' for Inactive)
REMARK    1  A    between atoms: O_4  and  C_29
REMARK    2  A    between atoms: O_4  and  C_30
REMARK    3  A    between atoms: N_5  and  C_15
REMARK    4  A    between atoms: N_6  and  C_22
REMARK    5  A    between atoms: N_7  and  C_23
REMARK    6  A    between atoms: C_8  and  C_12
REMARK    7  A    between atoms: C_9  and  C_15
REMARK    8  A    between atoms: C_11  and  C_16
REMARK    9  A    between atoms: C_12  and  C_17
REMARK   10  A    between atoms: C_12  and  C_18
REMARK   11  A    between atoms: C_13  and  C_19
REMARK   12  A    between atoms: C_16  and  C_20
REMARK   13  A    between atoms: C_21  and  C_24
REMARK   14  A    between atoms: C_22  and  C_23
REMARK   15  A    between atoms: C_24  and  C_29
REMARK                            x       y       z     vdW  Elec       q    Type
REMARK                         _______ _______ _______ _____ _____    ______ ____
ROOT
ATOM      8  C   UNL     1       9.197   8.254   5.954  0.00  0.00    +0.000 C 
ATOM      9  C   UNL     1       8.855   8.352   7.462  0.00  0.00    +0.032 C 
ATOM     10  C   UNL     1       8.748   6.897   5.390  0.00  0.00    +0.012 C 
ATOM     11  C   UNL     1       9.412   5.715   6.118  0.00  0.00    +0.023 C 
ATOM     13  C   UNL     1       9.351   5.875   7.623  0.00  0.00    -0.073 C 
ATOM     14  C   UNL     1       9.087   7.057   8.206  0.00  0.00    -0.022 C 
ATOM     19  C   UNL     1       9.554   4.632   8.444  0.00  0.00    +0.039 C 
ENDROOT
BRANCH   8  12
ATOM     12  C   UNL     1       8.555   9.389   5.150  0.00  0.00    -0.013 C 
ATOM     17  C   UNL     1       9.626  10.209   4.438  0.00  0.00    +0.007 C 
ATOM     18  C   UNL     1       7.548   8.830   4.151  0.00  0.00    +0.007 C 
ENDBRANCH   8  12
BRANCH   9  15
ATOM     15  C   UNL     1       9.646   9.478   8.137  0.00  0.00    +0.112 C 
BRANCH  15   5
ATOM      2  O   UNL     1      11.371  11.781   7.917  0.00  0.00    -0.276 OA
ATOM      5  N   UNL     1      10.996   9.501   7.667  0.00  0.00    -0.315 N 
ATOM     21  C   UNL     1      11.765  10.664   7.593  0.00  0.00    +0.215 C 
ATOM     31  H   UNL     1      11.431   8.616   7.421  0.00  0.00    +0.149 HD
BRANCH  21  24
ATOM     24  C   UNL     1      13.162  10.393   7.059  0.00  0.00    +0.124 C 
BRANCH  24  29
ATOM     29  C   UNL     1      13.408   8.922   6.759  0.00  0.00    +0.168 C 
BRANCH  29   4
ATOM      4  O   UNL     1      12.869   8.605   5.483  0.00  0.00    -0.382 OA
ATOM     30  C   UNL     1      13.372   9.472   4.475  0.00  0.00    +0.194 C 
ENDBRANCH  29   4
ENDBRANCH  24  29
ENDBRANCH  21  24
ENDBRANCH  15   5
ENDBRANCH   9  15
BRANCH  11  16
ATOM     16  C   UNL     1      10.857   5.515   5.646  0.00  0.00    +0.103 C 
BRANCH  16  20
ATOM      1  O   UNL     1      10.257   4.642   3.471  0.00  0.00    -0.276 OA
ATOM      6  N   UNL     1      11.923   6.254   3.638  0.00  0.00    -0.314 N 
ATOM     20  C   UNL     1      10.952   5.399   4.141  0.00  0.00    +0.214 C 
ATOM     32  H   UNL     1      12.442   6.848   4.277  0.00  0.00    +0.149 HD
BRANCH   6  22
ATOM     22  C   UNL     1      12.233   6.352   2.230  0.00  0.00    +0.119 C 
BRANCH  22  23
ATOM     23  C   UNL     1      13.227   5.280   1.808  0.00  0.00    +0.103 C 
BRANCH  23   7
ATOM      3  O   UNL     1      12.726   2.955  -1.650  0.00  0.00    -0.377 OA
ATOM      7  N   UNL     1      12.996   4.892   0.418  0.00  0.00    -0.297 NA
ATOM     25  C   UNL     1      11.795   4.054   0.303  0.00  0.00    +0.112 C 
ATOM     26  C   UNL     1      14.161   4.180  -0.125  0.00  0.00    +0.112 C 
ATOM     27  C   UNL     1      11.581   3.651  -1.154  0.00  0.00    +0.175 C 
ATOM     28  C   UNL     1      13.892   3.775  -1.572  0.00  0.00    +0.175 C 
ENDBRANCH  23   7
ENDBRANCH  22  23
ENDBRANCH   6  22
ENDBRANCH  16  20
ENDBRANCH  11  16
TORSDOF 11
ENDMDL
MODEL 7
REMARK VINA RESULT:      -5.6     29.366     33.595
REMARK  Name = 38027050
REMARK  15 active torsions:
REMARK  status: ('A' for Active; 'I' for Inactive)
REMARK    1  A    between atoms: O_4  and  C_29
REMARK    2  A    between atoms: O_4  and  C_30
REMARK    3  A    between atoms: N_5  and  C_15
REMARK    4  A    between atoms: N_6  and  C_22
REMARK    5  A    between atoms: N_7  and  C_23
REMARK    6  A    between atoms: C_8  and  C_12
REMARK    7  A    between atoms: C_9  and  C_15
REMARK    8  A    between atoms: C_11  and  C_16
REMARK    9  A    between atoms: C_12  and  C_17
REMARK   10  A    between atoms: C_12  and  C_18
REMARK   11  A    between atoms: C_13  and  C_19
REMARK   12  A    between atoms: C_16  and  C_20
REMARK   13  A    between atoms: C_21  and  C_24
REMARK   14  A    between atoms: C_22  and  C_23
REMARK   15  A    between atoms: C_24  and  C_29
REMARK                            x       y       z     vdW  Elec       q    Type
REMARK                         _______ _______ _______ _____ _____    ______ ____
ROOT
ATOM      8  C   UNL     1     -10.936 -10.053  19.088  0.00  0.00    +0.000 C 
ATOM      9  C   UNL     1      -9.891 -11.091  18.608  0.00  0.00    +0.032 C 
ATOM     10  C   UNL     1     -11.838  -9.623  17.922  0.00  0.00    +0.012 C 
ATOM     11  C   UNL     1     -11.036  -9.006  16.762  0.00  0.00    +0.023 C 
ATOM     13  C   UNL     1      -9.825  -9.844  16.406  0.00  0.00    -0.073 C 
ATOM     14  C   UNL     1      -9.335 -10.781  17.237  0.00  0.00    -0.022 C 
ATOM     19  C   UNL     1      -9.216  -9.613  15.051  0.00  0.00    +0.039 C 
ENDROOT
BRANCH   8  12
ATOM     12  C   UNL     1     -11.793 -10.599  20.235  0.00  0.00    -0.013 C 
ATOM     17  C   UNL     1     -12.973  -9.671  20.504  0.00  0.00    +0.007 C 
ATOM     18  C   UNL     1     -12.277 -12.009  19.912  0.00  0.00    +0.007 C 
ENDBRANCH   8  12
BRANCH   9  15
ATOM     15  C   UNL     1      -8.737 -11.219  19.610  0.00  0.00    +0.112 C 
BRANCH  15   5
ATOM      2  O   UNL     1      -6.097 -11.115  20.770  0.00  0.00    -0.276 OA
ATOM      5  N   UNL     1      -7.490 -11.380  18.929  0.00  0.00    -0.315 N 
ATOM     21  C   UNL     1      -6.251 -11.315  19.568  0.00  0.00    +0.215 C 
ATOM     31  H   UNL     1      -7.513 -11.601  17.937  0.00  0.00    +0.149 HD
BRANCH  21  24
ATOM     24  C   UNL     1      -5.097 -11.525  18.601  0.00  0.00    +0.124 C 
BRANCH  24  29
ATOM     29  C   UNL     1      -5.521 -12.207  17.310  0.00  0.00    +0.168 C 
BRANCH  29   4
ATOM      4  O   UNL     1      -5.151 -11.395  16.204  0.00  0.00    -0.382 OA
ATOM     30  C   UNL     1      -4.249 -10.367  16.592  0.00  0.00    +0.194 C 
ENDBRANCH  29   4
ENDBRANCH  24  29
ENDBRANCH  21  24
ENDBRANCH  15   5
ENDBRANCH   9  15
BRANCH  11  16
ATOM     16  C   UNL     1     -10.629  -7.562  17.076  0.00  0.00    +0.103 C 
BRANCH  16  20
ATOM      1  O   UNL     1     -10.315  -5.869  15.376  0.00  0.00    -0.276 OA
ATOM      6  N   UNL     1     -12.455  -6.653  15.829  0.00  0.00    -0.314 N 
ATOM     20  C   UNL     1     -11.080  -6.598  16.001  0.00  0.00    +0.214 C 
ATOM     32  H   UNL     1     -13.002  -7.297  16.392  0.00  0.00    +0.149 HD
BRANCH   6  22
ATOM     22  C   UNL     1     -13.163  -5.837  14.868  0.00  0.00    +0.119 C 
BRANCH  22  23
ATOM     23  C   UNL     1     -13.283  -6.545  13.526  0.00  0.00    +0.103 C 
BRANCH  23   7
ATOM      3  O   UNL     1     -11.585  -4.035  10.624  0.00  0.00    -0.377 OA
ATOM      7  N   UNL     1     -13.140  -5.588  12.432  0.00  0.00    -0.297 NA
ATOM     25  C   UNL     1     -12.453  -6.201  11.287  0.00  0.00    +0.112 C 
ATOM     26  C   UNL     1     -12.410  -4.392  12.877  0.00  0.00    +0.112 C 
ATOM     27  C   UNL     1     -12.304  -5.180  10.163  0.00  0.00    +0.175 C 
ATOM     28  C   UNL     1     -12.264  -3.413  11.715  0.00  0.00    +0.175 C 
ENDBRANCH  23   7
ENDBRANCH  22  23
ENDBRANCH   6  22
ENDBRANCH  16  20
ENDBRANCH  11  16
TORSDOF 11
ENDMDL
MODEL 8
REMARK VINA RESULT:      -5.5     28.142     30.962
REMARK  Name = 38027050
REMARK  15 active torsions:
REMARK  status: ('A' for Active; 'I' for Inactive)
REMARK    1  A    between atoms: O_4  and  C_29
REMARK    2  A    between atoms: O_4  and  C_30
REMARK    3  A    between atoms: N_5  and  C_15
REMARK    4  A    between atoms: N_6  and  C_22
REMARK    5  A    between atoms: N_7  and  C_23
REMARK    6  A    between atoms: C_8  and  C_12
REMARK    7  A    between atoms: C_9  and  C_15
REMARK    8  A    between atoms: C_11  and  C_16
REMARK    9  A    between atoms: C_12  and  C_17
REMARK   10  A    between atoms: C_12  and  C_18
REMARK   11  A    between atoms: C_13  and  C_19
REMARK   12  A    between atoms: C_16  and  C_20
REMARK   13  A    between atoms: C_21  and  C_24
REMARK   14  A    between atoms: C_22  and  C_23
REMARK   15  A    between atoms: C_24  and  C_29
REMARK                            x       y       z     vdW  Elec       q    Type
REMARK                         _______ _______ _______ _____ _____    ______ ____
ROOT
ATOM      8  C   UNL     1      -5.315 -11.820  17.441  0.00  0.00    +0.000 C 
ATOM      9  C   UNL     1      -6.795 -11.605  17.036  0.00  0.00    +0.032 C 
ATOM     10  C   UNL     1      -4.459 -10.623  16.999  0.00  0.00    +0.012 C 
ATOM     11  C   UNL     1      -4.519 -10.396  15.477  0.00  0.00    +0.023 C 
ATOM     13  C   UNL     1      -5.942 -10.438  14.958  0.00  0.00    -0.073 C 
ATOM     14  C   UNL     1      -6.949 -10.970  15.673  0.00  0.00    -0.022 C 
ATOM     19  C   UNL     1      -6.190  -9.813  13.613  0.00  0.00    +0.039 C 
ENDROOT
BRANCH   8  12
ATOM     12  C   UNL     1      -5.165 -12.035  18.951  0.00  0.00    -0.013 C 
ATOM     17  C   UNL     1      -3.691 -12.135  19.330  0.00  0.00    +0.007 C 
ATOM     18  C   UNL     1      -5.846 -10.908  19.719  0.00  0.00    +0.007 C 
ENDBRANCH   8  12
BRANCH   9  15
ATOM     15  C   UNL     1      -7.577 -12.923  17.076  0.00  0.00    +0.112 C 
BRANCH  15   5
ATOM      2  O   UNL     1     -10.305 -12.213  16.462  0.00  0.00    -0.276 OA
ATOM      5  N   UNL     1      -8.670 -12.836  17.992  0.00  0.00    -0.315 N 
ATOM     21  C   UNL     1      -9.966 -12.484  17.611  0.00  0.00    +0.215 C 
ATOM     31  H   UNL     1      -8.503 -13.091  18.962  0.00  0.00    +0.149 HD
BRANCH  21  24
ATOM     24  C   UNL     1     -10.927 -12.473  18.790  0.00  0.00    +0.124 C 
BRANCH  24  29
ATOM     29  C   UNL     1     -10.218 -12.370  20.131  0.00  0.00    +0.168 C 
BRANCH  29   4
ATOM      4  O   UNL     1      -9.783 -11.032  20.334  0.00  0.00    -0.382 OA
ATOM     30  C   UNL     1     -10.839 -10.104  20.126  0.00  0.00    +0.194 C 
ENDBRANCH  29   4
ENDBRANCH  24  29
ENDBRANCH  21  24
ENDBRANCH  15   5
ENDBRANCH   9  15
BRANCH  11  16
ATOM     16  C   UNL     1      -3.633 -11.399  14.732  0.00  0.00    +0.103 C 
BRANCH  16  20
ATOM      1  O   UNL     1      -1.598 -10.132  14.406  0.00  0.00    -0.276 OA
ATOM      6  N   UNL     1      -2.820 -10.829  12.557  0.00  0.00    -0.314 N 
ATOM     20  C   UNL     1      -2.561 -10.713  13.915  0.00  0.00    +0.214 C 
ATOM     32  H   UNL     1      -3.643 -11.337  12.250  0.00  0.00    +0.149 HD
BRANCH   6  22
ATOM     22  C   UNL     1      -1.962 -10.265  11.539  0.00  0.00    +0.119 C 
BRANCH  22  23
ATOM     23  C   UNL     1      -2.700  -9.225  10.710  0.00  0.00    +0.103 C 
BRANCH  23   7
ATOM      3  O   UNL     1      -6.453  -9.780   8.918  0.00  0.00    -0.377 OA
ATOM      7  N   UNL     1      -4.082  -9.642  10.485  0.00  0.00    -0.297 NA
ATOM     25  C   UNL     1      -4.177 -10.522   9.313  0.00  0.00    +0.112 C 
ATOM     26  C   UNL     1      -4.958  -8.474  10.311  0.00  0.00    +0.112 C 
ATOM     27  C   UNL     1      -5.630 -10.934   9.091  0.00  0.00    +0.175 C 
ATOM     28  C   UNL     1      -6.392  -8.935  10.066  0.00  0.00    +0.175 C 
ENDBRANCH  23   7
ENDBRANCH  22  23
ENDBRANCH   6  22
ENDBRANCH  16  20
ENDBRANCH  11  16
TORSDOF 11
ENDMDL
MODEL 9
REMARK VINA RESULT:      -5.4     27.140     30.638
REMARK  Name = 38027050
REMARK  15 active torsions:
REMARK  status: ('A' for Active; 'I' for Inactive)
REMARK    1  A    between atoms: O_4  and  C_29
REMARK    2  A    between atoms: O_4  and  C_30
REMARK    3  A    between atoms: N_5  and  C_15
REMARK    4  A    between atoms: N_6  and  C_22
REMARK    5  A    between atoms: N_7  and  C_23
REMARK    6  A    between atoms: C_8  and  C_12
REMARK    7  A    between atoms: C_9  and  C_15
REMARK    8  A    between atoms: C_11  and  C_16
REMARK    9  A    between atoms: C_12  and  C_17
REMARK   10  A    between atoms: C_12  and  C_18
REMARK   11  A    between atoms: C_13  and  C_19
REMARK   12  A    between atoms: C_16  and  C_20
REMARK   13  A    between atoms: C_21  and  C_24
REMARK   14  A    between atoms: C_22  and  C_23
REMARK   15  A    between atoms: C_24  and  C_29
REMARK                            x       y       z     vdW  Elec       q    Type
REMARK                         _______ _______ _______ _____ _____    ______ ____
ROOT
ATOM      8  C   UNL     1      -4.925 -12.309  16.133  0.00  0.00    +0.000 C 
ATOM      9  C   UNL     1      -4.171 -11.820  17.395  0.00  0.00    +0.032 C 
ATOM     10  C   UNL     1      -3.928 -12.729  15.043  0.00  0.00    +0.012 C 
ATOM     11  C   UNL     1      -2.991 -11.577  14.635  0.00  0.00    +0.023 C 
ATOM     13  C   UNL     1      -2.413 -10.867  15.843  0.00  0.00    -0.073 C 
ATOM     14  C   UNL     1      -2.945 -10.998  17.071  0.00  0.00    -0.022 C 
ATOM     19  C   UNL     1      -1.180 -10.039  15.614  0.00  0.00    +0.039 C 
ENDROOT
BRANCH   8  12
ATOM     12  C   UNL     1      -5.869 -13.473  16.451  0.00  0.00    -0.013 C 
ATOM     17  C   UNL     1      -6.772 -13.767  15.257  0.00  0.00    +0.007 C 
ATOM     18  C   UNL     1      -5.071 -14.713  16.842  0.00  0.00    +0.007 C 
ENDBRANCH   8  12
BRANCH   9  15
ATOM     15  C   UNL     1      -5.096 -11.015  18.316  0.00  0.00    +0.112 C 
BRANCH  15   5
ATOM      2  O   UNL     1      -7.903 -10.569  18.814  0.00  0.00    -0.276 OA
ATOM      5  N   UNL     1      -5.987 -10.200  17.551  0.00  0.00    -0.315 N 
ATOM     21  C   UNL     1      -7.338 -10.036  17.862  0.00  0.00    +0.215 C 
ATOM     31  H   UNL     1      -5.603  -9.675  16.770  0.00  0.00    +0.149 HD
BRANCH  21  24
ATOM     24  C   UNL     1      -8.043  -9.113  16.881  0.00  0.00    +0.124 C 
BRANCH  24  29
ATOM     29  C   UNL     1      -8.356  -9.785  15.553  0.00  0.00    +0.168 C 
BRANCH  29   4
ATOM      4  O   UNL     1      -7.166  -9.878  14.781  0.00  0.00    -0.382 OA
ATOM     30  C   UNL     1      -7.375 -10.630  13.592  0.00  0.00    +0.194 C 
ENDBRANCH  29   4
ENDBRANCH  24  29
ENDBRANCH  21  24
ENDBRANCH  15   5
ENDBRANCH   9  15
BRANCH  11  16
ATOM     16  C   UNL     1      -3.703 -10.587  13.706  0.00  0.00    +0.103 C 
BRANCH  16  20
ATOM      1  O   UNL     1      -1.913 -10.639  12.079  0.00  0.00    -0.276 OA
ATOM      6  N   UNL     1      -4.119 -10.545  11.352  0.00  0.00    -0.314 N 
ATOM     20  C   UNL     1      -3.117 -10.596  12.312  0.00  0.00    +0.214 C 
ATOM     32  H   UNL     1      -5.090 -10.518  11.648  0.00  0.00    +0.149 HD
BRANCH   6  22
ATOM     22  C   UNL     1      -3.850 -10.538   9.932  0.00  0.00    +0.119 C 
BRANCH  22  23
ATOM     23  C   UNL     1      -3.859  -9.122   9.376  0.00  0.00    +0.103 C 
BRANCH  23   7
ATOM      3  O   UNL     1      -7.554  -9.623   7.452  0.00  0.00    -0.377 OA
ATOM      7  N   UNL     1      -4.977  -8.946   8.453  0.00  0.00    -0.297 NA
ATOM     25  C   UNL     1      -6.203  -8.586   9.180  0.00  0.00    +0.112 C 
ATOM     26  C   UNL     1      -5.200 -10.166   7.664  0.00  0.00    +0.112 C 
ATOM     27  C   UNL     1      -7.359  -8.420   8.197  0.00  0.00    +0.175 C 
ATOM     28  C   UNL     1      -6.379  -9.962   6.717  0.00  0.00    +0.175 C 
ENDBRANCH  23   7
ENDBRANCH  22  23
ENDBRANCH   6  22
ENDBRANCH  16  20
ENDBRANCH  11  16
TORSDOF 11
ENDMDL
MODEL 10
REMARK VINA RESULT:      -5.4     14.892     18.424
REMARK  Name = 38027050
REMARK  15 active torsions:
REMARK  status: ('A' for Active; 'I' for Inactive)
REMARK    1  A    between atoms: O_4  and  C_29
REMARK    2  A    between atoms: O_4  and  C_30
REMARK    3  A    between atoms: N_5  and  C_15
REMARK    4  A    between atoms: N_6  and  C_22
REMARK    5  A    between atoms: N_7  and  C_23
REMARK    6  A    between atoms: C_8  and  C_12
REMARK    7  A    between atoms: C_9  and  C_15
REMARK    8  A    between atoms: C_11  and  C_16
REMARK    9  A    between atoms: C_12  and  C_17
REMARK   10  A    between atoms: C_12  and  C_18
REMARK   11  A    between atoms: C_13  and  C_19
REMARK   12  A    between atoms: C_16  and  C_20
REMARK   13  A    between atoms: C_21  and  C_24
REMARK   14  A    between atoms: C_22  and  C_23
REMARK   15  A    between atoms: C_24  and  C_29
REMARK                            x       y       z     vdW  Elec       q    Type
REMARK                         _______ _______ _______ _____ _____    ______ ____
ROOT
ATOM      8  C   UNL     1       9.198   8.265   5.309  0.00  0.00    +0.000 C 
ATOM      9  C   UNL     1       8.893   8.780   6.738  0.00  0.00    +0.032 C 
ATOM     10  C   UNL     1       8.666   6.835   5.130  0.00  0.00    +0.012 C 
ATOM     11  C   UNL     1       9.283   5.854   6.143  0.00  0.00    +0.023 C 
ATOM     13  C   UNL     1       9.262   6.412   7.552  0.00  0.00    -0.073 C 
ATOM     14  C   UNL     1       9.073   7.720   7.799  0.00  0.00    -0.022 C 
ATOM     19  C   UNL     1       9.418   5.423   8.673  0.00  0.00    +0.039 C 
ENDROOT
BRANCH   8  12
ATOM     12  C   UNL     1       8.598   9.180   4.236  0.00  0.00    -0.013 C 
ATOM     17  C   UNL     1       8.636   8.496   2.872  0.00  0.00    +0.007 C 
ATOM     18  C   UNL     1       7.171   9.570   4.606  0.00  0.00    +0.007 C 
ENDBRANCH   8  12
BRANCH   9  15
ATOM     15  C   UNL     1       9.756   9.999   7.082  0.00  0.00    +0.112 C 
BRANCH  15   5
ATOM      2  O   UNL     1      11.527  11.077   9.090  0.00  0.00    -0.276 OA
ATOM      5  N   UNL     1       9.389  10.537   8.355  0.00  0.00    -0.315 N 
ATOM     21  C   UNL     1      10.313  11.041   9.272  0.00  0.00    +0.215 C 
ATOM     31  H   UNL     1       8.400  10.597   8.580  0.00  0.00    +0.149 HD
BRANCH  21  24
ATOM     24  C   UNL     1       9.643  11.548  10.539  0.00  0.00    +0.124 C 
BRANCH  24  29
ATOM     29  C   UNL     1       8.293  12.198  10.277  0.00  0.00    +0.168 C 
BRANCH  29   4
ATOM      4  O   UNL     1       8.483  13.402   9.546  0.00  0.00    -0.382 OA
ATOM     30  C   UNL     1       8.920  14.460  10.389  0.00  0.00    +0.194 C 
ENDBRANCH  29   4
ENDBRANCH  24  29
ENDBRANCH  21  24
ENDBRANCH  15   5
ENDBRANCH   9  15
BRANCH  11  16
ATOM     16  C   UNL     1      10.705   5.455   5.733  0.00  0.00    +0.103 C 
BRANCH  16  20
ATOM      1  O   UNL     1      10.136   4.536   3.568  0.00  0.00    -0.276 OA
ATOM      6  N   UNL     1      11.853   6.093   3.735  0.00  0.00    -0.314 N 
ATOM     20  C   UNL     1      10.839   5.289   4.235  0.00  0.00    +0.214 C 
ATOM     32  H   UNL     1      12.375   6.688   4.371  0.00  0.00    +0.149 HD
BRANCH   6  22
ATOM     22  C   UNL     1      12.206   6.136   2.334  0.00  0.00    +0.119 C 
BRANCH  22  23
ATOM     23  C   UNL     1      12.773   4.804   1.867  0.00  0.00    +0.103 C 
BRANCH  23   7
ATOM      3  O   UNL     1      11.019   3.203  -1.593  0.00  0.00    -0.377 OA
ATOM      7  N   UNL     1      12.431   4.570   0.466  0.00  0.00    -0.297 NA
ATOM     25  C   UNL     1      10.999   4.801   0.232  0.00  0.00    +0.112 C 
ATOM     26  C   UNL     1      12.793   3.203   0.062  0.00  0.00    +0.112 C 
ATOM     27  C   UNL     1      10.663   4.538  -1.233  0.00  0.00    +0.175 C 
ATOM     28  C   UNL     1      12.416   2.979  -1.400  0.00  0.00    +0.175 C 
ENDBRANCH  23   7
ENDBRANCH  22  23
ENDBRANCH   6  22
ENDBRANCH  16  20
ENDBRANCH  11  16
TORSDOF 11
ENDMDL
