MODEL 1
REMARK VINA RESULT:      -6.4      0.000      0.000
REMARK  Name = 38027160
REMARK  12 active torsions:
REMARK  status: ('A' for Active; 'I' for Inactive)
REMARK    1  A    between atoms: N_3  and  C_13
REMARK    2  A    between atoms: N_4  and  C_20
REMARK    3  A    between atoms: N_4  and  C_21
REMARK    4  A    between atoms: C_6  and  C_10
REMARK    5  A    between atoms: C_7  and  C_13
REMARK    6  A    between atoms: C_9  and  C_14
REMARK    7  A    between atoms: C_10  and  C_15
REMARK    8  A    between atoms: C_10  and  C_16
REMARK    9  A    between atoms: C_11  and  C_17
REMARK   10  A    between atoms: C_14  and  C_18
REMARK   11  A    between atoms: C_19  and  C_22
REMARK   12  A    between atoms: C_20  and  C_23
REMARK                            x       y       z     vdW  Elec       q    Type
REMARK                         _______ _______ _______ _____ _____    ______ ____
ROOT
ATOM      6  C   UNL     1      12.840   9.012  20.461  0.00  0.00    +0.000 C 
ATOM      7  C   UNL     1      12.922   7.970  19.318  0.00  0.00    +0.032 C 
ATOM      8  C   UNL     1      12.505  10.401  19.898  0.00  0.00    +0.012 C 
ATOM      9  C   UNL     1      13.551  10.881  18.874  0.00  0.00    +0.023 C 
ATOM     11  C   UNL     1      13.885   9.804  17.863  0.00  0.00    -0.073 C 
ATOM     12  C   UNL     1      13.585   8.510  18.073  0.00  0.00    -0.022 C 
ATOM     17  C   UNL     1      14.534  10.254  16.583  0.00  0.00    +0.039 C 
ENDROOT
BRANCH   6  10
ATOM     10  C   UNL     1      11.802   8.617  21.518  0.00  0.00    -0.013 C 
ATOM     15  C   UNL     1      11.473   9.809  22.411  0.00  0.00    +0.007 C 
ATOM     16  C   UNL     1      10.543   8.076  20.850  0.00  0.00    +0.007 C 
ENDBRANCH   6  10
BRANCH   7  13
ATOM     13  C   UNL     1      13.652   6.702  19.777  0.00  0.00    +0.112 C 
BRANCH  13   3
ATOM      2  O   UNL     1      16.168   5.829  18.707  0.00  0.00    -0.270 OA
ATOM      3  N   UNL     1      14.950   7.019  20.283  0.00  0.00    -0.311 N 
ATOM     19  C   UNL     1      16.126   6.550  19.701  0.00  0.00    +0.244 C 
ATOM     33  H   UNL     1      15.000   7.684  21.048  0.00  0.00    +0.149 HD
BRANCH  19  22
ATOM      5  N   UNL     1      19.784   7.698  21.608  0.00  0.00    -0.263 NA
ATOM     22  C   UNL     1      17.396   6.948  20.363  0.00  0.00    +0.040 A 
ATOM     24  C   UNL     1      18.535   6.163  20.219  0.00  0.00    +0.033 A 
ATOM     25  C   UNL     1      17.450   8.107  21.128  0.00  0.00    +0.033 A 
ATOM     28  C   UNL     1      19.693   6.579  20.856  0.00  0.00    +0.111 A 
ATOM     29  C   UNL     1      18.656   8.436  21.725  0.00  0.00    +0.111 A 
ENDBRANCH  19  22
ENDBRANCH  13   3
ENDBRANCH   7  13
BRANCH   9  14
ATOM     14  C   UNL     1      14.817  11.390  19.574  0.00  0.00    +0.103 C 
BRANCH  14  18
ATOM      1  O   UNL     1      14.125  13.604  20.174  0.00  0.00    -0.276 OA
ATOM      4  N   UNL     1      14.728  12.188  21.910  0.00  0.00    -0.300 N 
ATOM     18  C   UNL     1      14.521  12.502  20.563  0.00  0.00    +0.216 C 
ATOM     21  C   UNL     1      15.197  10.878  22.345  0.00  0.00    +0.132 C 
BRANCH   4  20
ATOM     20  C   UNL     1      14.489  13.150  22.983  0.00  0.00    +0.142 C 
BRANCH  20  23
ATOM     23  C   UNL     1      13.108  13.020  23.557  0.00  0.00    -0.030 A 
ATOM     26  C   UNL     1      12.008  13.495  22.843  0.00  0.00    +0.005 A 
ATOM     27  C   UNL     1      12.924  12.424  24.805  0.00  0.00    +0.005 A 
ATOM     30  C   UNL     1      10.724  13.374  23.376  0.00  0.00    +0.000 A 
ATOM     31  C   UNL     1      11.641  12.303  25.338  0.00  0.00    +0.000 A 
ATOM     32  C   UNL     1      10.541  12.779  24.624  0.00  0.00    +0.000 A 
ENDBRANCH  20  23
ENDBRANCH   4  20
ENDBRANCH  14  18
ENDBRANCH   9  14
TORSDOF 8
ENDMDL
MODEL 2
REMARK VINA RESULT:      -6.4     27.248     30.057
REMARK  Name = 38027160
REMARK  12 active torsions:
REMARK  status: ('A' for Active; 'I' for Inactive)
REMARK    1  A    between atoms: N_3  and  C_13
REMARK    2  A    between atoms: N_4  and  C_20
REMARK    3  A    between atoms: N_4  and  C_21
REMARK    4  A    between atoms: C_6  and  C_10
REMARK    5  A    between atoms: C_7  and  C_13
REMARK    6  A    between atoms: C_9  and  C_14
REMARK    7  A    between atoms: C_10  and  C_15
REMARK    8  A    between atoms: C_10  and  C_16
REMARK    9  A    between atoms: C_11  and  C_17
REMARK   10  A    between atoms: C_14  and  C_18
REMARK   11  A    between atoms: C_19  and  C_22
REMARK   12  A    between atoms: C_20  and  C_23
REMARK                            x       y       z     vdW  Elec       q    Type
REMARK                         _______ _______ _______ _____ _____    ______ ____
ROOT
ATOM      6  C   UNL     1      -3.103 -12.203  12.557  0.00  0.00    +0.000 C 
ATOM      7  C   UNL     1      -2.033 -11.088  12.459  0.00  0.00    +0.032 C 
ATOM      8  C   UNL     1      -3.645 -12.550  11.162  0.00  0.00    +0.012 C 
ATOM      9  C   UNL     1      -4.274 -11.330  10.462  0.00  0.00    +0.023 C 
ATOM     11  C   UNL     1      -3.386 -10.106  10.558  0.00  0.00    -0.073 C 
ATOM     12  C   UNL     1      -2.381 -10.021  11.448  0.00  0.00    -0.022 C 
ATOM     17  C   UNL     1      -3.651  -8.998   9.576  0.00  0.00    +0.039 C 
ENDROOT
BRANCH   6  10
ATOM     10  C   UNL     1      -2.550 -13.466  13.226  0.00  0.00    -0.013 C 
ATOM     15  C   UNL     1      -3.453 -13.897  14.377  0.00  0.00    +0.007 C 
ATOM     16  C   UNL     1      -2.403 -14.588  12.204  0.00  0.00    +0.007 C 
ENDBRANCH   6  10
BRANCH   7  13
ATOM     13  C   UNL     1      -1.787 -10.437  13.825  0.00  0.00    +0.112 C 
BRANCH  13   3
ATOM      2  O   UNL     1      -2.172 -10.937  16.625  0.00  0.00    -0.270 OA
ATOM      3  N   UNL     1      -3.009 -10.309  14.554  0.00  0.00    -0.311 N 
ATOM     19  C   UNL     1      -3.110 -10.574  15.919  0.00  0.00    +0.244 C 
ATOM     33  H   UNL     1      -3.808  -9.927  14.058  0.00  0.00    +0.149 HD
BRANCH  19  22
ATOM      5  N   UNL     1      -6.994 -10.129  17.664  0.00  0.00    -0.263 NA
ATOM     22  C   UNL     1      -4.458 -10.420  16.525  0.00  0.00    +0.040 A 
ATOM     24  C   UNL     1      -4.699 -10.875  17.816  0.00  0.00    +0.033 A 
ATOM     25  C   UNL     1      -5.483  -9.820  15.802  0.00  0.00    +0.033 A 
ATOM     28  C   UNL     1      -5.973 -10.707  18.335  0.00  0.00    +0.111 A 
ATOM     29  C   UNL     1      -6.722  -9.700  16.411  0.00  0.00    +0.111 A 
ENDBRANCH  19  22
ENDBRANCH  13   3
ENDBRANCH   7  13
BRANCH   9  14
ATOM     14  C   UNL     1      -5.674 -11.037  11.014  0.00  0.00    +0.103 C 
BRANCH  14  18
ATOM      1  O   UNL     1      -6.492 -11.250   8.771  0.00  0.00    -0.276 OA
ATOM      4  N   UNL     1      -7.849 -10.124  10.278  0.00  0.00    -0.300 N 
ATOM     18  C   UNL     1      -6.694 -10.823   9.911  0.00  0.00    +0.216 C 
ATOM     21  C   UNL     1      -8.066  -9.629  11.632  0.00  0.00    +0.132 C 
BRANCH   4  20
ATOM     20  C   UNL     1      -8.924  -9.837   9.332  0.00  0.00    +0.142 C 
BRANCH  20  23
ATOM     23  C   UNL     1      -8.992  -8.379   8.983  0.00  0.00    -0.030 A 
ATOM     26  C   UNL     1      -7.890  -7.748   8.404  0.00  0.00    +0.005 A 
ATOM     27  C   UNL     1     -10.156  -7.654   9.238  0.00  0.00    +0.005 A 
ATOM     30  C   UNL     1      -7.953  -6.393   8.080  0.00  0.00    +0.000 A 
ATOM     31  C   UNL     1     -10.219  -6.299   8.913  0.00  0.00    +0.000 A 
ATOM     32  C   UNL     1      -9.117  -5.668   8.335  0.00  0.00    +0.000 A 
ENDBRANCH  20  23
ENDBRANCH   4  20
ENDBRANCH  14  18
ENDBRANCH   9  14
TORSDOF 8
ENDMDL
MODEL 3
REMARK VINA RESULT:      -6.3     27.307     30.447
REMARK  Name = 38027160
REMARK  12 active torsions:
REMARK  status: ('A' for Active; 'I' for Inactive)
REMARK    1  A    between atoms: N_3  and  C_13
REMARK    2  A    between atoms: N_4  and  C_20
REMARK    3  A    between atoms: N_4  and  C_21
REMARK    4  A    between atoms: C_6  and  C_10
REMARK    5  A    between atoms: C_7  and  C_13
REMARK    6  A    between atoms: C_9  and  C_14
REMARK    7  A    between atoms: C_10  and  C_15
REMARK    8  A    between atoms: C_10  and  C_16
REMARK    9  A    between atoms: C_11  and  C_17
REMARK   10  A    between atoms: C_14  and  C_18
REMARK   11  A    between atoms: C_19  and  C_22
REMARK   12  A    between atoms: C_20  and  C_23
REMARK                            x       y       z     vdW  Elec       q    Type
REMARK                         _______ _______ _______ _____ _____    ______ ____
ROOT
ATOM      6  C   UNL     1      -3.028 -12.309  12.473  0.00  0.00    +0.000 C 
ATOM      7  C   UNL     1      -2.002 -11.152  12.389  0.00  0.00    +0.032 C 
ATOM      8  C   UNL     1      -3.568 -12.651  11.076  0.00  0.00    +0.012 C 
ATOM      9  C   UNL     1      -4.249 -11.443  10.404  0.00  0.00    +0.023 C 
ATOM     11  C   UNL     1      -3.407 -10.189  10.516  0.00  0.00    -0.073 C 
ATOM     12  C   UNL     1      -2.399 -10.081  11.400  0.00  0.00    -0.022 C 
ATOM     17  C   UNL     1      -3.723  -9.074   9.557  0.00  0.00    +0.039 C 
ENDROOT
BRANCH   6  10
ATOM     10  C   UNL     1      -2.422 -13.562  13.115  0.00  0.00    -0.013 C 
ATOM     15  C   UNL     1      -3.214 -13.959  14.357  0.00  0.00    +0.007 C 
ATOM     16  C   UNL     1      -2.380 -14.707  12.110  0.00  0.00    +0.007 C 
ENDBRANCH   6  10
BRANCH   7  13
ATOM     13  C   UNL     1      -1.770 -10.516  13.764  0.00  0.00    +0.112 C 
BRANCH  13   3
ATOM      2  O   UNL     1      -2.184 -10.906  16.578  0.00  0.00    -0.270 OA
ATOM      3  N   UNL     1      -3.003 -10.376  14.472  0.00  0.00    -0.311 N 
ATOM     19  C   UNL     1      -3.117 -10.586  15.846  0.00  0.00    +0.244 C 
ATOM     33  H   UNL     1      -3.801 -10.025  13.951  0.00  0.00    +0.149 HD
BRANCH  19  22
ATOM      5  N   UNL     1      -7.028 -10.123  17.525  0.00  0.00    -0.263 NA
ATOM     22  C   UNL     1      -4.475 -10.425  16.429  0.00  0.00    +0.040 A 
ATOM     24  C   UNL     1      -4.722 -10.815  17.741  0.00  0.00    +0.033 A 
ATOM     25  C   UNL     1      -5.502  -9.884  15.665  0.00  0.00    +0.033 A 
ATOM     28  C   UNL     1      -6.005 -10.645  18.237  0.00  0.00    +0.111 A 
ATOM     29  C   UNL     1      -6.750  -9.755  16.254  0.00  0.00    +0.111 A 
ENDBRANCH  19  22
ENDBRANCH  13   3
ENDBRANCH   7  13
BRANCH   9  14
ATOM     14  C   UNL     1      -5.655 -11.214  10.972  0.00  0.00    +0.103 C 
BRANCH  14  18
ATOM      1  O   UNL     1      -6.906 -12.431   9.328  0.00  0.00    -0.276 OA
ATOM      4  N   UNL     1      -7.492 -10.210   9.660  0.00  0.00    -0.300 N 
ATOM     18  C   UNL     1      -6.733 -11.358   9.913  0.00  0.00    +0.216 C 
ATOM     21  C   UNL     1      -7.268  -8.954  10.364  0.00  0.00    +0.132 C 
BRANCH   4  20
ATOM     20  C   UNL     1      -8.566 -10.185   8.671  0.00  0.00    +0.142 C 
BRANCH  20  23
ATOM     23  C   UNL     1      -8.157  -9.473   7.415  0.00  0.00    -0.030 A 
ATOM     26  C   UNL     1      -8.836  -8.321   7.014  0.00  0.00    +0.005 A 
ATOM     27  C   UNL     1      -7.100  -9.961   6.648  0.00  0.00    +0.005 A 
ATOM     30  C   UNL     1      -8.456  -7.658   5.847  0.00  0.00    +0.000 A 
ATOM     31  C   UNL     1      -6.719  -9.298   5.481  0.00  0.00    +0.000 A 
ATOM     32  C   UNL     1      -7.398  -8.147   5.080  0.00  0.00    +0.000 A 
ENDBRANCH  20  23
ENDBRANCH   4  20
ENDBRANCH  14  18
ENDBRANCH   9  14
TORSDOF 8
ENDMDL
MODEL 4
REMARK VINA RESULT:      -6.1     14.245     18.197
REMARK  Name = 38027160
REMARK  12 active torsions:
REMARK  status: ('A' for Active; 'I' for Inactive)
REMARK    1  A    between atoms: N_3  and  C_13
REMARK    2  A    between atoms: N_4  and  C_20
REMARK    3  A    between atoms: N_4  and  C_21
REMARK    4  A    between atoms: C_6  and  C_10
REMARK    5  A    between atoms: C_7  and  C_13
REMARK    6  A    between atoms: C_9  and  C_14
REMARK    7  A    between atoms: C_10  and  C_15
REMARK    8  A    between atoms: C_10  and  C_16
REMARK    9  A    between atoms: C_11  and  C_17
REMARK   10  A    between atoms: C_14  and  C_18
REMARK   11  A    between atoms: C_19  and  C_22
REMARK   12  A    between atoms: C_20  and  C_23
REMARK                            x       y       z     vdW  Elec       q    Type
REMARK                         _______ _______ _______ _____ _____    ______ ____
ROOT
ATOM      6  C   UNL     1       8.865   8.466   5.822  0.00  0.00    +0.000 C 
ATOM      7  C   UNL     1       8.790   8.413   7.368  0.00  0.00    +0.032 C 
ATOM      8  C   UNL     1       8.363   7.147   5.215  0.00  0.00    +0.012 C 
ATOM      9  C   UNL     1       9.180   5.935   5.702  0.00  0.00    +0.023 C 
ATOM     11  C   UNL     1       9.379   5.957   7.204  0.00  0.00    -0.073 C 
ATOM     12  C   UNL     1       9.187   7.070   7.934  0.00  0.00    -0.022 C 
ATOM     17  C   UNL     1       9.761   4.656   7.855  0.00  0.00    +0.039 C 
ENDROOT
BRANCH   6  10
ATOM     10  C   UNL     1       8.058   9.638   5.253  0.00  0.00    -0.013 C 
ATOM     15  C   UNL     1       8.988  10.771   4.834  0.00  0.00    +0.007 C 
ATOM     16  C   UNL     1       7.204   9.175   4.077  0.00  0.00    +0.007 C 
ENDBRANCH   6  10
BRANCH   7  13
ATOM     13  C   UNL     1       9.654   9.510   8.002  0.00  0.00    +0.112 C 
BRANCH  13   3
ATOM      2  O   UNL     1      11.483  11.551   7.152  0.00  0.00    -0.270 OA
ATOM      3  N   UNL     1      11.030   9.333   7.659  0.00  0.00    -0.311 N 
ATOM     19  C   UNL     1      11.851  10.384   7.253  0.00  0.00    +0.244 C 
ATOM     33  H   UNL     1      11.430   8.412   7.805  0.00  0.00    +0.149 HD
BRANCH  19  22
ATOM      5  N   UNL     1      15.888   9.368   6.252  0.00  0.00    -0.263 NA
ATOM     22  C   UNL     1      13.253  10.031   6.906  0.00  0.00    +0.040 A 
ATOM     24  C   UNL     1      13.587   8.716   6.601  0.00  0.00    +0.033 A 
ATOM     25  C   UNL     1      14.235  11.015   6.885  0.00  0.00    +0.033 A 
ATOM     28  C   UNL     1      14.907   8.440   6.284  0.00  0.00    +0.111 A 
ATOM     29  C   UNL     1      15.526  10.636   6.555  0.00  0.00    +0.111 A 
ENDBRANCH  19  22
ENDBRANCH  13   3
ENDBRANCH   7  13
BRANCH   9  14
ATOM     14  C   UNL     1      10.525   5.845   4.971  0.00  0.00    +0.103 C 
BRANCH  14  18
ATOM      1  O   UNL     1      10.556   3.534   4.337  0.00  0.00    -0.276 OA
ATOM      4  N   UNL     1      10.591   5.093   2.619  0.00  0.00    -0.300 N 
ATOM     18  C   UNL     1      10.558   4.710   3.964  0.00  0.00    +0.216 C 
ATOM     21  C   UNL     1      10.593   6.490   2.203  0.00  0.00    +0.132 C 
BRANCH   4  20
ATOM     20  C   UNL     1      10.626   4.121   1.530  0.00  0.00    +0.142 C 
BRANCH  20  23
ATOM     23  C   UNL     1      11.987   4.023   0.906  0.00  0.00    -0.030 A 
ATOM     26  C   UNL     1      13.083   3.639   1.681  0.00  0.00    +0.005 A 
ATOM     27  C   UNL     1      12.158   4.316  -0.446  0.00  0.00    +0.005 A 
ATOM     30  C   UNL     1      14.349   3.548   1.101  0.00  0.00    +0.000 A 
ATOM     31  C   UNL     1      13.424   4.225  -1.026  0.00  0.00    +0.000 A 
ATOM     32  C   UNL     1      14.519   3.841  -0.251  0.00  0.00    +0.000 A 
ENDBRANCH  20  23
ENDBRANCH   4  20
ENDBRANCH  14  18
ENDBRANCH   9  14
TORSDOF 8
ENDMDL
MODEL 5
REMARK VINA RESULT:      -5.9     12.998     17.534
REMARK  Name = 38027160
REMARK  12 active torsions:
REMARK  status: ('A' for Active; 'I' for Inactive)
REMARK    1  A    between atoms: N_3  and  C_13
REMARK    2  A    between atoms: N_4  and  C_20
REMARK    3  A    between atoms: N_4  and  C_21
REMARK    4  A    between atoms: C_6  and  C_10
REMARK    5  A    between atoms: C_7  and  C_13
REMARK    6  A    between atoms: C_9  and  C_14
REMARK    7  A    between atoms: C_10  and  C_15
REMARK    8  A    between atoms: C_10  and  C_16
REMARK    9  A    between atoms: C_11  and  C_17
REMARK   10  A    between atoms: C_14  and  C_18
REMARK   11  A    between atoms: C_19  and  C_22
REMARK   12  A    between atoms: C_20  and  C_23
REMARK                            x       y       z     vdW  Elec       q    Type
REMARK                         _______ _______ _______ _____ _____    ______ ____
ROOT
ATOM      6  C   UNL     1       9.067   8.372   5.246  0.00  0.00    +0.000 C 
ATOM      7  C   UNL     1       8.825   8.944   6.665  0.00  0.00    +0.032 C 
ATOM      8  C   UNL     1       8.525   6.938   5.145  0.00  0.00    +0.012 C 
ATOM      9  C   UNL     1       9.183   5.995   6.170  0.00  0.00    +0.023 C 
ATOM     11  C   UNL     1       9.223   6.607   7.555  0.00  0.00    -0.073 C 
ATOM     12  C   UNL     1       9.047   7.925   7.758  0.00  0.00    -0.022 C 
ATOM     17  C   UNL     1       9.425   5.663   8.707  0.00  0.00    +0.039 C 
ENDROOT
BRANCH   6  10
ATOM     10  C   UNL     1       8.424   9.246   4.163  0.00  0.00    -0.013 C 
ATOM     15  C   UNL     1       8.408   8.511   2.827  0.00  0.00    +0.007 C 
ATOM     16  C   UNL     1       7.013   9.652   4.576  0.00  0.00    +0.007 C 
ENDBRANCH   6  10
BRANCH   7  13
ATOM     13  C   UNL     1       9.705  10.172   6.924  0.00  0.00    +0.112 C 
BRANCH  13   3
ATOM      2  O   UNL     1      11.678  11.023   8.827  0.00  0.00    -0.270 OA
ATOM      3  N   UNL     1       9.459  10.706   8.226  0.00  0.00    -0.311 N 
ATOM     19  C   UNL     1      10.480  11.096   9.091  0.00  0.00    +0.244 C 
ATOM     33  H   UNL     1       8.492  10.881   8.481  0.00  0.00    +0.149 HD
BRANCH  19  22
ATOM      5  N   UNL     1       9.271  12.570  12.925  0.00  0.00    -0.263 NA
ATOM     22  C   UNL     1      10.060  11.608  10.422  0.00  0.00    +0.040 A 
ATOM     24  C   UNL     1       8.713  11.820  10.695  0.00  0.00    +0.033 A 
ATOM     25  C   UNL     1      11.012  11.876  11.399  0.00  0.00    +0.033 A 
ATOM     28  C   UNL     1       8.374  12.298  11.951  0.00  0.00    +0.111 A 
ATOM     29  C   UNL     1      10.571  12.351  12.623  0.00  0.00    +0.111 A 
ENDBRANCH  19  22
ENDBRANCH  13   3
ENDBRANCH   7  13
BRANCH   9  14
ATOM     14  C   UNL     1      10.585   5.575   5.714  0.00  0.00    +0.103 C 
BRANCH  14  18
ATOM      1  O   UNL     1      10.003   4.436   3.687  0.00  0.00    -0.276 OA
ATOM      4  N   UNL     1      11.501   6.197   3.506  0.00  0.00    -0.300 N 
ATOM     18  C   UNL     1      10.657   5.338   4.217  0.00  0.00    +0.216 C 
ATOM     21  C   UNL     1      12.265   7.256   4.154  0.00  0.00    +0.132 C 
BRANCH   4  20
ATOM     20  C   UNL     1      11.679   6.099   2.059  0.00  0.00    +0.142 C 
BRANCH  20  23
ATOM     23  C   UNL     1      12.918   5.332   1.697  0.00  0.00    -0.030 A 
ATOM     26  C   UNL     1      14.049   6.010   1.239  0.00  0.00    +0.005 A 
ATOM     27  C   UNL     1      12.938   3.943   1.817  0.00  0.00    +0.005 A 
ATOM     30  C   UNL     1      15.200   5.297   0.903  0.00  0.00    +0.000 A 
ATOM     31  C   UNL     1      14.089   3.230   1.480  0.00  0.00    +0.000 A 
ATOM     32  C   UNL     1      15.220   3.908   1.023  0.00  0.00    +0.000 A 
ENDBRANCH  20  23
ENDBRANCH   4  20
ENDBRANCH  14  18
ENDBRANCH   9  14
TORSDOF 8
ENDMDL
MODEL 6
REMARK VINA RESULT:      -5.8     25.990     29.968
REMARK  Name = 38027160
REMARK  12 active torsions:
REMARK  status: ('A' for Active; 'I' for Inactive)
REMARK    1  A    between atoms: N_3  and  C_13
REMARK    2  A    between atoms: N_4  and  C_20
REMARK    3  A    between atoms: N_4  and  C_21
REMARK    4  A    between atoms: C_6  and  C_10
REMARK    5  A    between atoms: C_7  and  C_13
REMARK    6  A    between atoms: C_9  and  C_14
REMARK    7  A    between atoms: C_10  and  C_15
REMARK    8  A    between atoms: C_10  and  C_16
REMARK    9  A    between atoms: C_11  and  C_17
REMARK   10  A    between atoms: C_14  and  C_18
REMARK   11  A    between atoms: C_19  and  C_22
REMARK   12  A    between atoms: C_20  and  C_23
REMARK                            x       y       z     vdW  Elec       q    Type
REMARK                         _______ _______ _______ _____ _____    ______ ____
ROOT
ATOM      6  C   UNL     1     -12.554   9.345  31.754  0.00  0.00    +0.000 C 
ATOM      7  C   UNL     1     -11.782   9.960  32.947  0.00  0.00    +0.032 C 
ATOM      8  C   UNL     1     -13.917   8.807  32.216  0.00  0.00    +0.012 C 
ATOM      9  C   UNL     1     -13.777   7.733  33.311  0.00  0.00    +0.023 C 
ATOM     11  C   UNL     1     -12.814   8.161  34.400  0.00  0.00    -0.073 C 
ATOM     12  C   UNL     1     -11.938   9.167  34.224  0.00  0.00    -0.022 C 
ATOM     17  C   UNL     1     -12.910   7.434  35.713  0.00  0.00    +0.039 C 
ENDROOT
BRANCH   6  10
ATOM     10  C   UNL     1     -12.755  10.360  30.623  0.00  0.00    -0.013 C 
ATOM     15  C   UNL     1     -11.795  10.072  29.473  0.00  0.00    +0.007 C 
ATOM     16  C   UNL     1     -14.201  10.338  30.139  0.00  0.00    +0.007 C 
ENDBRANCH   6  10
BRANCH   7  13
ATOM     13  C   UNL     1     -10.293  10.115  32.621  0.00  0.00    +0.112 C 
BRANCH  13   3
ATOM      2  O   UNL     1      -8.124  11.650  33.709  0.00  0.00    -0.270 OA
ATOM      3  N   UNL     1      -9.488   9.773  33.751  0.00  0.00    -0.311 N 
ATOM     19  C   UNL     1      -8.449  10.579  34.215  0.00  0.00    +0.244 C 
ATOM     33  H   UNL     1      -9.754   8.947  34.278  0.00  0.00    +0.149 HD
BRANCH  19  22
ATOM      5  N   UNL     1      -6.260   9.112  37.590  0.00  0.00    -0.263 NA
ATOM     22  C   UNL     1      -7.689  10.070  35.386  0.00  0.00    +0.040 A 
ATOM     24  C   UNL     1      -6.376  10.475  35.597  0.00  0.00    +0.033 A 
ATOM     25  C   UNL     1      -8.289   9.186  36.276  0.00  0.00    +0.033 A 
ATOM     28  C   UNL     1      -5.711   9.971  36.703  0.00  0.00    +0.111 A 
ATOM     29  C   UNL     1      -7.539   8.740  37.352  0.00  0.00    +0.111 A 
ENDBRANCH  19  22
ENDBRANCH  13   3
ENDBRANCH   7  13
BRANCH   9  14
ATOM     14  C   UNL     1     -13.364   6.383  32.712  0.00  0.00    +0.103 C 
BRANCH  14  18
ATOM      1  O   UNL     1     -15.351   5.506  33.726  0.00  0.00    -0.276 OA
ATOM      4  N   UNL     1     -13.924   3.977  32.723  0.00  0.00    -0.300 N 
ATOM     18  C   UNL     1     -14.311   5.265  33.107  0.00  0.00    +0.216 C 
ATOM     21  C   UNL     1     -12.690   3.717  31.992  0.00  0.00    +0.132 C 
BRANCH   4  20
ATOM     20  C   UNL     1     -14.726   2.795  33.028  0.00  0.00    +0.142 C 
BRANCH  20  23
ATOM     23  C   UNL     1     -15.180   2.088  31.784  0.00  0.00    -0.030 A 
ATOM     26  C   UNL     1     -15.907   2.779  30.814  0.00  0.00    +0.005 A 
ATOM     27  C   UNL     1     -14.875   0.739  31.597  0.00  0.00    +0.005 A 
ATOM     30  C   UNL     1     -16.328   2.122  29.658  0.00  0.00    +0.000 A 
ATOM     31  C   UNL     1     -15.296   0.082  30.441  0.00  0.00    +0.000 A 
ATOM     32  C   UNL     1     -16.023   0.774  29.472  0.00  0.00    +0.000 A 
ENDBRANCH  20  23
ENDBRANCH   4  20
ENDBRANCH  14  18
ENDBRANCH   9  14
TORSDOF 8
ENDMDL
MODEL 7
REMARK VINA RESULT:      -5.8     28.167     30.252
REMARK  Name = 38027160
REMARK  12 active torsions:
REMARK  status: ('A' for Active; 'I' for Inactive)
REMARK    1  A    between atoms: N_3  and  C_13
REMARK    2  A    between atoms: N_4  and  C_20
REMARK    3  A    between atoms: N_4  and  C_21
REMARK    4  A    between atoms: C_6  and  C_10
REMARK    5  A    between atoms: C_7  and  C_13
REMARK    6  A    between atoms: C_9  and  C_14
REMARK    7  A    between atoms: C_10  and  C_15
REMARK    8  A    between atoms: C_10  and  C_16
REMARK    9  A    between atoms: C_11  and  C_17
REMARK   10  A    between atoms: C_14  and  C_18
REMARK   11  A    between atoms: C_19  and  C_22
REMARK   12  A    between atoms: C_20  and  C_23
REMARK                            x       y       z     vdW  Elec       q    Type
REMARK                         _______ _______ _______ _____ _____    ______ ____
ROOT
ATOM      6  C   UNL     1      -5.477 -11.407  17.247  0.00  0.00    +0.000 C 
ATOM      7  C   UNL     1      -4.479 -12.224  16.389  0.00  0.00    +0.032 C 
ATOM      8  C   UNL     1      -6.781 -12.194  17.450  0.00  0.00    +0.012 C 
ATOM      9  C   UNL     1      -7.461 -12.545  16.113  0.00  0.00    +0.023 C 
ATOM     11  C   UNL     1      -6.476 -13.114  15.112  0.00  0.00    -0.073 C 
ATOM     12  C   UNL     1      -5.147 -12.972  15.259  0.00  0.00    -0.022 C 
ATOM     17  C   UNL     1      -7.053 -13.889  13.960  0.00  0.00    +0.039 C 
ENDROOT
BRANCH   6  10
ATOM     10  C   UNL     1      -4.881 -11.031  18.608  0.00  0.00    -0.013 C 
ATOM     15  C   UNL     1      -5.986 -10.619  19.576  0.00  0.00    +0.007 C 
ATOM     16  C   UNL     1      -4.072 -12.194  19.174  0.00  0.00    +0.007 C 
ENDBRANCH   6  10
BRANCH   7  13
ATOM     13  C   UNL     1      -3.371 -11.327  15.824  0.00  0.00    +0.112 C 
BRANCH  13   3
ATOM      2  O   UNL     1      -2.010 -11.580  13.310  0.00  0.00    -0.270 OA
ATOM      3  N   UNL     1      -3.769 -10.754  14.577  0.00  0.00    -0.311 N 
ATOM     19  C   UNL     1      -3.046 -10.927  13.398  0.00  0.00    +0.244 C 
ATOM     33  H   UNL     1      -4.664 -10.276  14.551  0.00  0.00    +0.149 HD
BRANCH  19  22
ATOM      5  N   UNL     1      -4.578  -8.958   9.918  0.00  0.00    -0.263 NA
ATOM     22  C   UNL     1      -3.578 -10.244  12.190  0.00  0.00    +0.040 A 
ATOM     24  C   UNL     1      -4.930  -9.931  12.103  0.00  0.00    +0.033 A 
ATOM     25  C   UNL     1      -2.725  -9.914  11.143  0.00  0.00    +0.033 A 
ATOM     28  C   UNL     1      -5.376  -9.294  10.956  0.00  0.00    +0.111 A 
ATOM     29  C   UNL     1      -3.270  -9.278  10.039  0.00  0.00    +0.111 A 
ENDBRANCH  19  22
ENDBRANCH  13   3
ENDBRANCH   7  13
BRANCH   9  14
ATOM     14  C   UNL     1      -8.197 -11.333  15.531  0.00  0.00    +0.103 C 
BRANCH  14  18
ATOM      1  O   UNL     1     -10.413 -11.663  16.384  0.00  0.00    -0.276 OA
ATOM      4  N   UNL     1      -9.303  -9.744  17.066  0.00  0.00    -0.300 N 
ATOM     18  C   UNL     1      -9.409 -10.945  16.358  0.00  0.00    +0.216 C 
ATOM     21  C   UNL     1      -8.106  -8.912  17.019  0.00  0.00    +0.132 C 
BRANCH   4  20
ATOM     20  C   UNL     1     -10.382  -9.232  17.906  0.00  0.00    +0.142 C 
BRANCH  20  23
ATOM     23  C   UNL     1     -11.280  -8.291  17.157  0.00  0.00    -0.030 A 
ATOM     26  C   UNL     1     -12.586  -8.671  16.846  0.00  0.00    +0.005 A 
ATOM     27  C   UNL     1     -10.809  -7.036  16.771  0.00  0.00    +0.005 A 
ATOM     30  C   UNL     1     -13.420  -7.796  16.150  0.00  0.00    +0.000 A 
ATOM     31  C   UNL     1     -11.643  -6.161  16.075  0.00  0.00    +0.000 A 
ATOM     32  C   UNL     1     -12.949  -6.542  15.764  0.00  0.00    +0.000 A 
ENDBRANCH  20  23
ENDBRANCH   4  20
ENDBRANCH  14  18
ENDBRANCH   9  14
TORSDOF 8
ENDMDL
MODEL 8
REMARK VINA RESULT:      -5.7     14.961     18.561
REMARK  Name = 38027160
REMARK  12 active torsions:
REMARK  status: ('A' for Active; 'I' for Inactive)
REMARK    1  A    between atoms: N_3  and  C_13
REMARK    2  A    between atoms: N_4  and  C_20
REMARK    3  A    between atoms: N_4  and  C_21
REMARK    4  A    between atoms: C_6  and  C_10
REMARK    5  A    between atoms: C_7  and  C_13
REMARK    6  A    between atoms: C_9  and  C_14
REMARK    7  A    between atoms: C_10  and  C_15
REMARK    8  A    between atoms: C_10  and  C_16
REMARK    9  A    between atoms: C_11  and  C_17
REMARK   10  A    between atoms: C_14  and  C_18
REMARK   11  A    between atoms: C_19  and  C_22
REMARK   12  A    between atoms: C_20  and  C_23
REMARK                            x       y       z     vdW  Elec       q    Type
REMARK                         _______ _______ _______ _____ _____    ______ ____
ROOT
ATOM      6  C   UNL     1      11.955   6.609   1.364  0.00  0.00    +0.000 C 
ATOM      7  C   UNL     1      11.605   5.128   1.078  0.00  0.00    +0.032 C 
ATOM      8  C   UNL     1      13.372   6.932   0.868  0.00  0.00    +0.012 C 
ATOM      9  C   UNL     1      14.438   6.041   1.535  0.00  0.00    +0.023 C 
ATOM     11  C   UNL     1      14.035   4.581   1.530  0.00  0.00    -0.073 C 
ATOM     12  C   UNL     1      12.767   4.191   1.311  0.00  0.00    -0.022 C 
ATOM     17  C   UNL     1      15.134   3.575   1.739  0.00  0.00    +0.039 C 
ENDROOT
BRANCH   6  10
ATOM     10  C   UNL     1      10.949   7.566   0.715  0.00  0.00    -0.013 C 
ATOM     15  C   UNL     1      11.440   9.006   0.821  0.00  0.00    +0.007 C 
ATOM     16  C   UNL     1      10.711   7.181  -0.741  0.00  0.00    +0.007 C 
ENDBRANCH   6  10
BRANCH   7  13
ATOM     13  C   UNL     1      10.405   4.671   1.915  0.00  0.00    +0.112 C 
BRANCH  13   3
ATOM      2  O   UNL     1       9.267   6.586   3.725  0.00  0.00    -0.270 OA
ATOM      3  N   UNL     1      10.683   4.795   3.311  0.00  0.00    -0.311 N 
ATOM     19  C   UNL     1      10.084   5.759   4.121  0.00  0.00    +0.244 C 
ATOM     33  H   UNL     1      11.280   4.090   3.730  0.00  0.00    +0.149 HD
BRANCH  19  22
ATOM      5  N   UNL     1      11.282   5.804   8.231  0.00  0.00    -0.263 NA
ATOM     22  C   UNL     1      10.499   5.775   5.548  0.00  0.00    +0.040 A 
ATOM     24  C   UNL     1       9.759   5.080   6.498  0.00  0.00    +0.033 A 
ATOM     25  C   UNL     1      11.630   6.484   5.937  0.00  0.00    +0.033 A 
ATOM     28  C   UNL     1      10.189   5.127   7.815  0.00  0.00    +0.111 A 
ATOM     29  C   UNL     1      11.976   6.467   7.279  0.00  0.00    +0.111 A 
ENDBRANCH  19  22
ENDBRANCH  13   3
ENDBRANCH   7  13
BRANCH   9  14
ATOM     14  C   UNL     1      14.748   6.521   2.958  0.00  0.00    +0.103 C 
BRANCH  14  18
ATOM      1  O   UNL     1      16.421   7.912   1.950  0.00  0.00    -0.276 OA
ATOM      4  N   UNL     1      16.095   8.152   4.234  0.00  0.00    -0.300 N 
ATOM     18  C   UNL     1      15.829   7.586   2.983  0.00  0.00    +0.216 C 
ATOM     21  C   UNL     1      15.383   7.751   5.441  0.00  0.00    +0.132 C 
BRANCH   4  20
ATOM     20  C   UNL     1      17.106   9.188   4.426  0.00  0.00    +0.142 C 
BRANCH  20  23
ATOM     23  C   UNL     1      18.387   8.630   4.974  0.00  0.00    -0.030 A 
ATOM     26  C   UNL     1      18.752   8.889   6.296  0.00  0.00    +0.005 A 
ATOM     27  C   UNL     1      19.212   7.851   4.163  0.00  0.00    +0.005 A 
ATOM     30  C   UNL     1      19.942   8.370   6.806  0.00  0.00    +0.000 A 
ATOM     31  C   UNL     1      20.402   7.331   4.673  0.00  0.00    +0.000 A 
ATOM     32  C   UNL     1      20.767   7.591   5.994  0.00  0.00    +0.000 A 
ENDBRANCH  20  23
ENDBRANCH   4  20
ENDBRANCH  14  18
ENDBRANCH   9  14
TORSDOF 8
ENDMDL
MODEL 9
REMARK VINA RESULT:      -5.7      2.412      6.075
REMARK  Name = 38027160
REMARK  12 active torsions:
REMARK  status: ('A' for Active; 'I' for Inactive)
REMARK    1  A    between atoms: N_3  and  C_13
REMARK    2  A    between atoms: N_4  and  C_20
REMARK    3  A    between atoms: N_4  and  C_21
REMARK    4  A    between atoms: C_6  and  C_10
REMARK    5  A    between atoms: C_7  and  C_13
REMARK    6  A    between atoms: C_9  and  C_14
REMARK    7  A    between atoms: C_10  and  C_15
REMARK    8  A    between atoms: C_10  and  C_16
REMARK    9  A    between atoms: C_11  and  C_17
REMARK   10  A    between atoms: C_14  and  C_18
REMARK   11  A    between atoms: C_19  and  C_22
REMARK   12  A    between atoms: C_20  and  C_23
REMARK                            x       y       z     vdW  Elec       q    Type
REMARK                         _______ _______ _______ _____ _____    ______ ____
ROOT
ATOM      6  C   UNL     1      14.156   7.831  20.503  0.00  0.00    +0.000 C 
ATOM      7  C   UNL     1      12.687   7.510  20.135  0.00  0.00    +0.032 C 
ATOM      8  C   UNL     1      14.255   8.296  21.965  0.00  0.00    +0.012 C 
ATOM      9  C   UNL     1      13.399   9.548  22.235  0.00  0.00    +0.023 C 
ATOM     11  C   UNL     1      12.004   9.411  21.661  0.00  0.00    -0.073 C 
ATOM     12  C   UNL     1      11.701   8.486  20.733  0.00  0.00    -0.022 C 
ATOM     17  C   UNL     1      10.952  10.334  22.211  0.00  0.00    +0.039 C 
ENDROOT
BRANCH   6  10
ATOM     10  C   UNL     1      15.076   6.625  20.280  0.00  0.00    -0.013 C 
ATOM     15  C   UNL     1      16.091   6.926  19.183  0.00  0.00    +0.007 C 
ATOM     16  C   UNL     1      15.779   6.245  21.579  0.00  0.00    +0.007 C 
ENDBRANCH   6  10
BRANCH   7  13
ATOM     13  C   UNL     1      12.496   7.457  18.615  0.00  0.00    +0.112 C 
BRANCH  13   3
ATOM      2  O   UNL     1      14.215   7.738  16.333  0.00  0.00    -0.270 OA
ATOM      3  N   UNL     1      12.915   8.681  18.009  0.00  0.00    -0.311 N 
ATOM     19  C   UNL     1      13.756   8.728  16.897  0.00  0.00    +0.244 C 
ATOM     33  H   UNL     1      12.505   9.539  18.363  0.00  0.00    +0.149 HD
BRANCH  19  22
ATOM      5  N   UNL     1      14.807  12.625  15.468  0.00  0.00    -0.263 NA
ATOM     22  C   UNL     1      14.121  10.080  16.401  0.00  0.00    +0.040 A 
ATOM     24  C   UNL     1      14.560  10.249  15.092  0.00  0.00    +0.033 A 
ATOM     25  C   UNL     1      14.025  11.182  17.244  0.00  0.00    +0.033 A 
ATOM     28  C   UNL     1      14.888  11.530  14.679  0.00  0.00    +0.111 A 
ATOM     29  C   UNL     1      14.376  12.421  16.734  0.00  0.00    +0.111 A 
ENDBRANCH  19  22
ENDBRANCH  13   3
ENDBRANCH   7  13
BRANCH   9  14
ATOM     14  C   UNL     1      14.088  10.813  21.710  0.00  0.00    +0.103 C 
BRANCH  14  18
ATOM      1  O   UNL     1      15.508  11.218  23.598  0.00  0.00    -0.276 OA
ATOM      4  N   UNL     1      16.536  11.084  21.523  0.00  0.00    -0.300 N 
ATOM     18  C   UNL     1      15.429  11.057  22.377  0.00  0.00    +0.216 C 
ATOM     21  C   UNL     1      16.418  10.890  20.083  0.00  0.00    +0.132 C 
BRANCH   4  20
ATOM     20  C   UNL     1      17.895  11.308  22.010  0.00  0.00    +0.142 C 
BRANCH  20  23
ATOM     23  C   UNL     1      18.793  10.140  21.726  0.00  0.00    -0.030 A 
ATOM     26  C   UNL     1      20.110  10.355  21.317  0.00  0.00    +0.005 A 
ATOM     27  C   UNL     1      18.313   8.838  21.872  0.00  0.00    +0.005 A 
ATOM     30  C   UNL     1      20.946   9.270  21.053  0.00  0.00    +0.000 A 
ATOM     31  C   UNL     1      19.149   7.753  21.608  0.00  0.00    +0.000 A 
ATOM     32  C   UNL     1      20.465   7.969  21.199  0.00  0.00    +0.000 A 
ENDBRANCH  20  23
ENDBRANCH   4  20
ENDBRANCH  14  18
ENDBRANCH   9  14
TORSDOF 8
ENDMDL
MODEL 10
REMARK VINA RESULT:      -5.6     29.955     32.356
REMARK  Name = 38027160
REMARK  12 active torsions:
REMARK  status: ('A' for Active; 'I' for Inactive)
REMARK    1  A    between atoms: N_3  and  C_13
REMARK    2  A    between atoms: N_4  and  C_20
REMARK    3  A    between atoms: N_4  and  C_21
REMARK    4  A    between atoms: C_6  and  C_10
REMARK    5  A    between atoms: C_7  and  C_13
REMARK    6  A    between atoms: C_9  and  C_14
REMARK    7  A    between atoms: C_10  and  C_15
REMARK    8  A    between atoms: C_10  and  C_16
REMARK    9  A    between atoms: C_11  and  C_17
REMARK   10  A    between atoms: C_14  and  C_18
REMARK   11  A    between atoms: C_19  and  C_22
REMARK   12  A    between atoms: C_20  and  C_23
REMARK                            x       y       z     vdW  Elec       q    Type
REMARK                         _______ _______ _______ _____ _____    ______ ____
ROOT
ATOM      6  C   UNL     1     -14.723   6.276  32.694  0.00  0.00    +0.000 C 
ATOM      7  C   UNL     1     -15.410   5.303  33.684  0.00  0.00    +0.032 C 
ATOM      8  C   UNL     1     -15.775   7.087  31.921  0.00  0.00    +0.012 C 
ATOM      9  C   UNL     1     -16.739   6.183  31.129  0.00  0.00    +0.023 C 
ATOM     11  C   UNL     1     -17.254   5.034  31.971  0.00  0.00    -0.073 C 
ATOM     12  C   UNL     1     -16.655   4.663  33.117  0.00  0.00    -0.022 C 
ATOM     17  C   UNL     1     -18.501   4.347  31.488  0.00  0.00    +0.039 C 
ENDROOT
BRANCH   6  10
ATOM     10  C   UNL     1     -13.758   7.229  33.408  0.00  0.00    -0.013 C 
ATOM     15  C   UNL     1     -12.643   7.664  32.463  0.00  0.00    +0.007 C 
ATOM     16  C   UNL     1     -14.510   8.439  33.952  0.00  0.00    +0.007 C 
ENDBRANCH   6  10
BRANCH   7  13
ATOM     13  C   UNL     1     -14.439   4.211  34.148  0.00  0.00    +0.112 C 
BRANCH  13   3
ATOM      2  O   UNL     1     -12.932   3.571  31.791  0.00  0.00    -0.270 OA
ATOM      3  N   UNL     1     -14.573   3.038  33.342  0.00  0.00    -0.311 N 
ATOM     19  C   UNL     1     -13.797   2.805  32.207  0.00  0.00    +0.244 C 
ATOM     33  H   UNL     1     -15.205   2.317  33.674  0.00  0.00    +0.149 HD
BRANCH  19  22
ATOM      5  N   UNL     1     -14.601  -0.811  30.061  0.00  0.00    -0.263 NA
ATOM     22  C   UNL     1     -14.076   1.550  31.462  0.00  0.00    +0.040 A 
ATOM     24  C   UNL     1     -13.459   1.312  30.239  0.00  0.00    +0.033 A 
ATOM     25  C   UNL     1     -14.955   0.609  31.985  0.00  0.00    +0.033 A 
ATOM     28  C   UNL     1     -13.753   0.127  29.584  0.00  0.00    +0.111 A 
ATOM     29  C   UNL     1     -15.182  -0.545  31.253  0.00  0.00    +0.111 A 
ENDBRANCH  19  22
ENDBRANCH  13   3
ENDBRANCH   7  13
BRANCH   9  14
ATOM     14  C   UNL     1     -16.082   5.670  29.841  0.00  0.00    +0.103 C 
BRANCH  14  18
ATOM      1  O   UNL     1     -17.889   6.409  28.450  0.00  0.00    -0.276 OA
ATOM      4  N   UNL     1     -17.016   4.306  28.005  0.00  0.00    -0.300 N 
ATOM     18  C   UNL     1     -17.081   5.512  28.710  0.00  0.00    +0.216 C 
ATOM     21  C   UNL     1     -16.052   3.261  28.331  0.00  0.00    +0.132 C 
BRANCH   4  20
ATOM     20  C   UNL     1     -17.908   4.001  26.890  0.00  0.00    +0.142 C 
BRANCH  20  23
ATOM     23  C   UNL     1     -17.238   4.203  25.562  0.00  0.00    -0.030 A 
ATOM     26  C   UNL     1     -16.701   3.111  24.879  0.00  0.00    +0.005 A 
ATOM     27  C   UNL     1     -17.150   5.481  25.012  0.00  0.00    +0.005 A 
ATOM     30  C   UNL     1     -16.078   3.298  23.644  0.00  0.00    +0.000 A 
ATOM     31  C   UNL     1     -16.527   5.668  23.777  0.00  0.00    +0.000 A 
ATOM     32  C   UNL     1     -15.991   4.577  23.094  0.00  0.00    +0.000 A 
ENDBRANCH  20  23
ENDBRANCH   4  20
ENDBRANCH  14  18
ENDBRANCH   9  14
TORSDOF 8
ENDMDL
