MODEL 1
REMARK VINA RESULT:      -6.6      0.000      0.000
REMARK  Name = 26743012
REMARK  10 active torsions:
REMARK  status: ('A' for Active; 'I' for Inactive)
REMARK    1  A    between atoms: O_3  and  C_21
REMARK    2  A    between atoms: O_3  and  C_27
REMARK    3  A    between atoms: N_5  and  C_17
REMARK    4  A    between atoms: N_5  and  C_19
REMARK    5  A    between atoms: C_7  and  C_11
REMARK    6  A    between atoms: C_8  and  C_13
REMARK    7  A    between atoms: C_11  and  C_15
REMARK    8  A    between atoms: C_13  and  C_14
REMARK    9  A    between atoms: C_17  and  C_20
REMARK   10  A    between atoms: C_18  and  C_21
REMARK                            x       y       z     vdW  Elec       q    Type
REMARK                         _______ _______ _______ _____ _____    ______ ____
ROOT
ATOM      4  N   UNL     1      11.788   6.061  20.699  0.00  0.00    -0.316 NA
ATOM      7  C   UNL     1      11.976   8.895  19.900  0.00  0.00    +0.004 C 
ATOM      8  C   UNL     1      12.825   7.783  19.240  0.00  0.00    +0.012 C 
ATOM      9  C   UNL     1      10.703   8.270  20.493  0.00  0.00    +0.019 C 
ATOM     10  C   UNL     1      13.052   6.599  20.196  0.00  0.00    +0.085 C 
ATOM     12  C   UNL     1      11.005   7.077  21.399  0.00  0.00    +0.081 C 
ATOM     28  H   UNL     1      11.980   5.286  21.334  0.00  0.00    +0.122 HD
ENDROOT
BRANCH   7  11
ATOM     11  C   UNL     1      12.730   9.708  20.960  0.00  0.00    +0.100 C 
BRANCH  11  15
ATOM      1  O   UNL     1      12.583  11.967  20.172  0.00  0.00    -0.276 OA
ATOM      5  N   UNL     1      11.432  11.464  22.123  0.00  0.00    -0.300 N 
ATOM     15  C   UNL     1      12.252  11.149  21.035  0.00  0.00    +0.216 C 
ATOM     19  C   UNL     1      11.055  10.480  23.130  0.00  0.00    +0.132 C 
BRANCH   5  17
ATOM     17  C   UNL     1      10.892  12.806  22.333  0.00  0.00    +0.142 C 
BRANCH  17  20
ATOM     20  C   UNL     1      11.300  13.373  23.662  0.00  0.00    -0.030 A 
ATOM     22  C   UNL     1      10.334  13.646  24.630  0.00  0.00    +0.005 A 
ATOM     23  C   UNL     1      12.646  13.627  23.929  0.00  0.00    +0.005 A 
ATOM     24  C   UNL     1      10.713  14.173  25.866  0.00  0.00    +0.000 A 
ATOM     25  C   UNL     1      13.025  14.154  25.164  0.00  0.00    +0.000 A 
ATOM     26  C   UNL     1      12.058  14.427  26.132  0.00  0.00    +0.000 A 
ENDBRANCH  17  20
ENDBRANCH   5  17
ENDBRANCH  11  15
ENDBRANCH   7  11
BRANCH   8  13
ATOM     13  C   UNL     1      14.157   8.291  18.689  0.00  0.00    +0.064 C 
BRANCH  13  14
ATOM      2  O   UNL     1      13.548   9.067  15.227  0.00  0.00    -0.357 OA
ATOM      6  N   UNL     1      13.611   8.182  16.296  0.00  0.00    -0.083 NA
ATOM     14  C   UNL     1      13.985   8.927  17.340  0.00  0.00    +0.084 A 
ATOM     16  C   UNL     1      14.171  10.277  16.994  0.00  0.00    +0.073 A 
ATOM     18  C   UNL     1      13.884  10.311  15.655  0.00  0.00    +0.163 A 
BRANCH  18  21
ATOM     21  C   UNL     1      13.869  11.378  14.646  0.00  0.00    +0.236 C 
BRANCH  21   3
ATOM      3  O   UNL     1      12.689  11.284  13.843  0.00  0.00    -0.375 OA
ATOM     27  C   UNL     1      12.498  12.460  13.073  0.00  0.00    +0.194 C 
ENDBRANCH  21   3
ENDBRANCH  18  21
ENDBRANCH  13  14
ENDBRANCH   8  13
TORSDOF 8
ENDMDL
MODEL 2
REMARK VINA RESULT:      -6.1      3.993      6.298
REMARK  Name = 26743012
REMARK  10 active torsions:
REMARK  status: ('A' for Active; 'I' for Inactive)
REMARK    1  A    between atoms: O_3  and  C_21
REMARK    2  A    between atoms: O_3  and  C_27
REMARK    3  A    between atoms: N_5  and  C_17
REMARK    4  A    between atoms: N_5  and  C_19
REMARK    5  A    between atoms: C_7  and  C_11
REMARK    6  A    between atoms: C_8  and  C_13
REMARK    7  A    between atoms: C_11  and  C_15
REMARK    8  A    between atoms: C_13  and  C_14
REMARK    9  A    between atoms: C_17  and  C_20
REMARK   10  A    between atoms: C_18  and  C_21
REMARK                            x       y       z     vdW  Elec       q    Type
REMARK                         _______ _______ _______ _____ _____    ______ ____
ROOT
ATOM      4  N   UNL     1      10.952   7.014  20.929  0.00  0.00    -0.316 NA
ATOM      7  C   UNL     1      13.348   8.730  21.078  0.00  0.00    +0.004 C 
ATOM      8  C   UNL     1      12.924   7.997  19.784  0.00  0.00    +0.012 C 
ATOM      9  C   UNL     1      12.111   8.931  21.969  0.00  0.00    +0.019 C 
ATOM     10  C   UNL     1      12.115   6.725  20.089  0.00  0.00    +0.085 C 
ATOM     12  C   UNL     1      11.337   7.633  22.195  0.00  0.00    +0.081 C 
ATOM     28  H   UNL     1      10.448   6.147  21.116  0.00  0.00    +0.122 HD
ENDROOT
BRANCH   7  11
ATOM     11  C   UNL     1      14.470   8.027  21.853  0.00  0.00    +0.100 C 
BRANCH  11  15
ATOM      1  O   UNL     1      15.905   9.946  21.899  0.00  0.00    -0.276 OA
ATOM      5  N   UNL     1      16.886   7.921  21.334  0.00  0.00    -0.300 N 
ATOM     15  C   UNL     1      15.808   8.732  21.702  0.00  0.00    +0.216 C 
ATOM     19  C   UNL     1      16.747   6.488  21.107  0.00  0.00    +0.132 C 
BRANCH   5  17
ATOM     17  C   UNL     1      18.236   8.451  21.149  0.00  0.00    +0.142 C 
BRANCH  17  20
ATOM     20  C   UNL     1      19.287   7.464  21.566  0.00  0.00    -0.030 A 
ATOM     22  C   UNL     1      19.781   6.539  20.646  0.00  0.00    +0.005 A 
ATOM     23  C   UNL     1      19.770   7.469  22.876  0.00  0.00    +0.005 A 
ATOM     24  C   UNL     1      20.758   5.621  21.034  0.00  0.00    +0.000 A 
ATOM     25  C   UNL     1      20.746   6.551  23.264  0.00  0.00    +0.000 A 
ATOM     26  C   UNL     1      21.240   5.627  22.342  0.00  0.00    +0.000 A 
ENDBRANCH  17  20
ENDBRANCH   5  17
ENDBRANCH  11  15
ENDBRANCH   7  11
BRANCH   8  13
ATOM     13  C   UNL     1      14.101   7.676  18.863  0.00  0.00    +0.064 C 
BRANCH  13  14
ATOM      2  O   UNL     1      13.612   8.772  15.469  0.00  0.00    -0.357 OA
ATOM      6  N   UNL     1      13.582   7.804  16.464  0.00  0.00    -0.083 NA
ATOM     14  C   UNL     1      14.005   8.429  17.567  0.00  0.00    +0.084 A 
ATOM     16  C   UNL     1      14.313   9.780  17.330  0.00  0.00    +0.073 A 
ATOM     18  C   UNL     1      14.049   9.944  15.997  0.00  0.00    +0.163 A 
BRANCH  18  21
ATOM     21  C   UNL     1      14.141  11.084  15.075  0.00  0.00    +0.236 C 
BRANCH  21   3
ATOM      3  O   UNL     1      13.001  11.119  14.214  0.00  0.00    -0.375 OA
ATOM     27  C   UNL     1      12.983  12.303  13.433  0.00  0.00    +0.194 C 
ENDBRANCH  21   3
ENDBRANCH  18  21
ENDBRANCH  13  14
ENDBRANCH   8  13
TORSDOF 8
ENDMDL
MODEL 3
REMARK VINA RESULT:      -5.7      2.743      7.922
REMARK  Name = 26743012
REMARK  10 active torsions:
REMARK  status: ('A' for Active; 'I' for Inactive)
REMARK    1  A    between atoms: O_3  and  C_21
REMARK    2  A    between atoms: O_3  and  C_27
REMARK    3  A    between atoms: N_5  and  C_17
REMARK    4  A    between atoms: N_5  and  C_19
REMARK    5  A    between atoms: C_7  and  C_11
REMARK    6  A    between atoms: C_8  and  C_13
REMARK    7  A    between atoms: C_11  and  C_15
REMARK    8  A    between atoms: C_13  and  C_14
REMARK    9  A    between atoms: C_17  and  C_20
REMARK   10  A    between atoms: C_18  and  C_21
REMARK                            x       y       z     vdW  Elec       q    Type
REMARK                         _______ _______ _______ _____ _____    ______ ____
ROOT
ATOM      4  N   UNL     1      13.961   6.266  20.822  0.00  0.00    -0.316 NA
ATOM      7  C   UNL     1      14.347   9.061  19.960  0.00  0.00    +0.004 C 
ATOM      8  C   UNL     1      13.085   8.587  20.719  0.00  0.00    +0.012 C 
ATOM      9  C   UNL     1      15.512   8.109  20.280  0.00  0.00    +0.019 C 
ATOM     10  C   UNL     1      12.804   7.094  20.479  0.00  0.00    +0.085 C 
ATOM     12  C   UNL     1      15.147   6.643  20.056  0.00  0.00    +0.081 C 
ATOM     28  H   UNL     1      13.740   5.286  20.641  0.00  0.00    +0.122 HD
ENDROOT
BRANCH   7  11
ATOM     11  C   UNL     1      14.150   9.192  18.444  0.00  0.00    +0.100 C 
BRANCH  11  15
ATOM      1  O   UNL     1      14.623  11.525  18.723  0.00  0.00    -0.276 OA
ATOM      5  N   UNL     1      14.598  10.718  16.549  0.00  0.00    -0.300 N 
ATOM     15  C   UNL     1      14.478  10.587  17.936  0.00  0.00    +0.216 C 
ATOM     19  C   UNL     1      14.422   9.594  15.638  0.00  0.00    +0.132 C 
BRANCH   5  17
ATOM     17  C   UNL     1      14.910  11.994  15.908  0.00  0.00    +0.142 C 
BRANCH  17  20
ATOM     20  C   UNL     1      16.388  12.186  15.731  0.00  0.00    -0.030 A 
ATOM     22  C   UNL     1      17.134  12.816  16.726  0.00  0.00    +0.005 A 
ATOM     23  C   UNL     1      17.017  11.735  14.569  0.00  0.00    +0.005 A 
ATOM     24  C   UNL     1      18.508  12.995  16.562  0.00  0.00    +0.000 A 
ATOM     25  C   UNL     1      18.390  11.914  14.404  0.00  0.00    +0.000 A 
ATOM     26  C   UNL     1      19.136  12.544  15.401  0.00  0.00    +0.000 A 
ENDBRANCH  17  20
ENDBRANCH   5  17
ENDBRANCH  11  15
ENDBRANCH   7  11
BRANCH   8  13
ATOM     13  C   UNL     1      11.845   9.423  20.402  0.00  0.00    +0.064 C 
BRANCH  13  14
ATOM      2  O   UNL     1      10.666  10.710  23.551  0.00  0.00    -0.357 OA
ATOM      6  N   UNL     1      10.939   9.668  22.673  0.00  0.00    -0.083 NA
ATOM     14  C   UNL     1      11.432  10.258  21.580  0.00  0.00    +0.084 A 
ATOM     16  C   UNL     1      11.493  11.656  21.709  0.00  0.00    +0.073 A 
ATOM     18  C   UNL     1      10.999  11.888  22.965  0.00  0.00    +0.163 A 
BRANCH  18  21
ATOM     21  C   UNL     1      10.774  13.102  23.761  0.00  0.00    +0.236 C 
BRANCH  21   3
ATOM      3  O   UNL     1      10.411  12.757  25.100  0.00  0.00    -0.375 OA
ATOM     27  C   UNL     1      10.527  13.874  25.967  0.00  0.00    +0.194 C 
ENDBRANCH  21   3
ENDBRANCH  18  21
ENDBRANCH  13  14
ENDBRANCH   8  13
TORSDOF 8
ENDMDL
MODEL 4
REMARK VINA RESULT:      -5.7     26.552     29.306
REMARK  Name = 26743012
REMARK  10 active torsions:
REMARK  status: ('A' for Active; 'I' for Inactive)
REMARK    1  A    between atoms: O_3  and  C_21
REMARK    2  A    between atoms: O_3  and  C_27
REMARK    3  A    between atoms: N_5  and  C_17
REMARK    4  A    between atoms: N_5  and  C_19
REMARK    5  A    between atoms: C_7  and  C_11
REMARK    6  A    between atoms: C_8  and  C_13
REMARK    7  A    between atoms: C_11  and  C_15
REMARK    8  A    between atoms: C_13  and  C_14
REMARK    9  A    between atoms: C_17  and  C_20
REMARK   10  A    between atoms: C_18  and  C_21
REMARK                            x       y       z     vdW  Elec       q    Type
REMARK                         _______ _______ _______ _____ _____    ______ ____
ROOT
ATOM      4  N   UNL     1      -7.186  -9.494  15.370  0.00  0.00    -0.316 NA
ATOM      7  C   UNL     1      -6.046 -10.583  17.864  0.00  0.00    +0.004 C 
ATOM      8  C   UNL     1      -5.191 -10.309  16.604  0.00  0.00    +0.012 C 
ATOM      9  C   UNL     1      -7.293  -9.683  17.830  0.00  0.00    +0.019 C 
ATOM     10  C   UNL     1      -6.031 -10.391  15.318  0.00  0.00    +0.085 C 
ATOM     12  C   UNL     1      -8.053  -9.788  16.509  0.00  0.00    +0.081 C 
ATOM     28  H   UNL     1      -7.721  -9.583  14.506  0.00  0.00    +0.122 HD
ENDROOT
BRANCH   7  11
ATOM     11  C   UNL     1      -6.440 -12.055  18.042  0.00  0.00    +0.100 C 
BRANCH  11  15
ATOM      1  O   UNL     1      -6.888 -11.938  20.394  0.00  0.00    -0.276 OA
ATOM      5  N   UNL     1      -8.533 -12.890  19.063  0.00  0.00    -0.300 N 
ATOM     15  C   UNL     1      -7.292 -12.281  19.280  0.00  0.00    +0.216 C 
ATOM     19  C   UNL     1      -8.989 -13.287  17.737  0.00  0.00    +0.132 C 
BRANCH   5  17
ATOM     17  C   UNL     1      -9.466 -13.175  20.152  0.00  0.00    +0.142 C 
BRANCH  17  20
ATOM     20  C   UNL     1     -10.561 -12.151  20.233  0.00  0.00    -0.030 A 
ATOM     22  C   UNL     1     -11.880 -12.556  20.440  0.00  0.00    +0.005 A 
ATOM     23  C   UNL     1     -10.261 -10.795  20.099  0.00  0.00    +0.005 A 
ATOM     24  C   UNL     1     -12.898 -11.605  20.515  0.00  0.00    +0.000 A 
ATOM     25  C   UNL     1     -11.279  -9.845  20.173  0.00  0.00    +0.000 A 
ATOM     26  C   UNL     1     -12.598 -10.250  20.381  0.00  0.00    +0.000 A 
ENDBRANCH  17  20
ENDBRANCH   5  17
ENDBRANCH  11  15
ENDBRANCH   7  11
BRANCH   8  13
ATOM     13  C   UNL     1      -3.965 -11.215  16.503  0.00  0.00    +0.064 C 
BRANCH  13  14
ATOM      2  O   UNL     1      -1.328  -9.945  14.407  0.00  0.00    -0.357 OA
ATOM      6  N   UNL     1      -1.900 -10.193  15.648  0.00  0.00    -0.083 NA
ATOM     14  C   UNL     1      -3.063 -10.794  15.379  0.00  0.00    +0.084 A 
ATOM     16  C   UNL     1      -3.276 -10.950  13.998  0.00  0.00    +0.073 A 
ATOM     18  C   UNL     1      -2.157 -10.400  13.433  0.00  0.00    +0.163 A 
BRANCH  18  21
ATOM     21  C   UNL     1      -1.703 -10.217  12.048  0.00  0.00    +0.236 C 
BRANCH  21   3
ATOM      3  O   UNL     1      -2.699 -10.682  11.135  0.00  0.00    -0.375 OA
ATOM     27  C   UNL     1      -3.235  -9.613  10.371  0.00  0.00    +0.194 C 
ENDBRANCH  21   3
ENDBRANCH  18  21
ENDBRANCH  13  14
ENDBRANCH   8  13
TORSDOF 8
ENDMDL
MODEL 5
REMARK VINA RESULT:      -5.7     14.997     19.892
REMARK  Name = 26743012
REMARK  10 active torsions:
REMARK  status: ('A' for Active; 'I' for Inactive)
REMARK    1  A    between atoms: O_3  and  C_21
REMARK    2  A    between atoms: O_3  and  C_27
REMARK    3  A    between atoms: N_5  and  C_17
REMARK    4  A    between atoms: N_5  and  C_19
REMARK    5  A    between atoms: C_7  and  C_11
REMARK    6  A    between atoms: C_8  and  C_13
REMARK    7  A    between atoms: C_11  and  C_15
REMARK    8  A    between atoms: C_13  and  C_14
REMARK    9  A    between atoms: C_17  and  C_20
REMARK   10  A    between atoms: C_18  and  C_21
REMARK                            x       y       z     vdW  Elec       q    Type
REMARK                         _______ _______ _______ _____ _____    ______ ____
ROOT
ATOM      4  N   UNL     1      15.091   4.365  -0.122  0.00  0.00    -0.316 NA
ATOM      7  C   UNL     1      12.582   4.005   1.389  0.00  0.00    +0.004 C 
ATOM      8  C   UNL     1      12.609   4.431  -0.098  0.00  0.00    +0.012 C 
ATOM      9  C   UNL     1      13.879   3.246   1.717  0.00  0.00    +0.019 C 
ATOM     10  C   UNL     1      13.912   5.165  -0.456  0.00  0.00    +0.085 C 
ATOM     12  C   UNL     1      15.129   4.019   1.297  0.00  0.00    +0.081 C 
ATOM     28  H   UNL     1      15.933   4.887  -0.364  0.00  0.00    +0.122 HD
ENDROOT
BRANCH   7  11
ATOM     11  C   UNL     1      12.367   5.166   2.367  0.00  0.00    +0.100 C 
BRANCH  11  15
ATOM      1  O   UNL     1      10.123   4.352   2.588  0.00  0.00    -0.276 OA
ATOM      5  N   UNL     1      10.662   6.266   3.783  0.00  0.00    -0.300 N 
ATOM     15  C   UNL     1      10.949   5.210   2.912  0.00  0.00    +0.216 C 
ATOM     19  C   UNL     1      11.655   7.268   4.152  0.00  0.00    +0.132 C 
BRANCH   5  17
ATOM     17  C   UNL     1       9.345   6.444   4.390  0.00  0.00    +0.142 C 
BRANCH  17  20
ATOM     20  C   UNL     1       9.375   6.215   5.873  0.00  0.00    -0.030 A 
ATOM     22  C   UNL     1       8.983   7.231   6.744  0.00  0.00    +0.005 A 
ATOM     23  C   UNL     1       9.797   4.986   6.381  0.00  0.00    +0.005 A 
ATOM     24  C   UNL     1       9.012   7.018   8.123  0.00  0.00    +0.000 A 
ATOM     25  C   UNL     1       9.827   4.773   7.759  0.00  0.00    +0.000 A 
ATOM     26  C   UNL     1       9.434   5.790   8.630  0.00  0.00    +0.000 A 
ENDBRANCH  17  20
ENDBRANCH   5  17
ENDBRANCH  11  15
ENDBRANCH   7  11
BRANCH   8  13
ATOM     13  C   UNL     1      11.394   5.266  -0.505  0.00  0.00    +0.064 C 
BRANCH  13  14
ATOM      2  O   UNL     1       9.004   4.264  -3.002  0.00  0.00    -0.357 OA
ATOM      6  N   UNL     1       9.425   5.084  -1.963  0.00  0.00    -0.083 NA
ATOM     14  C   UNL     1      10.626   4.611  -1.616  0.00  0.00    +0.084 A 
ATOM     16  C   UNL     1      11.010   3.504  -2.393  0.00  0.00    +0.073 A 
ATOM     18  C   UNL     1       9.955   3.327  -3.249  0.00  0.00    +0.163 A 
BRANCH  18  21
ATOM     21  C   UNL     1       9.670   2.370  -4.326  0.00  0.00    +0.236 C 
BRANCH  21   3
ATOM      3  O   UNL     1      10.346   2.758  -5.524  0.00  0.00    -0.375 OA
ATOM     27  C   UNL     1       9.452   3.363  -6.445  0.00  0.00    +0.194 C 
ENDBRANCH  21   3
ENDBRANCH  18  21
ENDBRANCH  13  14
ENDBRANCH   8  13
TORSDOF 8
ENDMDL
MODEL 6
REMARK VINA RESULT:      -5.6     33.353     35.076
REMARK  Name = 26743012
REMARK  10 active torsions:
REMARK  status: ('A' for Active; 'I' for Inactive)
REMARK    1  A    between atoms: O_3  and  C_21
REMARK    2  A    between atoms: O_3  and  C_27
REMARK    3  A    between atoms: N_5  and  C_17
REMARK    4  A    between atoms: N_5  and  C_19
REMARK    5  A    between atoms: C_7  and  C_11
REMARK    6  A    between atoms: C_8  and  C_13
REMARK    7  A    between atoms: C_11  and  C_15
REMARK    8  A    between atoms: C_13  and  C_14
REMARK    9  A    between atoms: C_17  and  C_20
REMARK   10  A    between atoms: C_18  and  C_21
REMARK                            x       y       z     vdW  Elec       q    Type
REMARK                         _______ _______ _______ _____ _____    ______ ____
ROOT
ATOM      4  N   UNL     1      -4.693 -13.943  -2.127  0.00  0.00    -0.316 NA
ATOM      7  C   UNL     1      -2.121 -13.495  -0.753  0.00  0.00    +0.004 C 
ATOM      8  C   UNL     1      -2.216 -13.827  -2.261  0.00  0.00    +0.012 C 
ATOM      9  C   UNL     1      -3.443 -12.857  -0.294  0.00  0.00    +0.019 C 
ATOM     10  C   UNL     1      -3.486 -14.631  -2.586  0.00  0.00    +0.085 C 
ATOM     12  C   UNL     1      -4.661 -13.691  -0.688  0.00  0.00    +0.081 C 
ATOM     28  H   UNL     1      -5.511 -14.509  -2.352  0.00  0.00    +0.122 HD
ENDROOT
BRANCH   7  11
ATOM     11  C   UNL     1      -1.761 -14.698   0.129  0.00  0.00    +0.100 C 
BRANCH  11  15
ATOM      1  O   UNL     1      -0.730 -13.418   1.873  0.00  0.00    -0.276 OA
ATOM      5  N   UNL     1       0.455 -15.248   1.081  0.00  0.00    -0.300 N 
ATOM     15  C   UNL     1      -0.644 -14.383   1.110  0.00  0.00    +0.216 C 
ATOM     19  C   UNL     1       0.535 -16.383   0.170  0.00  0.00    +0.132 C 
BRANCH   5  17
ATOM     17  C   UNL     1       1.608 -15.078   1.963  0.00  0.00    +0.142 C 
BRANCH  17  20
ATOM     20  C   UNL     1       2.880 -14.879   1.191  0.00  0.00    -0.030 A 
ATOM     22  C   UNL     1       3.986 -15.689   1.447  0.00  0.00    +0.005 A 
ATOM     23  C   UNL     1       2.957 -13.881   0.219  0.00  0.00    +0.005 A 
ATOM     24  C   UNL     1       5.169 -15.504   0.729  0.00  0.00    +0.000 A 
ATOM     25  C   UNL     1       4.140 -13.694  -0.497  0.00  0.00    +0.000 A 
ATOM     26  C   UNL     1       5.245 -14.506  -0.242  0.00  0.00    +0.000 A 
ENDBRANCH  17  20
ENDBRANCH   5  17
ENDBRANCH  11  15
ENDBRANCH   7  11
BRANCH   8  13
ATOM     13  C   UNL     1      -0.976 -14.542  -2.797  0.00  0.00    +0.064 C 
BRANCH  13  14
ATOM      2  O   UNL     1       1.697 -12.302  -3.690  0.00  0.00    -0.357 OA
ATOM      6  N   UNL     1       1.059 -13.165  -2.808  0.00  0.00    -0.083 NA
ATOM     14  C   UNL     1      -0.032 -13.580  -3.459  0.00  0.00    +0.084 A 
ATOM     16  C   UNL     1      -0.134 -13.018  -4.743  0.00  0.00    +0.073 A 
ATOM     18  C   UNL     1       0.977 -12.223  -4.838  0.00  0.00    +0.163 A 
BRANCH  18  21
ATOM     21  C   UNL     1       1.513 -11.347  -5.889  0.00  0.00    +0.236 C 
BRANCH  21   3
ATOM      3  O   UNL     1       2.807 -11.797  -6.297  0.00  0.00    -0.375 OA
ATOM     27  C   UNL     1       2.712 -12.921  -7.157  0.00  0.00    +0.194 C 
ENDBRANCH  21   3
ENDBRANCH  18  21
ENDBRANCH  13  14
ENDBRANCH   8  13
TORSDOF 8
ENDMDL
MODEL 7
REMARK VINA RESULT:      -5.5     26.910     28.525
REMARK  Name = 26743012
REMARK  10 active torsions:
REMARK  status: ('A' for Active; 'I' for Inactive)
REMARK    1  A    between atoms: O_3  and  C_21
REMARK    2  A    between atoms: O_3  and  C_27
REMARK    3  A    between atoms: N_5  and  C_17
REMARK    4  A    between atoms: N_5  and  C_19
REMARK    5  A    between atoms: C_7  and  C_11
REMARK    6  A    between atoms: C_8  and  C_13
REMARK    7  A    between atoms: C_11  and  C_15
REMARK    8  A    between atoms: C_13  and  C_14
REMARK    9  A    between atoms: C_17  and  C_20
REMARK   10  A    between atoms: C_18  and  C_21
REMARK                            x       y       z     vdW  Elec       q    Type
REMARK                         _______ _______ _______ _____ _____    ______ ____
ROOT
ATOM      4  N   UNL     1      -3.081 -14.638  14.222  0.00  0.00    -0.316 NA
ATOM      7  C   UNL     1      -4.207 -11.978  14.825  0.00  0.00    +0.004 C 
ATOM      8  C   UNL     1      -3.079 -12.193  13.787  0.00  0.00    +0.012 C 
ATOM      9  C   UNL     1      -5.004 -13.284  14.978  0.00  0.00    +0.019 C 
ATOM     10  C   UNL     1      -2.244 -13.444  14.107  0.00  0.00    +0.085 C 
ATOM     12  C   UNL     1      -4.105 -14.488  15.254  0.00  0.00    +0.081 C 
ATOM     28  H   UNL     1      -2.495 -15.443  14.442  0.00  0.00    +0.122 HD
ENDROOT
BRANCH   7  11
ATOM     11  C   UNL     1      -3.712 -11.478  16.188  0.00  0.00    +0.100 C 
BRANCH  11  15
ATOM      1  O   UNL     1      -5.513  -9.910  16.400  0.00  0.00    -0.276 OA
ATOM      5  N   UNL     1      -4.905 -11.067  18.316  0.00  0.00    -0.300 N 
ATOM     15  C   UNL     1      -4.793 -10.740  16.961  0.00  0.00    +0.216 C 
ATOM     19  C   UNL     1      -4.042 -12.052  18.957  0.00  0.00    +0.132 C 
BRANCH   5  17
ATOM     17  C   UNL     1      -5.895 -10.445  19.193  0.00  0.00    +0.142 C 
BRANCH  17  20
ATOM     20  C   UNL     1      -7.219 -11.151  19.133  0.00  0.00    -0.030 A 
ATOM     22  C   UNL     1      -7.379 -12.387  19.759  0.00  0.00    +0.005 A 
ATOM     23  C   UNL     1      -8.289 -10.572  18.450  0.00  0.00    +0.005 A 
ATOM     24  C   UNL     1      -8.609 -13.044  19.704  0.00  0.00    +0.000 A 
ATOM     25  C   UNL     1      -9.518 -11.230  18.393  0.00  0.00    +0.000 A 
ATOM     26  C   UNL     1      -9.677 -12.465  19.021  0.00  0.00    +0.000 A 
ENDBRANCH  17  20
ENDBRANCH   5  17
ENDBRANCH  11  15
ENDBRANCH   7  11
BRANCH   8  13
ATOM     13  C   UNL     1      -2.175 -10.972  13.622  0.00  0.00    +0.064 C 
BRANCH  13  14
ATOM      2  O   UNL     1      -1.964  -9.171  10.512  0.00  0.00    -0.357 OA
ATOM      6  N   UNL     1      -1.402  -9.699  11.668  0.00  0.00    -0.083 NA
ATOM     14  C   UNL     1      -2.418 -10.284  12.310  0.00  0.00    +0.084 A 
ATOM     16  C   UNL     1      -3.632 -10.159  11.614  0.00  0.00    +0.073 A 
ATOM     18  C   UNL     1      -3.292  -9.451  10.492  0.00  0.00    +0.163 A 
BRANCH  18  21
ATOM     21  C   UNL     1      -4.047  -8.963   9.330  0.00  0.00    +0.236 C 
BRANCH  21   3
ATOM      3  O   UNL     1      -4.444 -10.057   8.502  0.00  0.00    -0.375 OA
ATOM     27  C   UNL     1      -5.856 -10.123   8.380  0.00  0.00    +0.194 C 
ENDBRANCH  21   3
ENDBRANCH  18  21
ENDBRANCH  13  14
ENDBRANCH   8  13
TORSDOF 8
ENDMDL
MODEL 8
REMARK VINA RESULT:      -5.5     27.421     29.960
REMARK  Name = 26743012
REMARK  10 active torsions:
REMARK  status: ('A' for Active; 'I' for Inactive)
REMARK    1  A    between atoms: O_3  and  C_21
REMARK    2  A    between atoms: O_3  and  C_27
REMARK    3  A    between atoms: N_5  and  C_17
REMARK    4  A    between atoms: N_5  and  C_19
REMARK    5  A    between atoms: C_7  and  C_11
REMARK    6  A    between atoms: C_8  and  C_13
REMARK    7  A    between atoms: C_11  and  C_15
REMARK    8  A    between atoms: C_13  and  C_14
REMARK    9  A    between atoms: C_17  and  C_20
REMARK   10  A    between atoms: C_18  and  C_21
REMARK                            x       y       z     vdW  Elec       q    Type
REMARK                         _______ _______ _______ _____ _____    ______ ____
ROOT
ATOM      4  N   UNL     1      -8.338  -9.676   6.204  0.00  0.00    -0.316 NA
ATOM      7  C   UNL     1      -8.224  -7.121   7.673  0.00  0.00    +0.004 C 
ATOM      8  C   UNL     1      -7.379  -8.353   8.074  0.00  0.00    +0.012 C 
ATOM      9  C   UNL     1      -8.579  -7.218   6.180  0.00  0.00    +0.019 C 
ATOM     10  C   UNL     1      -8.050  -9.667   7.638  0.00  0.00    +0.085 C 
ATOM     12  C   UNL     1      -9.203  -8.564   5.816  0.00  0.00    +0.081 C 
ATOM     28  H   UNL     1      -8.789 -10.557   5.956  0.00  0.00    +0.122 HD
ENDROOT
BRANCH   7  11
ATOM     11  C   UNL     1      -9.486  -6.927   8.523  0.00  0.00    +0.100 C 
BRANCH  11  15
ATOM      1  O   UNL     1      -9.039  -4.576   8.667  0.00  0.00    -0.276 OA
ATOM      5  N   UNL     1     -11.268  -5.219   8.689  0.00  0.00    -0.300 N 
ATOM     15  C   UNL     1      -9.893  -5.467   8.632  0.00  0.00    +0.216 C 
ATOM     19  C   UNL     1     -12.259  -6.288   8.647  0.00  0.00    +0.132 C 
BRANCH   5  17
ATOM     17  C   UNL     1     -11.817  -3.868   8.795  0.00  0.00    +0.142 C 
BRANCH  17  20
ATOM     20  C   UNL     1     -12.633  -3.691  10.043  0.00  0.00    -0.030 A 
ATOM     22  C   UNL     1     -12.035  -3.834  11.294  0.00  0.00    +0.005 A 
ATOM     23  C   UNL     1     -13.991  -3.385   9.950  0.00  0.00    +0.005 A 
ATOM     24  C   UNL     1     -12.794  -3.670  12.454  0.00  0.00    +0.000 A 
ATOM     25  C   UNL     1     -14.750  -3.222  11.109  0.00  0.00    +0.000 A 
ATOM     26  C   UNL     1     -14.151  -3.364  12.361  0.00  0.00    +0.000 A 
ENDBRANCH  17  20
ENDBRANCH   5  17
ENDBRANCH  11  15
ENDBRANCH   7  11
BRANCH   8  13
ATOM     13  C   UNL     1      -7.042  -8.391   9.564  0.00  0.00    +0.064 C 
BRANCH  13  14
ATOM      2  O   UNL     1      -3.580  -9.377   9.544  0.00  0.00    -0.357 OA
ATOM      6  N   UNL     1      -4.648  -8.627   9.066  0.00  0.00    -0.083 NA
ATOM     14  C   UNL     1      -5.694  -9.006   9.806  0.00  0.00    +0.084 A 
ATOM     16  C   UNL     1      -5.350  -9.982  10.757  0.00  0.00    +0.073 A 
ATOM     18  C   UNL     1      -4.011 -10.180  10.550  0.00  0.00    +0.163 A 
BRANCH  18  21
ATOM     21  C   UNL     1      -3.003 -11.047  11.174  0.00  0.00    +0.236 C 
BRANCH  21   3
ATOM      3  O   UNL     1      -2.066 -10.262  11.916  0.00  0.00    -0.375 OA
ATOM     27  C   UNL     1      -2.043 -10.646  13.282  0.00  0.00    +0.194 C 
ENDBRANCH  21   3
ENDBRANCH  18  21
ENDBRANCH  13  14
ENDBRANCH   8  13
TORSDOF 8
ENDMDL
MODEL 9
REMARK VINA RESULT:      -5.3     13.038     18.763
REMARK  Name = 26743012
REMARK  10 active torsions:
REMARK  status: ('A' for Active; 'I' for Inactive)
REMARK    1  A    between atoms: O_3  and  C_21
REMARK    2  A    between atoms: O_3  and  C_27
REMARK    3  A    between atoms: N_5  and  C_17
REMARK    4  A    between atoms: N_5  and  C_19
REMARK    5  A    between atoms: C_7  and  C_11
REMARK    6  A    between atoms: C_8  and  C_13
REMARK    7  A    between atoms: C_11  and  C_15
REMARK    8  A    between atoms: C_13  and  C_14
REMARK    9  A    between atoms: C_17  and  C_20
REMARK   10  A    between atoms: C_18  and  C_21
REMARK                            x       y       z     vdW  Elec       q    Type
REMARK                         _______ _______ _______ _____ _____    ______ ____
ROOT
ATOM      4  N   UNL     1       8.479  11.382   2.954  0.00  0.00    -0.316 NA
ATOM      7  C   UNL     1       8.835   8.593   3.847  0.00  0.00    +0.004 C 
ATOM      8  C   UNL     1       8.934   9.798   4.812  0.00  0.00    +0.012 C 
ATOM      9  C   UNL     1       7.969   8.986   2.639  0.00  0.00    +0.019 C 
ATOM     10  C   UNL     1       9.365  11.079   4.078  0.00  0.00    +0.085 C 
ATOM     12  C   UNL     1       8.433  10.288   1.987  0.00  0.00    +0.081 C 
ATOM     28  H   UNL     1       8.801  12.231   2.489  0.00  0.00    +0.122 HD
ENDROOT
BRANCH   7  11
ATOM     11  C   UNL     1      10.194   8.047   3.390  0.00  0.00    +0.100 C 
BRANCH  11  15
ATOM      1  O   UNL     1       9.881   5.715   3.849  0.00  0.00    -0.276 OA
ATOM      5  N   UNL     1      10.364   6.292   1.655  0.00  0.00    -0.300 N 
ATOM     15  C   UNL     1      10.129   6.579   3.004  0.00  0.00    +0.216 C 
ATOM     19  C   UNL     1      10.655   7.329   0.673  0.00  0.00    +0.132 C 
BRANCH   5  17
ATOM     17  C   UNL     1      10.336   4.929   1.128  0.00  0.00    +0.142 C 
BRANCH  17  20
ATOM     20  C   UNL     1      11.713   4.421   0.814  0.00  0.00    -0.030 A 
ATOM     22  C   UNL     1      12.086   4.189  -0.510  0.00  0.00    +0.005 A 
ATOM     23  C   UNL     1      12.621   4.179   1.846  0.00  0.00    +0.005 A 
ATOM     24  C   UNL     1      13.366   3.717  -0.803  0.00  0.00    +0.000 A 
ATOM     25  C   UNL     1      13.900   3.705   1.553  0.00  0.00    +0.000 A 
ATOM     26  C   UNL     1      14.272   3.475   0.229  0.00  0.00    +0.000 A 
ENDBRANCH  17  20
ENDBRANCH   5  17
ENDBRANCH  11  15
ENDBRANCH   7  11
BRANCH   8  13
ATOM     13  C   UNL     1       9.844   9.534   6.011  0.00  0.00    +0.064 C 
BRANCH  13  14
ATOM      2  O   UNL     1       8.279   6.752   7.675  0.00  0.00    -0.357 OA
ATOM      6  N   UNL     1       8.250   8.021   7.110  0.00  0.00    -0.083 NA
ATOM     14  C   UNL     1       9.499   8.238   6.686  0.00  0.00    +0.084 A 
ATOM     16  C   UNL     1      10.351   7.153   6.954  0.00  0.00    +0.073 A 
ATOM     18  C   UNL     1       9.535   6.246   7.576  0.00  0.00    +0.163 A 
BRANCH  18  21
ATOM     21  C   UNL     1       9.744   4.900   8.127  0.00  0.00    +0.236 C 
BRANCH  21   3
ATOM      3  O   UNL     1      10.087   4.980   9.512  0.00  0.00    -0.375 OA
ATOM     27  C   UNL     1       9.013   4.550  10.333  0.00  0.00    +0.194 C 
ENDBRANCH  21   3
ENDBRANCH  18  21
ENDBRANCH  13  14
ENDBRANCH   8  13
TORSDOF 8
ENDMDL
MODEL 10
REMARK VINA RESULT:      -5.3     27.222     29.478
REMARK  Name = 26743012
REMARK  10 active torsions:
REMARK  status: ('A' for Active; 'I' for Inactive)
REMARK    1  A    between atoms: O_3  and  C_21
REMARK    2  A    between atoms: O_3  and  C_27
REMARK    3  A    between atoms: N_5  and  C_17
REMARK    4  A    between atoms: N_5  and  C_19
REMARK    5  A    between atoms: C_7  and  C_11
REMARK    6  A    between atoms: C_8  and  C_13
REMARK    7  A    between atoms: C_11  and  C_15
REMARK    8  A    between atoms: C_13  and  C_14
REMARK    9  A    between atoms: C_17  and  C_20
REMARK   10  A    between atoms: C_18  and  C_21
REMARK                            x       y       z     vdW  Elec       q    Type
REMARK                         _______ _______ _______ _____ _____    ______ ____
ROOT
ATOM      4  N   UNL     1      -5.274 -12.067  18.804  0.00  0.00    -0.316 NA
ATOM      7  C   UNL     1      -5.492 -10.513  16.305  0.00  0.00    +0.004 C 
ATOM      8  C   UNL     1      -6.724 -10.919  17.147  0.00  0.00    +0.012 C 
ATOM      9  C   UNL     1      -4.253 -10.475  17.215  0.00  0.00    +0.019 C 
ATOM     10  C   UNL     1      -6.461 -12.199  17.960  0.00  0.00    +0.085 C 
ATOM     12  C   UNL     1      -4.079 -11.763  18.019  0.00  0.00    +0.081 C 
ATOM     28  H   UNL     1      -5.128 -12.936  19.319  0.00  0.00    +0.122 HD
ENDROOT
BRANCH   7  11
ATOM     11  C   UNL     1      -5.247 -11.411  15.086  0.00  0.00    +0.100 C 
BRANCH  11  15
ATOM      1  O   UNL     1      -5.164  -9.760  13.350  0.00  0.00    -0.276 OA
ATOM      5  N   UNL     1      -3.275 -11.077  13.629  0.00  0.00    -0.300 N 
ATOM     15  C   UNL     1      -4.575 -10.666  13.944  0.00  0.00    +0.216 C 
ATOM     19  C   UNL     1      -2.598 -12.151  14.345  0.00  0.00    +0.132 C 
BRANCH   5  17
ATOM     17  C   UNL     1      -2.497 -10.458  12.557  0.00  0.00    +0.142 C 
BRANCH  17  20
ATOM     20  C   UNL     1      -3.166 -10.607  11.222  0.00  0.00    -0.030 A 
ATOM     22  C   UNL     1      -3.464  -9.477  10.461  0.00  0.00    +0.005 A 
ATOM     23  C   UNL     1      -3.492 -11.876  10.742  0.00  0.00    +0.005 A 
ATOM     24  C   UNL     1      -4.087  -9.615   9.219  0.00  0.00    +0.000 A 
ATOM     25  C   UNL     1      -4.115 -12.014   9.501  0.00  0.00    +0.000 A 
ATOM     26  C   UNL     1      -4.412 -10.883   8.740  0.00  0.00    +0.000 A 
ENDBRANCH  17  20
ENDBRANCH   5  17
ENDBRANCH  11  15
ENDBRANCH   7  11
BRANCH   8  13
ATOM     13  C   UNL     1      -7.998 -11.065  16.315  0.00  0.00    +0.064 C 
BRANCH  13  14
ATOM      2  O   UNL     1      -9.588  -7.964  17.217  0.00  0.00    -0.357 OA
ATOM      6  N   UNL     1      -8.519  -8.850  17.243  0.00  0.00    -0.083 NA
ATOM     14  C   UNL     1      -8.917  -9.894  16.510  0.00  0.00    +0.084 A 
ATOM     16  C   UNL     1     -10.216  -9.724  16.001  0.00  0.00    +0.073 A 
ATOM     18  C   UNL     1     -10.593  -8.496  16.475  0.00  0.00    +0.163 A 
BRANCH  18  21
ATOM     21  C   UNL     1     -11.810  -7.684  16.342  0.00  0.00    +0.236 C 
BRANCH  21   3
ATOM      3  O   UNL     1     -11.929  -7.185  15.008  0.00  0.00    -0.375 OA
ATOM     27  C   UNL     1     -11.634  -5.798  14.951  0.00  0.00    +0.194 C 
ENDBRANCH  21   3
ENDBRANCH  18  21
ENDBRANCH  13  14
ENDBRANCH   8  13
TORSDOF 8
ENDMDL
