MODEL 1
REMARK VINA RESULT:      -6.9      0.000      0.000
REMARK  Name = 75367096
REMARK  7 active torsions:
REMARK  status: ('A' for Active; 'I' for Inactive)
REMARK    1  A    between atoms: S_1  and  N_7
REMARK    2  A    between atoms: S_1  and  C_19
REMARK    3  A    between atoms: O_3  and  C_10
REMARK    4  A    between atoms: N_6  and  C_8
REMARK    5  A    between atoms: N_6  and  C_9
REMARK    6  A    between atoms: N_7  and  C_18
REMARK    7  A    between atoms: C_11  and  C_18
REMARK                            x       y       z     vdW  Elec       q    Type
REMARK                         _______ _______ _______ _____ _____    ______ ____
ROOT
ATOM      2  O   UNL     1      10.553   7.423  21.365  0.00  0.00    -0.371 OA
ATOM      8  C   UNL     1      11.077   9.541  22.306  0.00  0.00    +0.111 C 
ATOM     10  C   UNL     1      12.122   9.190  21.263  0.00  0.00    +0.164 C 
ATOM     11  C   UNL     1      11.376   8.151  20.437  0.00  0.00    +0.164 C 
ATOM     14  C   UNL     1      10.463   8.179  22.585  0.00  0.00    +0.181 C 
ENDROOT
BRANCH  10   3
ATOM      3  O   UNL     1      12.510  10.304  20.482  0.00  0.00    -0.388 OA
ATOM     26  H   UNL     1      13.124  10.847  21.006  0.00  0.00    +0.210 HD
ENDBRANCH  10   3
BRANCH   8   6
ATOM      6  N   UNL     1      11.627  10.169  23.496  0.00  0.00    -0.306 NA
ATOM     25  H   UNL     1      12.600  10.426  23.338  0.00  0.00    +0.123 HD
BRANCH   6   9
ATOM      9  C   UNL     1      10.853  11.354  23.860  0.00  0.00    +0.054 C 
ATOM     12  C   UNL     1      11.320  11.884  25.220  0.00  0.00    +0.019 C 
ATOM     13  C   UNL     1      10.996  12.425  22.772  0.00  0.00    +0.019 C 
ATOM     15  C   UNL     1      10.585  13.168  25.600  0.00  0.00    +0.002 C 
ATOM     16  C   UNL     1      10.261  13.709  23.154  0.00  0.00    +0.002 C 
ATOM     17  C   UNL     1      10.716  14.233  24.514  0.00  0.00    +0.000 C 
ENDBRANCH   6   9
ENDBRANCH   8   6
BRANCH  11  18
ATOM     18  C   UNL     1      12.298   7.191  19.707  0.00  0.00    +0.140 C 
BRANCH  18   7
ATOM      7  N   UNL     1      13.693   7.428  20.124  0.00  0.00    -0.187 NA
ATOM     27  H   UNL     1      13.826   7.684  21.111  0.00  0.00    +0.148 HD
BRANCH   7   1
ATOM      1  S   UNL     1      14.845   7.956  18.988  0.00  0.00    +0.058 S 
ATOM      4  O   UNL     1      14.922   9.404  19.021  0.00  0.00    -0.153 OA
ATOM      5  O   UNL     1      14.619   7.266  17.733  0.00  0.00    -0.153 OA
BRANCH   1  19
ATOM     19  C   UNL     1      16.345   7.314  19.668  0.00  0.00    +0.105 A 
ATOM     20  C   UNL     1      16.950   7.954  20.749  0.00  0.00    +0.028 A 
ATOM     21  C   UNL     1      16.925   6.170  19.121  0.00  0.00    +0.028 A 
ATOM     22  C   UNL     1      18.135   7.449  21.284  0.00  0.00    +0.002 A 
ATOM     23  C   UNL     1      18.110   5.665  19.655  0.00  0.00    +0.002 A 
ATOM     24  C   UNL     1      18.715   6.305  20.737  0.00  0.00    +0.000 A 
ENDBRANCH   1  19
ENDBRANCH   7   1
ENDBRANCH  18   7
ENDBRANCH  11  18
TORSDOF 7
ENDMDL
MODEL 2
REMARK VINA RESULT:      -6.1     26.880     29.605
REMARK  Name = 75367096
REMARK  7 active torsions:
REMARK  status: ('A' for Active; 'I' for Inactive)
REMARK    1  A    between atoms: S_1  and  N_7
REMARK    2  A    between atoms: S_1  and  C_19
REMARK    3  A    between atoms: O_3  and  C_10
REMARK    4  A    between atoms: N_6  and  C_8
REMARK    5  A    between atoms: N_6  and  C_9
REMARK    6  A    between atoms: N_7  and  C_18
REMARK    7  A    between atoms: C_11  and  C_18
REMARK                            x       y       z     vdW  Elec       q    Type
REMARK                         _______ _______ _______ _____ _____    ______ ____
ROOT
ATOM      2  O   UNL     1     -16.423   1.784  24.919  0.00  0.00    -0.371 OA
ATOM      8  C   UNL     1     -17.265   2.596  26.988  0.00  0.00    +0.111 C 
ATOM     10  C   UNL     1     -16.260   3.591  26.437  0.00  0.00    +0.164 C 
ATOM     11  C   UNL     1     -16.247   3.211  24.963  0.00  0.00    +0.164 C 
ATOM     14  C   UNL     1     -16.913   1.345  26.199  0.00  0.00    +0.181 C 
ENDROOT
BRANCH  10   3
ATOM      3  O   UNL     1     -16.658   4.934  26.631  0.00  0.00    -0.388 OA
ATOM     26  H   UNL     1     -16.649   5.122  27.586  0.00  0.00    +0.210 HD
ENDBRANCH  10   3
BRANCH   8   6
ATOM      6  N   UNL     1     -17.170   2.405  28.425  0.00  0.00    -0.306 NA
ATOM     25  H   UNL     1     -17.831   1.692  28.729  0.00  0.00    +0.123 HD
BRANCH   6   9
ATOM      9  C   UNL     1     -15.813   2.018  28.807  0.00  0.00    +0.054 C 
ATOM     12  C   UNL     1     -15.209   3.080  29.732  0.00  0.00    +0.019 C 
ATOM     13  C   UNL     1     -15.834   0.643  29.484  0.00  0.00    +0.019 C 
ATOM     15  C   UNL     1     -13.818   2.673  30.213  0.00  0.00    +0.002 C 
ATOM     16  C   UNL     1     -14.441   0.238  29.966  0.00  0.00    +0.002 C 
ATOM     17  C   UNL     1     -13.832   1.299  30.878  0.00  0.00    +0.000 C 
ENDBRANCH   6   9
ENDBRANCH   8   6
BRANCH  11  18
ATOM     18  C   UNL     1     -14.958   3.589  24.256  0.00  0.00    +0.140 C 
BRANCH  18   7
ATOM      7  N   UNL     1     -14.907   5.052  24.068  0.00  0.00    -0.187 NA
ATOM     27  H   UNL     1     -14.870   5.612  24.929  0.00  0.00    +0.148 HD
BRANCH   7   1
ATOM      1  S   UNL     1     -15.582   5.755  22.673  0.00  0.00    +0.058 S 
ATOM      4  O   UNL     1     -16.539   6.772  23.063  0.00  0.00    -0.153 OA
ATOM      5  O   UNL     1     -15.970   4.702  21.755  0.00  0.00    -0.153 OA
BRANCH   1  19
ATOM     19  C   UNL     1     -14.182   6.568  21.964  0.00  0.00    +0.105 A 
ATOM     20  C   UNL     1     -14.200   7.950  21.774  0.00  0.00    +0.028 A 
ATOM     21  C   UNL     1     -13.061   5.828  21.590  0.00  0.00    +0.028 A 
ATOM     22  C   UNL     1     -13.096   8.591  21.212  0.00  0.00    +0.002 A 
ATOM     23  C   UNL     1     -11.957   6.468  21.028  0.00  0.00    +0.002 A 
ATOM     24  C   UNL     1     -11.975   7.851  20.839  0.00  0.00    +0.000 A 
ENDBRANCH   1  19
ENDBRANCH   7   1
ENDBRANCH  18   7
ENDBRANCH  11  18
TORSDOF 7
ENDMDL
MODEL 3
REMARK VINA RESULT:      -5.9     26.394     29.435
REMARK  Name = 75367096
REMARK  7 active torsions:
REMARK  status: ('A' for Active; 'I' for Inactive)
REMARK    1  A    between atoms: S_1  and  N_7
REMARK    2  A    between atoms: S_1  and  C_19
REMARK    3  A    between atoms: O_3  and  C_10
REMARK    4  A    between atoms: N_6  and  C_8
REMARK    5  A    between atoms: N_6  and  C_9
REMARK    6  A    between atoms: N_7  and  C_18
REMARK    7  A    between atoms: C_11  and  C_18
REMARK                            x       y       z     vdW  Elec       q    Type
REMARK                         _______ _______ _______ _____ _____    ______ ____
ROOT
ATOM      2  O   UNL     1     -16.961   5.273  23.262  0.00  0.00    -0.371 OA
ATOM      8  C   UNL     1     -15.017   6.246  22.301  0.00  0.00    +0.111 C 
ATOM     10  C   UNL     1     -14.642   4.925  22.949  0.00  0.00    +0.164 C 
ATOM     11  C   UNL     1     -15.997   4.234  23.014  0.00  0.00    +0.164 C 
ATOM     14  C   UNL     1     -16.348   6.542  22.973  0.00  0.00    +0.181 C 
ENDROOT
BRANCH  10   3
ATOM      3  O   UNL     1     -13.711   4.187  22.182  0.00  0.00    -0.388 OA
ATOM     26  H   UNL     1     -12.815   4.405  22.494  0.00  0.00    +0.210 HD
ENDBRANCH  10   3
BRANCH   8   6
ATOM      6  N   UNL     1     -14.034   7.296  22.505  0.00  0.00    -0.306 NA
ATOM     25  H   UNL     1     -13.314   6.981  23.154  0.00  0.00    +0.123 HD
BRANCH   6   9
ATOM      9  C   UNL     1     -13.421   7.684  21.236  0.00  0.00    +0.054 C 
ATOM     12  C   UNL     1     -13.016   9.162  21.283  0.00  0.00    +0.019 C 
ATOM     13  C   UNL     1     -12.212   6.788  20.945  0.00  0.00    +0.019 C 
ATOM     15  C   UNL     1     -12.302   9.585  20.001  0.00  0.00    +0.002 C 
ATOM     16  C   UNL     1     -11.499   7.214  19.662  0.00  0.00    +0.002 C 
ATOM     17  C   UNL     1     -11.104   8.688  19.701  0.00  0.00    +0.000 C 
ENDBRANCH   6   9
ENDBRANCH   8   6
BRANCH  11  18
ATOM     18  C   UNL     1     -16.084   3.184  24.107  0.00  0.00    +0.140 C 
BRANCH  18   7
ATOM      7  N   UNL     1     -15.764   3.798  25.411  0.00  0.00    -0.187 NA
ATOM     27  H   UNL     1     -14.777   3.758  25.693  0.00  0.00    +0.148 HD
BRANCH   7   1
ATOM      1  S   UNL     1     -16.951   3.882  26.627  0.00  0.00    +0.058 S 
ATOM      4  O   UNL     1     -18.131   3.156  26.198  0.00  0.00    -0.153 OA
ATOM      5  O   UNL     1     -17.064   5.254  27.082  0.00  0.00    -0.153 OA
BRANCH   1  19
ATOM     19  C   UNL     1     -16.194   2.965  27.935  0.00  0.00    +0.105 A 
ATOM     20  C   UNL     1     -15.402   3.621  28.878  0.00  0.00    +0.028 A 
ATOM     21  C   UNL     1     -16.385   1.586  28.022  0.00  0.00    +0.028 A 
ATOM     22  C   UNL     1     -14.802   2.897  29.909  0.00  0.00    +0.002 A 
ATOM     23  C   UNL     1     -15.785   0.862  29.052  0.00  0.00    +0.002 A 
ATOM     24  C   UNL     1     -14.993   1.518  29.996  0.00  0.00    +0.000 A 
ENDBRANCH   1  19
ENDBRANCH   7   1
ENDBRANCH  18   7
ENDBRANCH  11  18
TORSDOF 7
ENDMDL
MODEL 4
REMARK VINA RESULT:      -5.9     26.698     28.172
REMARK  Name = 75367096
REMARK  7 active torsions:
REMARK  status: ('A' for Active; 'I' for Inactive)
REMARK    1  A    between atoms: S_1  and  N_7
REMARK    2  A    between atoms: S_1  and  C_19
REMARK    3  A    between atoms: O_3  and  C_10
REMARK    4  A    between atoms: N_6  and  C_8
REMARK    5  A    between atoms: N_6  and  C_9
REMARK    6  A    between atoms: N_7  and  C_18
REMARK    7  A    between atoms: C_11  and  C_18
REMARK                            x       y       z     vdW  Elec       q    Type
REMARK                         _______ _______ _______ _____ _____    ______ ____
ROOT
ATOM      2  O   UNL     1      -5.839 -11.655  18.192  0.00  0.00    -0.371 OA
ATOM      8  C   UNL     1      -7.488 -10.157  17.365  0.00  0.00    +0.111 C 
ATOM     10  C   UNL     1      -6.139  -9.780  16.782  0.00  0.00    +0.164 C 
ATOM     11  C   UNL     1      -5.367 -11.080  16.962  0.00  0.00    +0.164 C 
ATOM     14  C   UNL     1      -7.073 -11.011  18.553  0.00  0.00    +0.181 C 
ENDROOT
BRANCH  10   3
ATOM      3  O   UNL     1      -6.219  -9.399  15.422  0.00  0.00    -0.388 OA
ATOM     26  H   UNL     1      -7.079  -9.690  15.073  0.00  0.00    +0.210 HD
ENDBRANCH  10   3
BRANCH   8   6
ATOM      6  N   UNL     1      -8.300  -9.014  17.745  0.00  0.00    -0.306 NA
ATOM     25  H   UNL     1      -7.807  -8.147  17.532  0.00  0.00    +0.123 HD
BRANCH   6   9
ATOM      9  C   UNL     1      -9.585  -9.038  17.050  0.00  0.00    +0.054 C 
ATOM     12  C   UNL     1     -10.723  -9.200  18.064  0.00  0.00    +0.019 C 
ATOM     13  C   UNL     1      -9.757  -7.756  16.227  0.00  0.00    +0.019 C 
ATOM     15  C   UNL     1     -12.089  -9.153  17.381  0.00  0.00    +0.002 C 
ATOM     16  C   UNL     1     -11.124  -7.711  15.545  0.00  0.00    +0.002 C 
ATOM     17  C   UNL     1     -12.259  -7.884  16.551  0.00  0.00    +0.000 C 
ENDBRANCH   6   9
ENDBRANCH   8   6
BRANCH  11  18
ATOM     18  C   UNL     1      -3.863 -10.880  17.033  0.00  0.00    +0.140 C 
BRANCH  18   7
ATOM      7  N   UNL     1      -3.364 -10.398  15.731  0.00  0.00    -0.187 NA
ATOM     27  H   UNL     1      -3.815  -9.548  15.368  0.00  0.00    +0.148 HD
BRANCH   7   1
ATOM      1  S   UNL     1      -2.686 -11.493  14.619  0.00  0.00    +0.058 S 
ATOM      4  O   UNL     1      -3.436 -12.733  14.649  0.00  0.00    -0.153 OA
ATOM      5  O   UNL     1      -1.246 -11.506  14.789  0.00  0.00    -0.153 OA
BRANCH   1  19
ATOM     19  C   UNL     1      -3.017 -10.694  13.077  0.00  0.00    +0.105 A 
ATOM     20  C   UNL     1      -4.331 -10.402  12.711  0.00  0.00    +0.028 A 
ATOM     21  C   UNL     1      -1.964 -10.359  12.226  0.00  0.00    +0.028 A 
ATOM     22  C   UNL     1      -4.591  -9.773  11.493  0.00  0.00    +0.002 A 
ATOM     23  C   UNL     1      -2.224  -9.732  11.008  0.00  0.00    +0.002 A 
ATOM     24  C   UNL     1      -3.539  -9.439  10.641  0.00  0.00    +0.000 A 
ENDBRANCH   1  19
ENDBRANCH   7   1
ENDBRANCH  18   7
ENDBRANCH  11  18
TORSDOF 7
ENDMDL
MODEL 5
REMARK VINA RESULT:      -5.8     27.517     30.558
REMARK  Name = 75367096
REMARK  7 active torsions:
REMARK  status: ('A' for Active; 'I' for Inactive)
REMARK    1  A    between atoms: S_1  and  N_7
REMARK    2  A    between atoms: S_1  and  C_19
REMARK    3  A    between atoms: O_3  and  C_10
REMARK    4  A    between atoms: N_6  and  C_8
REMARK    5  A    between atoms: N_6  and  C_9
REMARK    6  A    between atoms: N_7  and  C_18
REMARK    7  A    between atoms: C_11  and  C_18
REMARK                            x       y       z     vdW  Elec       q    Type
REMARK                         _______ _______ _______ _____ _____    ______ ____
ROOT
ATOM      2  O   UNL     1     -17.342   4.404  25.023  0.00  0.00    -0.371 OA
ATOM      8  C   UNL     1     -16.079   4.577  23.018  0.00  0.00    +0.111 C 
ATOM     10  C   UNL     1     -16.927   3.320  22.961  0.00  0.00    +0.164 C 
ATOM     11  C   UNL     1     -17.998   3.642  23.994  0.00  0.00    +0.164 C 
ATOM     14  C   UNL     1     -16.085   4.877  24.508  0.00  0.00    +0.181 C 
ENDROOT
BRANCH  10   3
ATOM      3  O   UNL     1     -17.483   3.094  21.680  0.00  0.00    -0.388 OA
ATOM     26  H   UNL     1     -17.415   3.917  21.167  0.00  0.00    +0.210 HD
ENDBRANCH  10   3
BRANCH   8   6
ATOM      6  N   UNL     1     -14.740   4.402  22.481  0.00  0.00    -0.306 NA
ATOM     25  H   UNL     1     -14.761   3.761  21.688  0.00  0.00    +0.123 HD
BRANCH   6   9
ATOM      9  C   UNL     1     -14.176   5.685  22.067  0.00  0.00    +0.054 C 
ATOM     12  C   UNL     1     -12.708   5.505  21.667  0.00  0.00    +0.019 C 
ATOM     13  C   UNL     1     -14.997   6.265  20.909  0.00  0.00    +0.019 C 
ATOM     15  C   UNL     1     -12.105   6.812  21.155  0.00  0.00    +0.002 C 
ATOM     16  C   UNL     1     -14.392   7.572  20.397  0.00  0.00    +0.002 C 
ATOM     17  C   UNL     1     -12.926   7.398  20.009  0.00  0.00    +0.000 C 
ENDBRANCH   6   9
ENDBRANCH   8   6
BRANCH  11  18
ATOM     18  C   UNL     1     -18.638   2.406  24.602  0.00  0.00    +0.140 C 
BRANCH  18   7
ATOM      7  N   UNL     1     -18.239   2.287  26.018  0.00  0.00    -0.187 NA
ATOM     27  H   UNL     1     -18.147   3.173  26.531  0.00  0.00    +0.148 HD
BRANCH   7   1
ATOM      1  S   UNL     1     -17.321   0.951  26.536  0.00  0.00    +0.058 S 
ATOM      4  O   UNL     1     -16.351   0.611  25.514  0.00  0.00    -0.153 OA
ATOM      5  O   UNL     1     -18.218  -0.062  27.058  0.00  0.00    -0.153 OA
BRANCH   1  19
ATOM     19  C   UNL     1     -16.446   1.627  27.915  0.00  0.00    +0.105 A 
ATOM     20  C   UNL     1     -16.184   0.832  29.031  0.00  0.00    +0.028 A 
ATOM     21  C   UNL     1     -16.022   2.955  27.889  0.00  0.00    +0.028 A 
ATOM     22  C   UNL     1     -15.496   1.365  30.121  0.00  0.00    +0.002 A 
ATOM     23  C   UNL     1     -15.335   3.489  28.979  0.00  0.00    +0.002 A 
ATOM     24  C   UNL     1     -15.072   2.694  30.095  0.00  0.00    +0.000 A 
ENDBRANCH   1  19
ENDBRANCH   7   1
ENDBRANCH  18   7
ENDBRANCH  11  18
TORSDOF 7
ENDMDL
MODEL 6
REMARK VINA RESULT:      -5.8     27.102     29.432
REMARK  Name = 75367096
REMARK  7 active torsions:
REMARK  status: ('A' for Active; 'I' for Inactive)
REMARK    1  A    between atoms: S_1  and  N_7
REMARK    2  A    between atoms: S_1  and  C_19
REMARK    3  A    between atoms: O_3  and  C_10
REMARK    4  A    between atoms: N_6  and  C_8
REMARK    5  A    between atoms: N_6  and  C_9
REMARK    6  A    between atoms: N_7  and  C_18
REMARK    7  A    between atoms: C_11  and  C_18
REMARK                            x       y       z     vdW  Elec       q    Type
REMARK                         _______ _______ _______ _____ _____    ______ ____
ROOT
ATOM      2  O   UNL     1      -6.339 -10.234  16.830  0.00  0.00    -0.371 OA
ATOM      8  C   UNL     1      -4.131 -10.904  16.264  0.00  0.00    +0.111 C 
ATOM     10  C   UNL     1      -4.352 -11.129  17.749  0.00  0.00    +0.164 C 
ATOM     11  C   UNL     1      -5.872 -11.170  17.816  0.00  0.00    +0.164 C 
ATOM     14  C   UNL     1      -5.253  -9.930  15.938  0.00  0.00    +0.181 C 
ENDROOT
BRANCH  10   3
ATOM      3  O   UNL     1      -3.772 -12.334  18.210  0.00  0.00    -0.388 OA
ATOM     26  H   UNL     1      -4.480 -12.899  18.564  0.00  0.00    +0.210 HD
ENDBRANCH  10   3
BRANCH   8   6
ATOM      6  N   UNL     1      -2.814 -10.379  15.943  0.00  0.00    -0.306 NA
ATOM     25  H   UNL     1      -2.204 -10.441  16.757  0.00  0.00    +0.123 HD
BRANCH   6   9
ATOM      9  C   UNL     1      -2.225 -11.110  14.823  0.00  0.00    +0.054 C 
ATOM     12  C   UNL     1      -2.787 -12.535  14.778  0.00  0.00    +0.019 C 
ATOM     13  C   UNL     1      -2.500 -10.365  13.512  0.00  0.00    +0.019 C 
ATOM     15  C   UNL     1      -2.252 -13.307  13.573  0.00  0.00    +0.002 C 
ATOM     16  C   UNL     1      -1.964 -11.139  12.308  0.00  0.00    +0.002 C 
ATOM     17  C   UNL     1      -2.514 -12.563  12.267  0.00  0.00    +0.000 C 
ENDBRANCH   6   9
ENDBRANCH   8   6
BRANCH  11  18
ATOM     18  C   UNL     1      -6.423 -10.795  19.181  0.00  0.00    +0.140 C 
BRANCH  18   7
ATOM      7  N   UNL     1      -7.630  -9.961  19.015  0.00  0.00    -0.187 NA
ATOM     27  H   UNL     1      -7.551  -8.992  19.347  0.00  0.00    +0.148 HD
BRANCH   7   1
ATOM      1  S   UNL     1      -9.169 -10.686  18.991  0.00  0.00    +0.058 S 
ATOM      4  O   UNL     1      -9.710 -10.711  20.336  0.00  0.00    -0.153 OA
ATOM      5  O   UNL     1      -9.103 -11.905  18.208  0.00  0.00    -0.153 OA
BRANCH   1  19
ATOM     19  C   UNL     1     -10.104  -9.518  18.049  0.00  0.00    +0.105 A 
ATOM     20  C   UNL     1      -9.455  -8.467  17.401  0.00  0.00    +0.028 A 
ATOM     21  C   UNL     1     -11.490  -9.646  17.956  0.00  0.00    +0.028 A 
ATOM     22  C   UNL     1     -10.193  -7.544  16.660  0.00  0.00    +0.002 A 
ATOM     23  C   UNL     1     -12.228  -8.723  17.216  0.00  0.00    +0.002 A 
ATOM     24  C   UNL     1     -11.579  -7.672  16.567  0.00  0.00    +0.000 A 
ENDBRANCH   1  19
ENDBRANCH   7   1
ENDBRANCH  18   7
ENDBRANCH  11  18
TORSDOF 7
ENDMDL
MODEL 7
REMARK VINA RESULT:      -5.7     27.504     29.289
REMARK  Name = 75367096
REMARK  7 active torsions:
REMARK  status: ('A' for Active; 'I' for Inactive)
REMARK    1  A    between atoms: S_1  and  N_7
REMARK    2  A    between atoms: S_1  and  C_19
REMARK    3  A    between atoms: O_3  and  C_10
REMARK    4  A    between atoms: N_6  and  C_8
REMARK    5  A    between atoms: N_6  and  C_9
REMARK    6  A    between atoms: N_7  and  C_18
REMARK    7  A    between atoms: C_11  and  C_18
REMARK                            x       y       z     vdW  Elec       q    Type
REMARK                         _______ _______ _______ _____ _____    ______ ____
ROOT
ATOM      2  O   UNL     1      -5.302 -13.009  15.890  0.00  0.00    -0.371 OA
ATOM      8  C   UNL     1      -4.790 -11.118  14.545  0.00  0.00    +0.111 C 
ATOM     10  C   UNL     1      -4.606 -10.751  16.006  0.00  0.00    +0.164 C 
ATOM     11  C   UNL     1      -4.446 -12.127  16.637  0.00  0.00    +0.164 C 
ATOM     14  C   UNL     1      -5.656 -12.363  14.655  0.00  0.00    +0.181 C 
ENDROOT
BRANCH  10   3
ATOM      3  O   UNL     1      -3.471  -9.936  16.226  0.00  0.00    -0.388 OA
ATOM     26  H   UNL     1      -3.536  -9.158  15.645  0.00  0.00    +0.210 HD
ENDBRANCH  10   3
BRANCH   8   6
ATOM      6  N   UNL     1      -5.405 -10.068  13.752  0.00  0.00    -0.306 NA
ATOM     25  H   UNL     1      -5.147  -9.153  14.120  0.00  0.00    +0.123 HD
BRANCH   6   9
ATOM      9  C   UNL     1      -4.999 -10.171  12.352  0.00  0.00    +0.054 C 
ATOM     12  C   UNL     1      -5.516  -8.959  11.568  0.00  0.00    +0.019 C 
ATOM     13  C   UNL     1      -3.473 -10.279  12.258  0.00  0.00    +0.019 C 
ATOM     15  C   UNL     1      -5.046  -8.993  10.116  0.00  0.00    +0.002 C 
ATOM     16  C   UNL     1      -3.005 -10.312  10.804  0.00  0.00    +0.002 C 
ATOM     17  C   UNL     1      -3.527  -9.113  10.018  0.00  0.00    +0.000 C 
ENDBRANCH   6   9
ENDBRANCH   8   6
BRANCH  11  18
ATOM     18  C   UNL     1      -4.830 -12.163  18.105  0.00  0.00    +0.140 C 
BRANCH  18   7
ATOM      7  N   UNL     1      -6.269 -12.465  18.234  0.00  0.00    -0.187 NA
ATOM     27  H   UNL     1      -6.772 -12.626  17.352  0.00  0.00    +0.148 HD
BRANCH   7   1
ATOM      1  S   UNL     1      -7.146 -11.882  19.571  0.00  0.00    +0.058 S 
ATOM      4  O   UNL     1      -6.256 -11.137  20.441  0.00  0.00    -0.153 OA
ATOM      5  O   UNL     1      -7.959 -12.957  20.106  0.00  0.00    -0.153 OA
BRANCH   1  19
ATOM     19  C   UNL     1      -8.250 -10.733  18.806  0.00  0.00    +0.105 A 
ATOM     20  C   UNL     1      -9.591 -10.696  19.186  0.00  0.00    +0.028 A 
ATOM     21  C   UNL     1      -7.780  -9.865  17.820  0.00  0.00    +0.028 A 
ATOM     22  C   UNL     1     -10.463  -9.790  18.581  0.00  0.00    +0.002 A 
ATOM     23  C   UNL     1      -8.651  -8.960  17.214  0.00  0.00    +0.002 A 
ATOM     24  C   UNL     1      -9.993  -8.923  17.595  0.00  0.00    +0.000 A 
ENDBRANCH   1  19
ENDBRANCH   7   1
ENDBRANCH  18   7
ENDBRANCH  11  18
TORSDOF 7
ENDMDL
MODEL 8
REMARK VINA RESULT:      -5.6     27.794     30.398
REMARK  Name = 75367096
REMARK  7 active torsions:
REMARK  status: ('A' for Active; 'I' for Inactive)
REMARK    1  A    between atoms: S_1  and  N_7
REMARK    2  A    between atoms: S_1  and  C_19
REMARK    3  A    between atoms: O_3  and  C_10
REMARK    4  A    between atoms: N_6  and  C_8
REMARK    5  A    between atoms: N_6  and  C_9
REMARK    6  A    between atoms: N_7  and  C_18
REMARK    7  A    between atoms: C_11  and  C_18
REMARK                            x       y       z     vdW  Elec       q    Type
REMARK                         _______ _______ _______ _____ _____    ______ ____
ROOT
ATOM      2  O   UNL     1      -9.940 -10.335  15.605  0.00  0.00    -0.371 OA
ATOM      8  C   UNL     1      -8.865  -9.657  17.612  0.00  0.00    +0.111 C 
ATOM     10  C   UNL     1      -9.330  -8.424  16.859  0.00  0.00    +0.164 C 
ATOM     11  C   UNL     1     -10.403  -9.019  15.956  0.00  0.00    +0.164 C 
ATOM     14  C   UNL     1      -8.889 -10.707  16.513  0.00  0.00    +0.181 C 
ENDROOT
BRANCH  10   3
ATOM      3  O   UNL     1      -9.856  -7.428  17.715  0.00  0.00    -0.388 OA
ATOM     26  H   UNL     1      -9.291  -6.639  17.650  0.00  0.00    +0.210 HD
ENDBRANCH  10   3
BRANCH   8   6
ATOM      6  N   UNL     1      -7.555  -9.507  18.223  0.00  0.00    -0.306 NA
ATOM     25  H   UNL     1      -7.600  -9.745  19.213  0.00  0.00    +0.123 HD
BRANCH   6   9
ATOM      9  C   UNL     1      -6.571 -10.354  17.553  0.00  0.00    +0.054 C 
ATOM     12  C   UNL     1      -5.769  -9.524  16.545  0.00  0.00    +0.019 C 
ATOM     13  C   UNL     1      -5.649 -11.005  18.591  0.00  0.00    +0.019 C 
ATOM     15  C   UNL     1      -4.678 -10.359  15.878  0.00  0.00    +0.002 C 
ATOM     16  C   UNL     1      -4.558 -11.840  17.921  0.00  0.00    +0.002 C 
ATOM     17  C   UNL     1      -3.765 -11.018  16.909  0.00  0.00    +0.000 C 
ENDBRANCH   6   9
ENDBRANCH   8   6
BRANCH  11  18
ATOM     18  C   UNL     1     -10.645  -8.208  14.696  0.00  0.00    +0.140 C 
BRANCH  18   7
ATOM      7  N   UNL     1     -12.067  -7.820  14.622  0.00  0.00    -0.187 NA
ATOM     27  H   UNL     1     -12.571  -8.133  13.783  0.00  0.00    +0.148 HD
BRANCH   7   1
ATOM      1  S   UNL     1     -12.610  -6.417  15.417  0.00  0.00    +0.058 S 
ATOM      4  O   UNL     1     -11.496  -5.793  16.105  0.00  0.00    -0.153 OA
ATOM      5  O   UNL     1     -13.831  -6.726  16.136  0.00  0.00    -0.153 OA
BRANCH   1  19
ATOM     19  C   UNL     1     -13.060  -5.382  14.057  0.00  0.00    +0.105 A 
ATOM     20  C   UNL     1     -12.073  -4.707  13.338  0.00  0.00    +0.028 A 
ATOM     21  C   UNL     1     -14.402  -5.236  13.706  0.00  0.00    +0.028 A 
ATOM     22  C   UNL     1     -12.429  -3.888  12.266  0.00  0.00    +0.002 A 
ATOM     23  C   UNL     1     -14.758  -4.416  12.635  0.00  0.00    +0.002 A 
ATOM     24  C   UNL     1     -13.771  -3.743  11.915  0.00  0.00    +0.000 A 
ENDBRANCH   1  19
ENDBRANCH   7   1
ENDBRANCH  18   7
ENDBRANCH  11  18
TORSDOF 7
ENDMDL
MODEL 9
REMARK VINA RESULT:      -5.6     15.174     17.801
REMARK  Name = 75367096
REMARK  7 active torsions:
REMARK  status: ('A' for Active; 'I' for Inactive)
REMARK    1  A    between atoms: S_1  and  N_7
REMARK    2  A    between atoms: S_1  and  C_19
REMARK    3  A    between atoms: O_3  and  C_10
REMARK    4  A    between atoms: N_6  and  C_8
REMARK    5  A    between atoms: N_6  and  C_9
REMARK    6  A    between atoms: N_7  and  C_18
REMARK    7  A    between atoms: C_11  and  C_18
REMARK                            x       y       z     vdW  Elec       q    Type
REMARK                         _______ _______ _______ _____ _____    ______ ____
ROOT
ATOM      2  O   UNL     1      12.359   8.994   3.425  0.00  0.00    -0.371 OA
ATOM      8  C   UNL     1      13.082   8.706   5.670  0.00  0.00    +0.111 C 
ATOM     10  C   UNL     1      13.455   7.473   4.868  0.00  0.00    +0.164 C 
ATOM     11  C   UNL     1      13.421   8.025   3.449  0.00  0.00    +0.164 C 
ATOM     14  C   UNL     1      12.019   9.332   4.781  0.00  0.00    +0.181 C 
ENDROOT
BRANCH  10   3
ATOM      3  O   UNL     1      14.733   6.969   5.206  0.00  0.00    -0.388 OA
ATOM     26  H   UNL     1      14.747   6.016   5.011  0.00  0.00    +0.210 HD
ENDBRANCH  10   3
BRANCH   8   6
ATOM      6  N   UNL     1      12.597   8.407   7.007  0.00  0.00    -0.306 NA
ATOM     25  H   UNL     1      12.537   9.262   7.558  0.00  0.00    +0.123 HD
BRANCH   6   9
ATOM      9  C   UNL     1      11.287   7.761   6.950  0.00  0.00    +0.054 C 
ATOM     12  C   UNL     1      11.395   6.319   7.460  0.00  0.00    +0.019 C 
ATOM     13  C   UNL     1      10.273   8.564   7.773  0.00  0.00    +0.019 C 
ATOM     15  C   UNL     1      10.030   5.635   7.488  0.00  0.00    +0.002 C 
ATOM     16  C   UNL     1       8.909   7.877   7.800  0.00  0.00    +0.002 C 
ATOM     17  C   UNL     1       9.014   6.437   8.297  0.00  0.00    +0.000 C 
ENDBRANCH   6   9
ENDBRANCH   8   6
BRANCH  11  18
ATOM     18  C   UNL     1      13.167   6.960   2.397  0.00  0.00    +0.140 C 
BRANCH  18   7
ATOM      7  N   UNL     1      12.691   5.724   3.047  0.00  0.00    -0.187 NA
ATOM     27  H   UNL     1      13.421   5.118   3.443  0.00  0.00    +0.148 HD
BRANCH   7   1
ATOM      1  S   UNL     1      11.227   5.011   2.554  0.00  0.00    +0.058 S 
ATOM      4  O   UNL     1      10.866   3.961   3.486  0.00  0.00    -0.153 OA
ATOM      5  O   UNL     1      11.293   4.734   1.132  0.00  0.00    -0.153 OA
BRANCH   1  19
ATOM     19  C   UNL     1      10.086   6.345   2.767  0.00  0.00    +0.105 A 
ATOM     20  C   UNL     1       9.778   7.177   1.691  0.00  0.00    +0.028 A 
ATOM     21  C   UNL     1       9.497   6.566   4.011  0.00  0.00    +0.028 A 
ATOM     22  C   UNL     1       8.880   8.231   1.859  0.00  0.00    +0.002 A 
ATOM     23  C   UNL     1       8.599   7.620   4.181  0.00  0.00    +0.002 A 
ATOM     24  C   UNL     1       8.291   8.453   3.104  0.00  0.00    +0.000 A 
ENDBRANCH   1  19
ENDBRANCH   7   1
ENDBRANCH  18   7
ENDBRANCH  11  18
TORSDOF 7
ENDMDL
MODEL 10
REMARK VINA RESULT:      -5.6     24.466     26.297
REMARK  Name = 75367096
REMARK  7 active torsions:
REMARK  status: ('A' for Active; 'I' for Inactive)
REMARK    1  A    between atoms: S_1  and  N_7
REMARK    2  A    between atoms: S_1  and  C_19
REMARK    3  A    between atoms: O_3  and  C_10
REMARK    4  A    between atoms: N_6  and  C_8
REMARK    5  A    between atoms: N_6  and  C_9
REMARK    6  A    between atoms: N_7  and  C_18
REMARK    7  A    between atoms: C_11  and  C_18
REMARK                            x       y       z     vdW  Elec       q    Type
REMARK                         _______ _______ _______ _____ _____    ______ ____
ROOT
ATOM      2  O   UNL     1     -12.891  11.898  17.016  0.00  0.00    -0.371 OA
ATOM      8  C   UNL     1     -11.374  11.670  18.831  0.00  0.00    +0.111 C 
ATOM     10  C   UNL     1     -10.667  11.286  17.544  0.00  0.00    +0.164 C 
ATOM     11  C   UNL     1     -11.547  11.975  16.510  0.00  0.00    +0.164 C 
ATOM     14  C   UNL     1     -12.833  11.568  18.415  0.00  0.00    +0.181 C 
ENDROOT
BRANCH  10   3
ATOM      3  O   UNL     1      -9.333  11.752  17.494  0.00  0.00    -0.388 OA
ATOM     26  H   UNL     1      -9.198  12.373  18.231  0.00  0.00    +0.210 HD
ENDBRANCH  10   3
BRANCH   8   6
ATOM      6  N   UNL     1     -11.045  10.811  19.956  0.00  0.00    -0.306 NA
ATOM     25  H   UNL     1     -11.243  11.291  20.833  0.00  0.00    +0.123 HD
BRANCH   6   9
ATOM      9  C   UNL     1     -11.800   9.562  19.892  0.00  0.00    +0.054 C 
ATOM     12  C   UNL     1     -10.842   8.385  19.669  0.00  0.00    +0.019 C 
ATOM     13  C   UNL     1     -12.613   9.376  21.178  0.00  0.00    +0.019 C 
ATOM     15  C   UNL     1     -11.588   7.052  19.672  0.00  0.00    +0.002 C 
ATOM     16  C   UNL     1     -13.357   8.042  21.179  0.00  0.00    +0.002 C 
ATOM     17  C   UNL     1     -12.408   6.869  20.947  0.00  0.00    +0.000 C 
ENDBRANCH   6   9
ENDBRANCH   8   6
BRANCH  11  18
ATOM     18  C   UNL     1     -11.479  11.328  15.137  0.00  0.00    +0.140 C 
BRANCH  18   7
ATOM      7  N   UNL     1     -10.691  10.082  15.215  0.00  0.00    -0.187 NA
ATOM     27  H   UNL     1      -9.685  10.201  15.391  0.00  0.00    +0.148 HD
BRANCH   7   1
ATOM      1  S   UNL     1     -11.209   8.693  14.381  0.00  0.00    +0.058 S 
ATOM      4  O   UNL     1     -10.326   7.587  14.695  0.00  0.00    -0.153 OA
ATOM      5  O   UNL     1     -11.476   9.045  13.000  0.00  0.00    -0.153 OA
BRANCH   1  19
ATOM     19  C   UNL     1     -12.772   8.375  15.143  0.00  0.00    +0.105 A 
ATOM     20  C   UNL     1     -12.898   8.444  16.531  0.00  0.00    +0.028 A 
ATOM     21  C   UNL     1     -13.879   8.053  14.358  0.00  0.00    +0.028 A 
ATOM     22  C   UNL     1     -14.131   8.191  17.133  0.00  0.00    +0.002 A 
ATOM     23  C   UNL     1     -15.111   7.799  14.959  0.00  0.00    +0.002 A 
ATOM     24  C   UNL     1     -15.237   7.869  16.347  0.00  0.00    +0.000 A 
ENDBRANCH   1  19
ENDBRANCH   7   1
ENDBRANCH  18   7
ENDBRANCH  11  18
TORSDOF 7
ENDMDL
