MODEL 1
REMARK VINA RESULT:      -8.2      0.000      0.000
REMARK  Name = 11941677
REMARK  6 active torsions:
REMARK  status: ('A' for Active; 'I' for Inactive)
REMARK    1  A    between atoms: O_5  and  C_30
REMARK    2  A    between atoms: O_5  and  C_34
REMARK    3  A    between atoms: N_6  and  C_13
REMARK    4  A    between atoms: N_7  and  C_14
REMARK    5  A    between atoms: N_8  and  C_20
REMARK    6  A    between atoms: C_19  and  C_23
REMARK                            x       y       z     vdW  Elec       q    Type
REMARK                         _______ _______ _______ _____ _____    ______ ____
ROOT
ATOM      2  O   UNL     1      13.790   7.868  17.902  0.00  0.00    -0.370 OA
ATOM      3  O   UNL     1      13.539   8.141  20.999  0.00  0.00    -0.370 OA
ATOM     11  C   UNL     1      14.058   9.005  19.975  0.00  0.00    +0.171 C 
ATOM     12  C   UNL     1      14.743   8.124  18.948  0.00  0.00    +0.171 C 
ATOM     13  C   UNL     1      12.928   9.652  19.212  0.00  0.00    +0.130 C 
ATOM     14  C   UNL     1      15.049   6.849  19.702  0.00  0.00    +0.131 C 
ATOM     15  C   UNL     1      12.587   8.603  18.168  0.00  0.00    +0.185 C 
ATOM     16  C   UNL     1      13.913   6.786  20.708  0.00  0.00    +0.185 C 
ENDROOT
BRANCH  13   6
ATOM      6  N   UNL     1      13.391  10.864  18.572  0.00  0.00    -0.306 N 
ATOM      9  N   UNL     1      12.390  12.208  20.179  0.00  0.00    -0.214 NA
ATOM     10  N   UNL     1      13.629  13.162  18.344  0.00  0.00    -0.223 NA
ATOM     17  C   UNL     1      13.125  12.133  19.052  0.00  0.00    +0.216 A 
ATOM     19  C   UNL     1      12.149  13.460  20.619  0.00  0.00    +0.076 A 
ATOM     21  C   UNL     1      13.349  14.386  18.841  0.00  0.00    +0.116 A 
ATOM     22  C   UNL     1      12.608  14.598  19.985  0.00  0.00    +0.048 A 
ATOM     40  H   UNL     1      13.988  10.798  17.754  0.00  0.00    +0.149 HD
BRANCH  19  23
ATOM      1  F   UNL     1      10.894  11.740  24.950  0.00  0.00    -0.205 F 
ATOM     23  C   UNL     1      11.362  13.545  21.826  0.00  0.00    +0.003 A 
ATOM     28  C   UNL     1      11.511  12.582  22.824  0.00  0.00    +0.048 A 
ATOM     29  C   UNL     1      10.452  14.589  21.993  0.00  0.00    +0.010 A 
ATOM     31  C   UNL     1      10.750  12.664  23.990  0.00  0.00    +0.124 A 
ATOM     32  C   UNL     1       9.691  14.670  23.159  0.00  0.00    +0.003 A 
ATOM     33  C   UNL     1       9.841  13.709  24.158  0.00  0.00    +0.038 A 
ENDBRANCH  19  23
ENDBRANCH  13   6
BRANCH  14   7
ATOM      4  O   UNL     1      17.463   5.517  18.924  0.00  0.00    -0.252 OA
ATOM      7  N   UNL     1      16.329   6.928  20.363  0.00  0.00    -0.292 N 
ATOM      8  N   UNL     1      18.554   6.509  20.750  0.00  0.00    -0.269 N 
ATOM     18  C   UNL     1      17.465   6.243  19.915  0.00  0.00    +0.304 C 
ATOM     41  H   UNL     1      16.428   7.561  21.150  0.00  0.00    +0.151 HD
ATOM     42  H   UNL     1      18.385   7.135  21.534  0.00  0.00    +0.156 HD
BRANCH   8  20
ATOM     20  C   UNL     1      19.874   6.012  20.641  0.00  0.00    +0.035 A 
ATOM     24  C   UNL     1      20.948   6.898  20.567  0.00  0.00    +0.027 A 
ATOM     25  C   UNL     1      20.100   4.636  20.606  0.00  0.00    +0.027 A 
ATOM     26  C   UNL     1      22.250   6.408  20.458  0.00  0.00    +0.048 A 
ATOM     27  C   UNL     1      21.401   4.146  20.496  0.00  0.00    +0.048 A 
ATOM     30  C   UNL     1      22.476   5.032  20.424  0.00  0.00    +0.129 A 
BRANCH  30   5
ATOM      5  O   UNL     1      23.746   4.553  20.317  0.00  0.00    -0.456 OA
BRANCH   5  34
ATOM     34  C   UNL     1      24.094   3.473  21.111  0.00  0.00    +0.128 A 
ATOM     35  C   UNL     1      24.206   2.201  20.548  0.00  0.00    +0.046 A 
ATOM     36  C   UNL     1      24.330   3.655  22.473  0.00  0.00    +0.046 A 
ATOM     37  C   UNL     1      24.556   1.113  21.349  0.00  0.00    +0.004 A 
ATOM     38  C   UNL     1      24.681   2.568  23.273  0.00  0.00    +0.004 A 
ATOM     39  C   UNL     1      24.794   1.296  22.711  0.00  0.00    +0.000 A 
ENDBRANCH   5  34
ENDBRANCH  30   5
ENDBRANCH   8  20
ENDBRANCH  14   7
TORSDOF 6
ENDMDL
MODEL 2
REMARK VINA RESULT:      -8.0     28.400     32.171
REMARK  Name = 11941677
REMARK  6 active torsions:
REMARK  status: ('A' for Active; 'I' for Inactive)
REMARK    1  A    between atoms: O_5  and  C_30
REMARK    2  A    between atoms: O_5  and  C_34
REMARK    3  A    between atoms: N_6  and  C_13
REMARK    4  A    between atoms: N_7  and  C_14
REMARK    5  A    between atoms: N_8  and  C_20
REMARK    6  A    between atoms: C_19  and  C_23
REMARK                            x       y       z     vdW  Elec       q    Type
REMARK                         _______ _______ _______ _____ _____    ______ ____
ROOT
ATOM      2  O   UNL     1      -1.589  -9.831  13.177  0.00  0.00    -0.370 OA
ATOM      3  O   UNL     1      -2.355 -12.767  12.453  0.00  0.00    -0.370 OA
ATOM     11  C   UNL     1      -3.105 -11.543  12.519  0.00  0.00    +0.171 C 
ATOM     12  C   UNL     1      -2.567 -10.749  13.694  0.00  0.00    +0.171 C 
ATOM     13  C   UNL     1      -2.803 -10.677  11.319  0.00  0.00    +0.130 C 
ATOM     14  C   UNL     1      -1.902 -11.789  14.567  0.00  0.00    +0.131 C 
ATOM     15  C   UNL     1      -1.546  -9.941  11.747  0.00  0.00    +0.185 C 
ATOM     16  C   UNL     1      -1.431 -12.814  13.550  0.00  0.00    +0.185 C 
ENDROOT
BRANCH  13   6
ATOM      6  N   UNL     1      -3.882  -9.740  11.100  0.00  0.00    -0.306 N 
ATOM      9  N   UNL     1      -4.322 -10.595   8.986  0.00  0.00    -0.214 NA
ATOM     10  N   UNL     1      -5.610  -8.769   9.890  0.00  0.00    -0.223 NA
ATOM     17  C   UNL     1      -4.638  -9.699   9.942  0.00  0.00    +0.216 A 
ATOM     19  C   UNL     1      -5.078 -10.527   7.871  0.00  0.00    +0.076 A 
ATOM     21  C   UNL     1      -6.326  -8.757   8.746  0.00  0.00    +0.116 A 
ATOM     22  C   UNL     1      -6.104  -9.620   7.693  0.00  0.00    +0.048 A 
ATOM     40  H   UNL     1      -4.148  -9.104  11.844  0.00  0.00    +0.149 HD
BRANCH  19  23
ATOM      1  F   UNL     1      -5.159 -11.949   3.260  0.00  0.00    -0.205 F 
ATOM     23  C   UNL     1      -4.744 -11.485   6.845  0.00  0.00    +0.003 A 
ATOM     28  C   UNL     1      -5.121 -11.249   5.523  0.00  0.00    +0.048 A 
ATOM     29  C   UNL     1      -4.046 -12.647   7.176  0.00  0.00    +0.010 A 
ATOM     31  C   UNL     1      -4.798 -12.176   4.531  0.00  0.00    +0.124 A 
ATOM     32  C   UNL     1      -3.724 -13.573   6.183  0.00  0.00    +0.003 A 
ATOM     33  C   UNL     1      -4.099 -13.337   4.861  0.00  0.00    +0.038 A 
ENDBRANCH  19  23
ENDBRANCH  13   6
BRANCH  14   7
ATOM      4  O   UNL     1      -3.985 -10.417  15.977  0.00  0.00    -0.252 OA
ATOM      7  N   UNL     1      -2.841 -12.368  15.497  0.00  0.00    -0.292 N 
ATOM      8  N   UNL     1      -4.589 -12.449  16.984  0.00  0.00    -0.269 N 
ATOM     18  C   UNL     1      -3.833 -11.624  16.146  0.00  0.00    +0.304 C 
ATOM     41  H   UNL     1      -2.823 -13.373  15.638  0.00  0.00    +0.151 HD
ATOM     42  H   UNL     1      -4.330 -13.432  17.010  0.00  0.00    +0.156 HD
BRANCH   8  20
ATOM     20  C   UNL     1      -5.679 -12.084  17.809  0.00  0.00    +0.035 A 
ATOM     24  C   UNL     1      -6.939 -12.636  17.583  0.00  0.00    +0.027 A 
ATOM     25  C   UNL     1      -5.492 -11.171  18.847  0.00  0.00    +0.027 A 
ATOM     26  C   UNL     1      -8.015 -12.276  18.396  0.00  0.00    +0.048 A 
ATOM     27  C   UNL     1      -6.568 -10.810  19.659  0.00  0.00    +0.048 A 
ATOM     30  C   UNL     1      -7.828 -11.363  19.434  0.00  0.00    +0.129 A 
BRANCH  30   5
ATOM      5  O   UNL     1      -8.877 -11.010  20.227  0.00  0.00    -0.456 OA
BRANCH   5  34
ATOM     34  C   UNL     1     -10.092 -10.759  19.613  0.00  0.00    +0.128 A 
ATOM     35  C   UNL     1     -10.223  -9.676  18.743  0.00  0.00    +0.046 A 
ATOM     36  C   UNL     1     -11.186 -11.586  19.865  0.00  0.00    +0.046 A 
ATOM     37  C   UNL     1     -11.448  -9.423  18.124  0.00  0.00    +0.004 A 
ATOM     38  C   UNL     1     -12.410 -11.334  19.247  0.00  0.00    +0.004 A 
ATOM     39  C   UNL     1     -12.541 -10.252  18.376  0.00  0.00    +0.000 A 
ENDBRANCH   5  34
ENDBRANCH  30   5
ENDBRANCH   8  20
ENDBRANCH  14   7
TORSDOF 6
ENDMDL
MODEL 3
REMARK VINA RESULT:      -7.9     28.027     32.650
REMARK  Name = 11941677
REMARK  6 active torsions:
REMARK  status: ('A' for Active; 'I' for Inactive)
REMARK    1  A    between atoms: O_5  and  C_30
REMARK    2  A    between atoms: O_5  and  C_34
REMARK    3  A    between atoms: N_6  and  C_13
REMARK    4  A    between atoms: N_7  and  C_14
REMARK    5  A    between atoms: N_8  and  C_20
REMARK    6  A    between atoms: C_19  and  C_23
REMARK                            x       y       z     vdW  Elec       q    Type
REMARK                         _______ _______ _______ _____ _____    ______ ____
ROOT
ATOM      2  O   UNL     1      -5.454 -11.000  19.441  0.00  0.00    -0.370 OA
ATOM      3  O   UNL     1      -6.665 -12.055  16.766  0.00  0.00    -0.370 OA
ATOM     11  C   UNL     1      -5.520 -11.243  17.075  0.00  0.00    +0.171 C 
ATOM     12  C   UNL     1      -5.902 -10.350  18.239  0.00  0.00    +0.171 C 
ATOM     13  C   UNL     1      -4.401 -12.099  17.618  0.00  0.00    +0.130 C 
ATOM     14  C   UNL     1      -7.413 -10.313  18.194  0.00  0.00    +0.131 C 
ATOM     15  C   UNL     1      -4.742 -12.196  19.094  0.00  0.00    +0.185 C 
ATOM     16  C   UNL     1      -7.755 -11.678  17.622  0.00  0.00    +0.185 C 
ENDROOT
BRANCH  13   6
ATOM      6  N   UNL     1      -3.132 -11.428  17.440  0.00  0.00    -0.306 N 
ATOM      9  N   UNL     1      -3.460 -11.214  15.151  0.00  0.00    -0.214 NA
ATOM     10  N   UNL     1      -1.464 -10.378  16.213  0.00  0.00    -0.223 NA
ATOM     17  C   UNL     1      -2.665 -10.987  16.215  0.00  0.00    +0.216 A 
ATOM     19  C   UNL     1      -2.973 -10.772  13.973  0.00  0.00    +0.076 A 
ATOM     21  C   UNL     1      -1.039  -9.961  15.002  0.00  0.00    +0.116 A 
ATOM     22  C   UNL     1      -1.757 -10.132  13.836  0.00  0.00    +0.048 A 
ATOM     40  H   UNL     1      -2.564 -11.215  18.252  0.00  0.00    +0.149 HD
BRANCH  19  23
ATOM      1  F   UNL     1      -3.995 -10.173   9.294  0.00  0.00    -0.205 F 
ATOM     23  C   UNL     1      -3.822 -11.011  12.830  0.00  0.00    +0.003 A 
ATOM     28  C   UNL     1      -3.492 -10.465  11.590  0.00  0.00    +0.048 A 
ATOM     29  C   UNL     1      -4.973 -11.787  12.967  0.00  0.00    +0.010 A 
ATOM     31  C   UNL     1      -4.312 -10.696  10.486  0.00  0.00    +0.124 A 
ATOM     32  C   UNL     1      -5.793 -12.018  11.863  0.00  0.00    +0.003 A 
ATOM     33  C   UNL     1      -5.463 -11.473  10.622  0.00  0.00    +0.038 A 
ENDBRANCH  19  23
ENDBRANCH  13   6
BRANCH  14   7
ATOM      4  O   UNL     1     -10.131  -9.783  17.460  0.00  0.00    -0.252 OA
ATOM      7  N   UNL     1      -7.884  -9.253  17.337  0.00  0.00    -0.292 N 
ATOM      8  N   UNL     1      -9.390  -7.962  16.178  0.00  0.00    -0.269 N 
ATOM     18  C   UNL     1      -9.236  -9.062  17.027  0.00  0.00    +0.304 C 
ATOM     41  H   UNL     1      -7.212  -8.574  16.994  0.00  0.00    +0.151 HD
ATOM     42  H   UNL     1      -8.541  -7.470  15.911  0.00  0.00    +0.156 HD
BRANCH   8  20
ATOM     20  C   UNL     1     -10.590  -7.443  15.639  0.00  0.00    +0.035 A 
ATOM     24  C   UNL     1     -11.182  -8.058  14.536  0.00  0.00    +0.027 A 
ATOM     25  C   UNL     1     -11.180  -6.315  16.210  0.00  0.00    +0.027 A 
ATOM     26  C   UNL     1     -12.366  -7.545  14.003  0.00  0.00    +0.048 A 
ATOM     27  C   UNL     1     -12.363  -5.802  15.677  0.00  0.00    +0.048 A 
ATOM     30  C   UNL     1     -12.956  -6.418  14.574  0.00  0.00    +0.129 A 
BRANCH  30   5
ATOM      5  O   UNL     1     -14.110  -5.917  14.055  0.00  0.00    -0.456 OA
BRANCH   5  34
ATOM     34  C   UNL     1     -14.006  -4.988  13.034  0.00  0.00    +0.128 A 
ATOM     35  C   UNL     1     -12.756  -4.489  12.670  0.00  0.00    +0.046 A 
ATOM     36  C   UNL     1     -15.152  -4.550  12.370  0.00  0.00    +0.046 A 
ATOM     37  C   UNL     1     -12.652  -3.552  11.641  0.00  0.00    +0.004 A 
ATOM     38  C   UNL     1     -15.048  -3.614  11.341  0.00  0.00    +0.004 A 
ATOM     39  C   UNL     1     -13.798  -3.115  10.976  0.00  0.00    +0.000 A 
ENDBRANCH   5  34
ENDBRANCH  30   5
ENDBRANCH   8  20
ENDBRANCH  14   7
TORSDOF 6
ENDMDL
MODEL 4
REMARK VINA RESULT:      -7.8     28.926     32.058
REMARK  Name = 11941677
REMARK  6 active torsions:
REMARK  status: ('A' for Active; 'I' for Inactive)
REMARK    1  A    between atoms: O_5  and  C_30
REMARK    2  A    between atoms: O_5  and  C_34
REMARK    3  A    between atoms: N_6  and  C_13
REMARK    4  A    between atoms: N_7  and  C_14
REMARK    5  A    between atoms: N_8  and  C_20
REMARK    6  A    between atoms: C_19  and  C_23
REMARK                            x       y       z     vdW  Elec       q    Type
REMARK                         _______ _______ _______ _____ _____    ______ ____
ROOT
ATOM      2  O   UNL     1      -5.652  -9.069  10.538  0.00  0.00    -0.370 OA
ATOM      3  O   UNL     1      -6.881 -11.881  11.098  0.00  0.00    -0.370 OA
ATOM     11  C   UNL     1      -5.534 -11.381  11.086  0.00  0.00    +0.171 C 
ATOM     12  C   UNL     1      -5.440 -10.368   9.961  0.00  0.00    +0.171 C 
ATOM     13  C   UNL     1      -5.262 -10.575  12.333  0.00  0.00    +0.130 C 
ATOM     14  C   UNL     1      -6.588 -10.729   9.044  0.00  0.00    +0.131 C 
ATOM     15  C   UNL     1      -5.785  -9.199  11.961  0.00  0.00    +0.185 C 
ATOM     16  C   UNL     1      -7.613 -11.291  10.013  0.00  0.00    +0.185 C 
ENDROOT
BRANCH  13   6
ATOM      6  N   UNL     1      -3.839 -10.518  12.586  0.00  0.00    -0.306 N 
ATOM      9  N   UNL     1      -4.145 -10.675  14.882  0.00  0.00    -0.214 NA
ATOM     10  N   UNL     1      -1.940 -10.507  13.922  0.00  0.00    -0.223 NA
ATOM     17  C   UNL     1      -3.283 -10.569  13.852  0.00  0.00    +0.216 A 
ATOM     19  C   UNL     1      -3.570 -10.721  16.102  0.00  0.00    +0.076 A 
ATOM     21  C   UNL     1      -1.433 -10.558  15.172  0.00  0.00    +0.116 A 
ATOM     22  C   UNL     1      -2.206 -10.667  16.310  0.00  0.00    +0.048 A 
ATOM     40  H   UNL     1      -3.194 -10.491  11.803  0.00  0.00    +0.149 HD
BRANCH  19  23
ATOM      1  F   UNL     1      -7.808  -9.699  18.172  0.00  0.00    -0.205 F 
ATOM     23  C   UNL     1      -4.489 -10.836  17.209  0.00  0.00    +0.003 A 
ATOM     28  C   UNL     1      -5.728 -10.199  17.154  0.00  0.00    +0.048 A 
ATOM     29  C   UNL     1      -4.136 -11.581  18.334  0.00  0.00    +0.010 A 
ATOM     31  C   UNL     1      -6.616 -10.310  18.225  0.00  0.00    +0.124 A 
ATOM     32  C   UNL     1      -5.024 -11.691  19.404  0.00  0.00    +0.003 A 
ATOM     33  C   UNL     1      -6.264 -11.056  19.349  0.00  0.00    +0.038 A 
ENDBRANCH  19  23
ENDBRANCH  13   6
BRANCH  14   7
ATOM      4  O   UNL     1      -5.177 -10.253   6.597  0.00  0.00    -0.252 OA
ATOM      7  N   UNL     1      -6.188 -11.718   8.072  0.00  0.00    -0.292 N 
ATOM      8  N   UNL     1      -5.247 -12.557   6.153  0.00  0.00    -0.269 N 
ATOM     18  C   UNL     1      -5.498 -11.400   6.897  0.00  0.00    +0.304 C 
ATOM     41  H   UNL     1      -6.358 -12.697   8.282  0.00  0.00    +0.151 HD
ATOM     42  H   UNL     1      -5.584 -13.433   6.545  0.00  0.00    +0.156 HD
BRANCH   8  20
ATOM     20  C   UNL     1      -4.579 -12.663   4.910  0.00  0.00    +0.035 A 
ATOM     24  C   UNL     1      -3.186 -12.715   4.871  0.00  0.00    +0.027 A 
ATOM     25  C   UNL     1      -5.313 -12.713   3.726  0.00  0.00    +0.027 A 
ATOM     26  C   UNL     1      -2.526 -12.819   3.646  0.00  0.00    +0.048 A 
ATOM     27  C   UNL     1      -4.654 -12.816   2.501  0.00  0.00    +0.048 A 
ATOM     30  C   UNL     1      -3.261 -12.869   2.462  0.00  0.00    +0.129 A 
BRANCH  30   5
ATOM      5  O   UNL     1      -2.618 -12.970   1.266  0.00  0.00    -0.456 OA
BRANCH   5  34
ATOM     34  C   UNL     1      -1.924 -14.140   1.005  0.00  0.00    +0.128 A 
ATOM     35  C   UNL     1      -2.617 -15.338   0.830  0.00  0.00    +0.046 A 
ATOM     36  C   UNL     1      -0.532 -14.121   0.921  0.00  0.00    +0.046 A 
ATOM     37  C   UNL     1      -1.916 -16.516   0.568  0.00  0.00    +0.004 A 
ATOM     38  C   UNL     1       0.168 -15.299   0.659  0.00  0.00    +0.004 A 
ATOM     39  C   UNL     1      -0.525 -16.497   0.482  0.00  0.00    +0.000 A 
ENDBRANCH   5  34
ENDBRANCH  30   5
ENDBRANCH   8  20
ENDBRANCH  14   7
TORSDOF 6
ENDMDL
MODEL 5
REMARK VINA RESULT:      -7.8     19.625     24.235
REMARK  Name = 11941677
REMARK  6 active torsions:
REMARK  status: ('A' for Active; 'I' for Inactive)
REMARK    1  A    between atoms: O_5  and  C_30
REMARK    2  A    between atoms: O_5  and  C_34
REMARK    3  A    between atoms: N_6  and  C_13
REMARK    4  A    between atoms: N_7  and  C_14
REMARK    5  A    between atoms: N_8  and  C_20
REMARK    6  A    between atoms: C_19  and  C_23
REMARK                            x       y       z     vdW  Elec       q    Type
REMARK                         _______ _______ _______ _____ _____    ______ ____
ROOT
ATOM      2  O   UNL     1      11.753   3.621   0.477  0.00  0.00    -0.370 OA
ATOM      3  O   UNL     1      12.191   6.705   0.640  0.00  0.00    -0.370 OA
ATOM     11  C   UNL     1      11.270   5.807   1.281  0.00  0.00    +0.171 C 
ATOM     12  C   UNL     1      10.890   4.750   0.262  0.00  0.00    +0.171 C 
ATOM     13  C   UNL     1      11.967   5.033   2.374  0.00  0.00    +0.130 C 
ATOM     14  C   UNL     1      11.193   5.397  -1.070  0.00  0.00    +0.131 C 
ATOM     15  C   UNL     1      12.586   3.872   1.617  0.00  0.00    +0.185 C 
ATOM     16  C   UNL     1      12.357   6.311  -0.730  0.00  0.00    +0.185 C 
ENDROOT
BRANCH  13   6
ATOM      6  N   UNL     1      10.998   4.547   3.332  0.00  0.00    -0.306 N 
ATOM      9  N   UNL     1      11.511   6.230   4.848  0.00  0.00    -0.214 NA
ATOM     10  N   UNL     1       9.833   4.571   5.340  0.00  0.00    -0.223 NA
ATOM     17  C   UNL     1      10.770   5.142   4.560  0.00  0.00    +0.216 A 
ATOM     19  C   UNL     1      11.265   6.783   6.053  0.00  0.00    +0.076 A 
ATOM     21  C   UNL     1       9.638   5.177   6.531  0.00  0.00    +0.116 A 
ATOM     22  C   UNL     1      10.330   6.296   6.945  0.00  0.00    +0.048 A 
ATOM     40  H   UNL     1      10.407   3.760   3.087  0.00  0.00    +0.149 HD
BRANCH  19  23
ATOM      1  F   UNL     1      15.543   8.983   6.439  0.00  0.00    -0.205 F 
ATOM     23  C   UNL     1      12.055   7.950   6.365  0.00  0.00    +0.003 A 
ATOM     28  C   UNL     1      13.444   7.901   6.249  0.00  0.00    +0.048 A 
ATOM     29  C   UNL     1      11.430   9.124   6.784  0.00  0.00    +0.010 A 
ATOM     31  C   UNL     1      14.209   9.029   6.551  0.00  0.00    +0.124 A 
ATOM     32  C   UNL     1      12.195  10.251   7.086  0.00  0.00    +0.003 A 
ATOM     33  C   UNL     1      13.583  10.204   6.969  0.00  0.00    +0.038 A 
ENDBRANCH  19  23
ENDBRANCH  13   6
BRANCH  14   7
ATOM      4  O   UNL     1       9.015   4.396  -2.639  0.00  0.00    -0.252 OA
ATOM      7  N   UNL     1      10.061   6.150  -1.555  0.00  0.00    -0.292 N 
ATOM      8  N   UNL     1       8.078   6.548  -2.644  0.00  0.00    -0.269 N 
ATOM     18  C   UNL     1       9.035   5.582  -2.319  0.00  0.00    +0.304 C 
ATOM     41  H   UNL     1       9.971   7.121  -1.274  0.00  0.00    +0.151 HD
ATOM     42  H   UNL     1       8.247   7.490  -2.299  0.00  0.00    +0.156 HD
BRANCH   8  20
ATOM     20  C   UNL     1       6.894   6.379  -3.399  0.00  0.00    +0.035 A 
ATOM     24  C   UNL     1       6.967   5.917  -4.713  0.00  0.00    +0.027 A 
ATOM     25  C   UNL     1       5.656   6.674  -2.829  0.00  0.00    +0.027 A 
ATOM     26  C   UNL     1       5.799   5.750  -5.459  0.00  0.00    +0.048 A 
ATOM     27  C   UNL     1       4.489   6.508  -3.575  0.00  0.00    +0.048 A 
ATOM     30  C   UNL     1       4.561   6.045  -4.889  0.00  0.00    +0.129 A 
BRANCH  30   5
ATOM      5  O   UNL     1       3.421   5.883  -5.616  0.00  0.00    -0.456 OA
BRANCH   5  34
ATOM     34  C   UNL     1       2.654   4.757  -5.366  0.00  0.00    +0.128 A 
ATOM     35  C   UNL     1       3.018   3.529  -5.918  0.00  0.00    +0.046 A 
ATOM     36  C   UNL     1       1.516   4.852  -4.565  0.00  0.00    +0.046 A 
ATOM     37  C   UNL     1       2.244   2.395  -5.667  0.00  0.00    +0.004 A 
ATOM     38  C   UNL     1       0.743   3.718  -4.313  0.00  0.00    +0.004 A 
ATOM     39  C   UNL     1       1.108   2.490  -4.864  0.00  0.00    +0.000 A 
ENDBRANCH   5  34
ENDBRANCH  30   5
ENDBRANCH   8  20
ENDBRANCH  14   7
TORSDOF 6
ENDMDL
MODEL 6
REMARK VINA RESULT:      -7.8     29.453     33.528
REMARK  Name = 11941677
REMARK  6 active torsions:
REMARK  status: ('A' for Active; 'I' for Inactive)
REMARK    1  A    between atoms: O_5  and  C_30
REMARK    2  A    between atoms: O_5  and  C_34
REMARK    3  A    between atoms: N_6  and  C_13
REMARK    4  A    between atoms: N_7  and  C_14
REMARK    5  A    between atoms: N_8  and  C_20
REMARK    6  A    between atoms: C_19  and  C_23
REMARK                            x       y       z     vdW  Elec       q    Type
REMARK                         _______ _______ _______ _____ _____    ______ ____
ROOT
ATOM      2  O   UNL     1      -5.411  -7.967  10.171  0.00  0.00    -0.370 OA
ATOM      3  O   UNL     1      -7.536 -10.219   9.786  0.00  0.00    -0.370 OA
ATOM     11  C   UNL     1      -6.099 -10.215   9.802  0.00  0.00    +0.171 C 
ATOM     12  C   UNL     1      -5.646  -8.932   9.132  0.00  0.00    +0.171 C 
ATOM     13  C   UNL     1      -5.590 -10.092  11.218  0.00  0.00    +0.130 C 
ATOM     14  C   UNL     1      -6.831  -8.519   8.288  0.00  0.00    +0.131 C 
ATOM     15  C   UNL     1      -5.606  -8.592  11.448  0.00  0.00    +0.185 C 
ATOM     16  C   UNL     1      -8.004  -9.053   9.092  0.00  0.00    +0.185 C 
ENDROOT
BRANCH  13   6
ATOM      6  N   UNL     1      -4.238 -10.598  11.304  0.00  0.00    -0.306 N 
ATOM      9  N   UNL     1      -4.324 -10.702  13.622  0.00  0.00    -0.214 NA
ATOM     10  N   UNL     1      -2.348 -11.366  12.413  0.00  0.00    -0.223 NA
ATOM     17  C   UNL     1      -3.609 -10.902  12.498  0.00  0.00    +0.216 A 
ATOM     19  C   UNL     1      -3.681 -11.008  14.768  0.00  0.00    +0.076 A 
ATOM     21  C   UNL     1      -1.765 -11.651  13.596  0.00  0.00    +0.116 A 
ATOM     22  C   UNL     1      -2.388 -11.491  14.817  0.00  0.00    +0.048 A 
ATOM     40  H   UNL     1      -3.724 -10.795  10.452  0.00  0.00    +0.149 HD
BRANCH  19  23
ATOM      1  F   UNL     1      -7.420  -9.022  17.085  0.00  0.00    -0.205 F 
ATOM     23  C   UNL     1      -4.443 -10.796  15.975  0.00  0.00    +0.003 A 
ATOM     28  C   UNL     1      -5.585  -9.995  15.946  0.00  0.00    +0.048 A 
ATOM     29  C   UNL     1      -4.037 -11.390  17.170  0.00  0.00    +0.010 A 
ATOM     31  C   UNL     1      -6.322  -9.790  17.113  0.00  0.00    +0.124 A 
ATOM     32  C   UNL     1      -4.774 -11.184  18.336  0.00  0.00    +0.003 A 
ATOM     33  C   UNL     1      -5.916 -10.385  18.308  0.00  0.00    +0.038 A 
ENDBRANCH  19  23
ENDBRANCH  13   6
BRANCH  14   7
ATOM      4  O   UNL     1      -8.180  -7.615   5.928  0.00  0.00    -0.252 OA
ATOM      7  N   UNL     1      -6.776  -9.122   6.979  0.00  0.00    -0.292 N 
ATOM      8  N   UNL     1      -7.226  -9.404   4.744  0.00  0.00    -0.269 N 
ATOM     18  C   UNL     1      -7.468  -8.615   5.873  0.00  0.00    +0.304 C 
ATOM     41  H   UNL     1      -6.155  -9.912   6.837  0.00  0.00    +0.151 HD
ATOM     42  H   UNL     1      -6.609 -10.202   4.870  0.00  0.00    +0.156 HD
BRANCH   8  20
ATOM     20  C   UNL     1      -7.736  -9.229   3.437  0.00  0.00    +0.035 A 
ATOM     24  C   UNL     1      -8.267 -10.317   2.745  0.00  0.00    +0.027 A 
ATOM     25  C   UNL     1      -7.708  -7.968   2.841  0.00  0.00    +0.027 A 
ATOM     26  C   UNL     1      -8.771 -10.145   1.454  0.00  0.00    +0.048 A 
ATOM     27  C   UNL     1      -8.210  -7.796   1.550  0.00  0.00    +0.048 A 
ATOM     30  C   UNL     1      -8.742  -8.884   0.858  0.00  0.00    +0.129 A 
BRANCH  30   5
ATOM      5  O   UNL     1      -9.233  -8.715  -0.400  0.00  0.00    -0.456 OA
BRANCH   5  34
ATOM     34  C   UNL     1      -8.525  -9.281  -1.448  0.00  0.00    +0.128 A 
ATOM     35  C   UNL     1      -7.277  -8.769  -1.804  0.00  0.00    +0.046 A 
ATOM     36  C   UNL     1      -9.061 -10.361  -2.149  0.00  0.00    +0.046 A 
ATOM     37  C   UNL     1      -6.565  -9.340  -2.860  0.00  0.00    +0.004 A 
ATOM     38  C   UNL     1      -8.349 -10.932  -3.203  0.00  0.00    +0.004 A 
ATOM     39  C   UNL     1      -7.101 -10.421  -3.559  0.00  0.00    +0.000 A 
ENDBRANCH   5  34
ENDBRANCH  30   5
ENDBRANCH   8  20
ENDBRANCH  14   7
TORSDOF 6
ENDMDL
MODEL 7
REMARK VINA RESULT:      -7.7     28.652     31.483
REMARK  Name = 11941677
REMARK  6 active torsions:
REMARK  status: ('A' for Active; 'I' for Inactive)
REMARK    1  A    between atoms: O_5  and  C_30
REMARK    2  A    between atoms: O_5  and  C_34
REMARK    3  A    between atoms: N_6  and  C_13
REMARK    4  A    between atoms: N_7  and  C_14
REMARK    5  A    between atoms: N_8  and  C_20
REMARK    6  A    between atoms: C_19  and  C_23
REMARK                            x       y       z     vdW  Elec       q    Type
REMARK                         _______ _______ _______ _____ _____    ______ ____
ROOT
ATOM      2  O   UNL     1      -4.462  -9.759   9.731  0.00  0.00    -0.370 OA
ATOM      3  O   UNL     1      -5.601 -12.420  10.895  0.00  0.00    -0.370 OA
ATOM     11  C   UNL     1      -4.324 -11.768  10.997  0.00  0.00    +0.171 C 
ATOM     12  C   UNL     1      -4.036 -11.130   9.652  0.00  0.00    +0.171 C 
ATOM     13  C   UNL     1      -4.405 -10.601  11.951  0.00  0.00    +0.130 C 
ATOM     14  C   UNL     1      -4.910 -11.897   8.686  0.00  0.00    +0.131 C 
ATOM     15  C   UNL     1      -4.916  -9.480  11.063  0.00  0.00    +0.185 C 
ATOM     16  C   UNL     1      -6.095 -12.281   9.554  0.00  0.00    +0.185 C 
ENDROOT
BRANCH  13   6
ATOM      6  N   UNL     1      -3.088 -10.280  12.455  0.00  0.00    -0.306 N 
ATOM      9  N   UNL     1      -3.671 -10.868  14.624  0.00  0.00    -0.214 NA
ATOM     10  N   UNL     1      -1.457 -10.075  14.095  0.00  0.00    -0.223 NA
ATOM     17  C   UNL     1      -2.722 -10.414  13.782  0.00  0.00    +0.216 A 
ATOM     19  C   UNL     1      -3.281 -10.986  15.910  0.00  0.00    +0.076 A 
ATOM     21  C   UNL     1      -1.135 -10.218  15.398  0.00  0.00    +0.116 A 
ATOM     22  C   UNL     1      -2.014 -10.673  16.360  0.00  0.00    +0.048 A 
ATOM     40  H   UNL     1      -2.364  -9.988  11.807  0.00  0.00    +0.149 HD
BRANCH  19  23
ATOM      1  F   UNL     1      -6.129 -10.373  19.758  0.00  0.00    -0.205 F 
ATOM     23  C   UNL     1      -4.294 -11.474  16.816  0.00  0.00    +0.003 A 
ATOM     28  C   UNL     1      -4.730 -10.672  17.870  0.00  0.00    +0.048 A 
ATOM     29  C   UNL     1      -4.834 -12.748  16.638  0.00  0.00    +0.010 A 
ATOM     31  C   UNL     1      -5.709 -11.143  18.746  0.00  0.00    +0.124 A 
ATOM     32  C   UNL     1      -5.812 -13.218  17.513  0.00  0.00    +0.003 A 
ATOM     33  C   UNL     1      -6.250 -12.417  18.567  0.00  0.00    +0.038 A 
ENDBRANCH  19  23
ENDBRANCH  13   6
BRANCH  14   7
ATOM      4  O   UNL     1      -3.707 -12.196   6.103  0.00  0.00    -0.252 OA
ATOM      7  N   UNL     1      -4.230 -13.065   8.181  0.00  0.00    -0.292 N 
ATOM      8  N   UNL     1      -3.078 -14.380   6.691  0.00  0.00    -0.269 N 
ATOM     18  C   UNL     1      -3.667 -13.129   6.901  0.00  0.00    +0.304 C 
ATOM     41  H   UNL     1      -4.096 -13.853   8.806  0.00  0.00    +0.151 HD
ATOM     42  H   UNL     1      -3.135 -15.044   7.458  0.00  0.00    +0.156 HD
BRANCH   8  20
ATOM     20  C   UNL     1      -2.408 -14.840   5.533  0.00  0.00    +0.035 A 
ATOM     24  C   UNL     1      -1.040 -14.614   5.384  0.00  0.00    +0.027 A 
ATOM     25  C   UNL     1      -3.116 -15.520   4.542  0.00  0.00    +0.027 A 
ATOM     26  C   UNL     1      -0.379 -15.068   4.242  0.00  0.00    +0.048 A 
ATOM     27  C   UNL     1      -2.456 -15.973   3.400  0.00  0.00    +0.048 A 
ATOM     30  C   UNL     1      -1.087 -15.748   3.251  0.00  0.00    +0.129 A 
BRANCH  30   5
ATOM      5  O   UNL     1      -0.443 -16.191   2.136  0.00  0.00    -0.456 OA
BRANCH   5  34
ATOM     34  C   UNL     1       0.713 -15.530   1.756  0.00  0.00    +0.128 A 
ATOM     35  C   UNL     1       0.630 -14.337   1.038  0.00  0.00    +0.046 A 
ATOM     36  C   UNL     1       1.960 -16.058   2.090  0.00  0.00    +0.046 A 
ATOM     37  C   UNL     1       1.796 -13.672   0.654  0.00  0.00    +0.004 A 
ATOM     38  C   UNL     1       3.125 -15.393   1.707  0.00  0.00    +0.004 A 
ATOM     39  C   UNL     1       3.043 -14.199   0.989  0.00  0.00    +0.000 A 
ENDBRANCH   5  34
ENDBRANCH  30   5
ENDBRANCH   8  20
ENDBRANCH  14   7
TORSDOF 6
ENDMDL
MODEL 8
REMARK VINA RESULT:      -7.6     18.368     24.407
REMARK  Name = 11941677
REMARK  6 active torsions:
REMARK  status: ('A' for Active; 'I' for Inactive)
REMARK    1  A    between atoms: O_5  and  C_30
REMARK    2  A    between atoms: O_5  and  C_34
REMARK    3  A    between atoms: N_6  and  C_13
REMARK    4  A    between atoms: N_7  and  C_14
REMARK    5  A    between atoms: N_8  and  C_20
REMARK    6  A    between atoms: C_19  and  C_23
REMARK                            x       y       z     vdW  Elec       q    Type
REMARK                         _______ _______ _______ _____ _____    ______ ____
ROOT
ATOM      2  O   UNL     1       6.471  11.799   1.684  0.00  0.00    -0.370 OA
ATOM      3  O   UNL     1       5.485  10.588   4.385  0.00  0.00    -0.370 OA
ATOM     11  C   UNL     1       6.023  10.008   3.185  0.00  0.00    +0.171 C 
ATOM     12  C   UNL     1       5.483  10.810   2.017  0.00  0.00    +0.171 C 
ATOM     13  C   UNL     1       7.516  10.223   3.122  0.00  0.00    +0.130 C 
ATOM     14  C   UNL     1       4.241  11.473   2.568  0.00  0.00    +0.131 C 
ATOM     15  C   UNL     1       7.627  11.609   2.513  0.00  0.00    +0.185 C 
ATOM     16  C   UNL     1       4.595  11.658   4.034  0.00  0.00    +0.185 C 
ENDROOT
BRANCH  13   6
ATOM      6  N   UNL     1       8.122   9.242   2.249  0.00  0.00    -0.306 N 
ATOM      9  N   UNL     1       8.702   7.874   4.033  0.00  0.00    -0.214 NA
ATOM     10  N   UNL     1       9.229   7.261   1.762  0.00  0.00    -0.223 NA
ATOM     17  C   UNL     1       8.710   8.075   2.701  0.00  0.00    +0.216 A 
ATOM     19  C   UNL     1       9.284   6.727   4.439  0.00  0.00    +0.076 A 
ATOM     21  C   UNL     1       9.796   6.132   2.239  0.00  0.00    +0.116 A 
ATOM     22  C   UNL     1       9.852   5.808   3.579  0.00  0.00    +0.048 A 
ATOM     40  H   UNL     1       8.078   9.375   1.244  0.00  0.00    +0.149 HD
BRANCH  19  23
ATOM      1  F   UNL     1      10.035   3.872   8.257  0.00  0.00    -0.205 F 
ATOM     23  C   UNL     1       9.277   6.507   5.865  0.00  0.00    +0.003 A 
ATOM     28  C   UNL     1       9.666   5.271   6.382  0.00  0.00    +0.048 A 
ATOM     29  C   UNL     1       8.879   7.529   6.727  0.00  0.00    +0.010 A 
ATOM     31  C   UNL     1       9.659   5.058   7.760  0.00  0.00    +0.124 A 
ATOM     32  C   UNL     1       8.872   7.316   8.105  0.00  0.00    +0.003 A 
ATOM     33  C   UNL     1       9.262   6.081   8.622  0.00  0.00    +0.038 A 
ENDBRANCH  19  23
ENDBRANCH  13   6
BRANCH  14   7
ATOM      4  O   UNL     1       1.557  12.073   3.373  0.00  0.00    -0.252 OA
ATOM      7  N   UNL     1       3.083  10.625   2.412  0.00  0.00    -0.292 N 
ATOM      8  N   UNL     1       0.884   9.978   2.553  0.00  0.00    -0.269 N 
ATOM     18  C   UNL     1       1.801  10.996   2.834  0.00  0.00    +0.304 C 
ATOM     41  H   UNL     1       3.191   9.747   1.914  0.00  0.00    +0.151 HD
ATOM     42  H   UNL     1       1.252   9.145   2.102  0.00  0.00    +0.156 HD
BRANCH   8  20
ATOM     20  C   UNL     1      -0.505   9.963   2.821  0.00  0.00    +0.035 A 
ATOM     24  C   UNL     1      -0.960   9.950   4.139  0.00  0.00    +0.027 A 
ATOM     25  C   UNL     1      -1.418   9.959   1.767  0.00  0.00    +0.027 A 
ATOM     26  C   UNL     1      -2.330   9.935   4.404  0.00  0.00    +0.048 A 
ATOM     27  C   UNL     1      -2.788   9.943   2.032  0.00  0.00    +0.048 A 
ATOM     30  C   UNL     1      -3.243   9.931   3.350  0.00  0.00    +0.129 A 
BRANCH  30   5
ATOM      5  O   UNL     1      -4.580   9.916   3.607  0.00  0.00    -0.456 OA
BRANCH   5  34
ATOM     34  C   UNL     1      -5.149   8.709   3.978  0.00  0.00    +0.128 A 
ATOM     35  C   UNL     1      -4.402   7.777   4.697  0.00  0.00    +0.046 A 
ATOM     36  C   UNL     1      -6.470   8.425   3.630  0.00  0.00    +0.046 A 
ATOM     37  C   UNL     1      -4.977   6.561   5.070  0.00  0.00    +0.004 A 
ATOM     38  C   UNL     1      -7.044   7.210   4.003  0.00  0.00    +0.004 A 
ATOM     39  C   UNL     1      -6.297   6.277   4.723  0.00  0.00    +0.000 A 
ENDBRANCH   5  34
ENDBRANCH  30   5
ENDBRANCH   8  20
ENDBRANCH  14   7
TORSDOF 6
ENDMDL
MODEL 9
REMARK VINA RESULT:      -7.6     30.290     33.466
REMARK  Name = 11941677
REMARK  6 active torsions:
REMARK  status: ('A' for Active; 'I' for Inactive)
REMARK    1  A    between atoms: O_5  and  C_30
REMARK    2  A    between atoms: O_5  and  C_34
REMARK    3  A    between atoms: N_6  and  C_13
REMARK    4  A    between atoms: N_7  and  C_14
REMARK    5  A    between atoms: N_8  and  C_20
REMARK    6  A    between atoms: C_19  and  C_23
REMARK                            x       y       z     vdW  Elec       q    Type
REMARK                         _______ _______ _______ _____ _____    ______ ____
ROOT
ATOM      2  O   UNL     1      -7.506  -8.204   2.340  0.00  0.00    -0.370 OA
ATOM      3  O   UNL     1      -9.979  -8.344   4.237  0.00  0.00    -0.370 OA
ATOM     11  C   UNL     1      -9.045  -7.301   3.914  0.00  0.00    +0.171 C 
ATOM     12  C   UNL     1      -7.685  -7.952   3.744  0.00  0.00    +0.171 C 
ATOM     13  C   UNL     1      -9.351  -6.724   2.553  0.00  0.00    +0.130 C 
ATOM     14  C   UNL     1      -7.804  -9.255   4.502  0.00  0.00    +0.131 C 
ATOM     15  C   UNL     1      -8.627  -7.675   1.618  0.00  0.00    +0.185 C 
ATOM     16  C   UNL     1      -9.277  -9.591   4.341  0.00  0.00    +0.185 C 
ENDROOT
BRANCH  13   6
ATOM      6  N   UNL     1      -8.796  -5.393   2.442  0.00  0.00    -0.306 N 
ATOM      9  N   UNL     1     -10.453  -4.724   0.959  0.00  0.00    -0.214 NA
ATOM     10  N   UNL     1      -8.711  -3.210   1.656  0.00  0.00    -0.223 NA
ATOM     17  C   UNL     1      -9.344  -4.398   1.651  0.00  0.00    +0.216 A 
ATOM     19  C   UNL     1     -10.960  -3.732   0.198  0.00  0.00    +0.076 A 
ATOM     21  C   UNL     1      -9.272  -2.264   0.873  0.00  0.00    +0.116 A 
ATOM     22  C   UNL     1     -10.407  -2.469   0.115  0.00  0.00    +0.048 A 
ATOM     40  H   UNL     1      -7.992  -5.140   3.007  0.00  0.00    +0.149 HD
BRANCH  19  23
ATOM      1  F   UNL     1     -15.585  -2.946  -0.932  0.00  0.00    -0.205 F 
ATOM     23  C   UNL     1     -12.148  -4.075  -0.545  0.00  0.00    +0.003 A 
ATOM     28  C   UNL     1     -13.315  -3.330  -0.375  0.00  0.00    +0.048 A 
ATOM     29  C   UNL     1     -12.130  -5.152  -1.431  0.00  0.00    +0.010 A 
ATOM     31  C   UNL     1     -14.464  -3.662  -1.093  0.00  0.00    +0.124 A 
ATOM     32  C   UNL     1     -13.279  -5.484  -2.149  0.00  0.00    +0.003 A 
ATOM     33  C   UNL     1     -14.446  -4.739  -1.980  0.00  0.00    +0.038 A 
ENDBRANCH  19  23
ENDBRANCH  13   6
BRANCH  14   7
ATOM      4  O   UNL     1      -5.544 -10.387   5.850  0.00  0.00    -0.252 OA
ATOM      7  N   UNL     1      -7.454  -9.085   5.891  0.00  0.00    -0.292 N 
ATOM      8  N   UNL     1      -6.245  -9.335   7.828  0.00  0.00    -0.269 N 
ATOM     18  C   UNL     1      -6.327  -9.675   6.474  0.00  0.00    +0.304 C 
ATOM     41  H   UNL     1      -8.015  -8.455   6.457  0.00  0.00    +0.151 HD
ATOM     42  H   UNL     1      -6.980  -8.734   8.192  0.00  0.00    +0.156 HD
BRANCH   8  20
ATOM     20  C   UNL     1      -5.259  -9.728   8.764  0.00  0.00    +0.035 A 
ATOM     24  C   UNL     1      -5.203 -11.050   9.203  0.00  0.00    +0.027 A 
ATOM     25  C   UNL     1      -4.345  -8.791   9.246  0.00  0.00    +0.027 A 
ATOM     26  C   UNL     1      -4.231 -11.437  10.127  0.00  0.00    +0.048 A 
ATOM     27  C   UNL     1      -3.374  -9.178  10.170  0.00  0.00    +0.048 A 
ATOM     30  C   UNL     1      -3.317 -10.501  10.609  0.00  0.00    +0.129 A 
BRANCH  30   5
ATOM      5  O   UNL     1      -2.368 -10.877  11.510  0.00  0.00    -0.456 OA
BRANCH   5  34
ATOM     34  C   UNL     1      -2.691 -10.797  12.855  0.00  0.00    +0.128 A 
ATOM     35  C   UNL     1      -4.026 -10.855  13.257  0.00  0.00    +0.046 A 
ATOM     36  C   UNL     1      -1.682 -10.657  13.807  0.00  0.00    +0.046 A 
ATOM     37  C   UNL     1      -4.350 -10.774  14.612  0.00  0.00    +0.004 A 
ATOM     38  C   UNL     1      -2.006 -10.576  15.162  0.00  0.00    +0.004 A 
ATOM     39  C   UNL     1      -3.341 -10.635  15.564  0.00  0.00    +0.000 A 
ENDBRANCH   5  34
ENDBRANCH  30   5
ENDBRANCH   8  20
ENDBRANCH  14   7
TORSDOF 6
ENDMDL
MODEL 10
REMARK VINA RESULT:      -7.6     30.735     33.965
REMARK  Name = 11941677
REMARK  6 active torsions:
REMARK  status: ('A' for Active; 'I' for Inactive)
REMARK    1  A    between atoms: O_5  and  C_30
REMARK    2  A    between atoms: O_5  and  C_34
REMARK    3  A    between atoms: N_6  and  C_13
REMARK    4  A    between atoms: N_7  and  C_14
REMARK    5  A    between atoms: N_8  and  C_20
REMARK    6  A    between atoms: C_19  and  C_23
REMARK                            x       y       z     vdW  Elec       q    Type
REMARK                         _______ _______ _______ _____ _____    ______ ____
ROOT
ATOM      2  O   UNL     1      -9.559 -10.060   5.043  0.00  0.00    -0.370 OA
ATOM      3  O   UNL     1      -8.122  -7.308   4.740  0.00  0.00    -0.370 OA
ATOM     11  C   UNL     1      -7.902  -8.601   4.154  0.00  0.00    +0.171 C 
ATOM     12  C   UNL     1      -8.198  -9.635   5.224  0.00  0.00    +0.171 C 
ATOM     13  C   UNL     1      -8.931  -8.874   3.083  0.00  0.00    +0.130 C 
ATOM     14  C   UNL     1      -8.053  -8.873   6.522  0.00  0.00    +0.131 C 
ATOM     15  C   UNL     1     -10.102  -9.422   3.878  0.00  0.00    +0.185 C 
ATOM     16  C   UNL     1      -8.471  -7.469   6.123  0.00  0.00    +0.185 C 
ENDROOT
BRANCH  13   6
ATOM      6  N   UNL     1      -8.437  -9.876   2.164  0.00  0.00    -0.306 N 
ATOM      9  N   UNL     1      -9.491  -8.871   0.355  0.00  0.00    -0.214 NA
ATOM     10  N   UNL     1      -8.178 -10.875   0.085  0.00  0.00    -0.223 NA
ATOM     17  C   UNL     1      -8.714  -9.874   0.809  0.00  0.00    +0.216 A 
ATOM     19  C   UNL     1      -9.741  -8.901  -0.970  0.00  0.00    +0.076 A 
ATOM     21  C   UNL     1      -8.469 -10.843  -1.233  0.00  0.00    +0.116 A 
ATOM     22  C   UNL     1      -9.252  -9.871  -1.822  0.00  0.00    +0.048 A 
ATOM     40  H   UNL     1      -7.810 -10.597   2.504  0.00  0.00    +0.149 HD
BRANCH  19  23
ATOM      1  F   UNL     1     -11.744  -6.471  -4.627  0.00  0.00    -0.205 F 
ATOM     23  C   UNL     1     -10.572  -7.828  -1.462  0.00  0.00    +0.003 A 
ATOM     28  C   UNL     1     -10.759  -7.665  -2.834  0.00  0.00    +0.048 A 
ATOM     29  C   UNL     1     -11.186  -6.954  -0.564  0.00  0.00    +0.010 A 
ATOM     31  C   UNL     1     -11.563  -6.627  -3.309  0.00  0.00    +0.124 A 
ATOM     32  C   UNL     1     -11.989  -5.918  -1.039  0.00  0.00    +0.003 A 
ATOM     33  C   UNL     1     -12.178  -5.754  -2.411  0.00  0.00    +0.038 A 
ENDBRANCH  19  23
ENDBRANCH  13   6
BRANCH  14   7
ATOM      4  O   UNL     1      -7.070 -10.230   8.846  0.00  0.00    -0.252 OA
ATOM      7  N   UNL     1      -6.690  -8.899   6.994  0.00  0.00    -0.292 N 
ATOM      8  N   UNL     1      -4.917  -9.435   8.352  0.00  0.00    -0.269 N 
ATOM     18  C   UNL     1      -6.291  -9.590   8.144  0.00  0.00    +0.304 C 
ATOM     41  H   UNL     1      -5.975  -8.450   6.430  0.00  0.00    +0.151 HD
ATOM     42  H   UNL     1      -4.414  -8.869   7.673  0.00  0.00    +0.156 HD
BRANCH   8  20
ATOM     20  C   UNL     1      -4.131  -9.973   9.398  0.00  0.00    +0.035 A 
ATOM     24  C   UNL     1      -3.323  -9.133  10.164  0.00  0.00    +0.027 A 
ATOM     25  C   UNL     1      -4.166 -11.341   9.663  0.00  0.00    +0.027 A 
ATOM     26  C   UNL     1      -2.547  -9.663  11.196  0.00  0.00    +0.048 A 
ATOM     27  C   UNL     1      -3.390 -11.871  10.694  0.00  0.00    +0.048 A 
ATOM     30  C   UNL     1      -2.582 -11.032  11.461  0.00  0.00    +0.129 A 
BRANCH  30   5
ATOM      5  O   UNL     1      -1.825 -11.550  12.467  0.00  0.00    -0.456 OA
BRANCH   5  34
ATOM     34  C   UNL     1      -2.247 -11.330  13.768  0.00  0.00    +0.128 A 
ATOM     35  C   UNL     1      -3.467 -11.849  14.203  0.00  0.00    +0.046 A 
ATOM     36  C   UNL     1      -1.454 -10.586  14.642  0.00  0.00    +0.046 A 
ATOM     37  C   UNL     1      -3.891 -11.625  15.514  0.00  0.00    +0.004 A 
ATOM     38  C   UNL     1      -1.878 -10.363  15.952  0.00  0.00    +0.004 A 
ATOM     39  C   UNL     1      -3.097 -10.883  16.388  0.00  0.00    +0.000 A 
ENDBRANCH   5  34
ENDBRANCH  30   5
ENDBRANCH   8  20
ENDBRANCH  14   7
TORSDOF 6
ENDMDL
