MODEL 1
REMARK VINA RESULT:      -7.2      0.000      0.000
REMARK  Name = 40533467
REMARK  4 active torsions:
REMARK  status: ('A' for Active; 'I' for Inactive)
REMARK    1  A    between atoms: N_5  and  C_20
REMARK    2  A    between atoms: C_17  and  C_19
REMARK    3  A    between atoms: C_20  and  C_21
REMARK    4  A    between atoms: C_20  and  C_22
REMARK                            x       y       z     vdW  Elec       q    Type
REMARK                         _______ _______ _______ _____ _____    ______ ____
ROOT
ATOM      1  O   UNL     1      13.893  11.001  22.815  0.00  0.00    -0.267 OA
ATOM      2  O   UNL     1      12.333   9.570  17.175  0.00  0.00    -0.253 OA
ATOM      3  N   UNL     1      13.842   8.393  18.489  0.00  0.00    -0.285 N 
ATOM      4  N   UNL     1      13.409   9.066  21.608  0.00  0.00    -0.311 N 
ATOM      5  N   UNL     1      14.465  10.389  17.386  0.00  0.00    -0.297 N 
ATOM      7  C   UNL     1      15.220   7.668  20.461  0.00  0.00    +0.027 C 
ATOM      8  C   UNL     1      12.869   6.980  20.303  0.00  0.00    +0.054 C 
ATOM      9  C   UNL     1      14.268   6.500  20.676  0.00  0.00    +0.018 C 
ATOM     10  C   UNL     1      15.200   8.137  18.993  0.00  0.00    +0.114 C 
ATOM     11  C   UNL     1      14.841   8.797  21.427  0.00  0.00    +0.130 C 
ATOM     12  C   UNL     1      12.846   7.363  18.813  0.00  0.00    +0.119 C 
ATOM     13  C   UNL     1      12.445   8.166  21.148  0.00  0.00    +0.027 A 
ATOM     14  C   UNL     1      11.148   8.367  21.430  0.00  0.00    +0.022 A 
ATOM     15  C   UNL     1      13.069  10.206  22.361  0.00  0.00    +0.259 A 
ATOM     16  C   UNL     1      13.467   9.459  17.651  0.00  0.00    +0.302 C 
ATOM     17  C   UNL     1      11.604  10.425  22.628  0.00  0.00    +0.048 A 
ATOM     18  C   UNL     1      10.725   9.518  22.176  0.00  0.00    +0.015 A 
ATOM     27  H   UNL     1      15.347  10.369  17.875  0.00  0.00    +0.150 HD
ENDROOT
BRANCH  17  19
ATOM      6  N   UNL     1      10.541  12.635  25.472  0.00  0.00    -0.263 NA
ATOM     19  C   UNL     1      11.132  11.612  23.362  0.00  0.00    +0.005 A 
ATOM     23  C   UNL     1      10.833  12.796  22.697  0.00  0.00    +0.011 A 
ATOM     24  C   UNL     1      10.970  11.583  24.738  0.00  0.00    +0.119 A 
ATOM     25  C   UNL     1      10.389  13.899  23.417  0.00  0.00    +0.020 A 
ATOM     26  C   UNL     1      10.261  13.768  24.790  0.00  0.00    +0.111 A 
ENDBRANCH  17  19
BRANCH   5  20
ATOM     20  C   UNL     1      14.238  11.539  16.538  0.00  0.00    +0.068 C 
ATOM     21  C   UNL     1      14.258  12.822  17.361  0.00  0.00    +0.027 C 
ATOM     22  C   UNL     1      15.272  11.584  15.420  0.00  0.00    +0.027 C 
ENDBRANCH   5  20
TORSDOF 2
ENDMDL
MODEL 2
REMARK VINA RESULT:      -6.7     14.161     18.055
REMARK  Name = 40533467
REMARK  4 active torsions:
REMARK  status: ('A' for Active; 'I' for Inactive)
REMARK    1  A    between atoms: N_5  and  C_20
REMARK    2  A    between atoms: C_17  and  C_19
REMARK    3  A    between atoms: C_20  and  C_21
REMARK    4  A    between atoms: C_20  and  C_22
REMARK                            x       y       z     vdW  Elec       q    Type
REMARK                         _______ _______ _______ _____ _____    ______ ____
ROOT
ATOM      1  O   UNL     1      10.366   7.122   2.213  0.00  0.00    -0.267 OA
ATOM      2  O   UNL     1      13.447   6.647   7.367  0.00  0.00    -0.253 OA
ATOM      3  N   UNL     1      11.382   7.681   7.130  0.00  0.00    -0.285 N 
ATOM      4  N   UNL     1       9.902   6.674   4.454  0.00  0.00    -0.311 N 
ATOM      5  N   UNL     1      13.384   8.769   6.498  0.00  0.00    -0.297 N 
ATOM      7  C   UNL     1       9.235   8.501   6.115  0.00  0.00    +0.027 C 
ATOM      8  C   UNL     1       9.409   6.172   6.872  0.00  0.00    +0.054 C 
ATOM      9  C   UNL     1       8.488   7.388   6.836  0.00  0.00    +0.018 C 
ATOM     10  C   UNL     1      10.543   8.856   6.848  0.00  0.00    +0.114 C 
ATOM     11  C   UNL     1       9.489   8.066   4.667  0.00  0.00    +0.130 C 
ATOM     12  C   UNL     1      10.672   6.519   7.680  0.00  0.00    +0.119 C 
ATOM     13  C   UNL     1       9.795   5.727   5.475  0.00  0.00    +0.027 A 
ATOM     14  C   UNL     1      10.061   4.435   5.225  0.00  0.00    +0.022 A 
ATOM     15  C   UNL     1      10.297   6.323   3.148  0.00  0.00    +0.259 A 
ATOM     16  C   UNL     1      12.784   7.630   7.021  0.00  0.00    +0.302 C 
ATOM     17  C   UNL     1      10.625   4.874   2.909  0.00  0.00    +0.048 A 
ATOM     18  C   UNL     1      10.487   4.007   3.923  0.00  0.00    +0.015 A 
ATOM     27  H   UNL     1      12.836   9.516   6.097  0.00  0.00    +0.150 HD
ENDROOT
BRANCH  17  19
ATOM      6  N   UNL     1      10.612   3.948  -0.731  0.00  0.00    -0.263 NA
ATOM     19  C   UNL     1      11.096   4.405   1.593  0.00  0.00    +0.005 A 
ATOM     23  C   UNL     1      12.409   3.988   1.409  0.00  0.00    +0.011 A 
ATOM     24  C   UNL     1      10.244   4.366   0.502  0.00  0.00    +0.119 A 
ATOM     25  C   UNL     1      12.824   3.550   0.156  0.00  0.00    +0.020 A 
ATOM     26  C   UNL     1      11.895   3.549  -0.871  0.00  0.00    +0.111 A 
ENDBRANCH  17  19
BRANCH   5  20
ATOM     20  C   UNL     1      14.816   8.874   6.328  0.00  0.00    +0.068 C 
ATOM     21  C   UNL     1      15.224   8.414   4.934  0.00  0.00    +0.027 C 
ATOM     22  C   UNL     1      15.277  10.302   6.595  0.00  0.00    +0.027 C 
ENDBRANCH   5  20
TORSDOF 2
ENDMDL
MODEL 3
REMARK VINA RESULT:      -6.1     15.916     19.443
REMARK  Name = 40533467
REMARK  4 active torsions:
REMARK  status: ('A' for Active; 'I' for Inactive)
REMARK    1  A    between atoms: N_5  and  C_20
REMARK    2  A    between atoms: C_17  and  C_19
REMARK    3  A    between atoms: C_20  and  C_21
REMARK    4  A    between atoms: C_20  and  C_22
REMARK                            x       y       z     vdW  Elec       q    Type
REMARK                         _______ _______ _______ _____ _____    ______ ____
ROOT
ATOM      1  O   UNL     1      12.051   7.395   3.638  0.00  0.00    -0.267 OA
ATOM      2  O   UNL     1       9.419   4.872  -1.157  0.00  0.00    -0.253 OA
ATOM      3  N   UNL     1      11.710   5.037  -0.816  0.00  0.00    -0.285 N 
ATOM      4  N   UNL     1      12.369   5.513   2.299  0.00  0.00    -0.311 N 
ATOM      5  N   UNL     1      10.444   6.878  -1.590  0.00  0.00    -0.297 N 
ATOM      7  C   UNL     1      13.926   5.513   0.269  0.00  0.00    +0.027 C 
ATOM      8  C   UNL     1      12.697   3.472   0.861  0.00  0.00    +0.054 C 
ATOM      9  C   UNL     1      14.086   4.028   0.557  0.00  0.00    +0.018 C 
ATOM     10  C   UNL     1      12.992   5.747  -0.936  0.00  0.00    +0.114 C 
ATOM     11  C   UNL     1      13.412   6.209   1.534  0.00  0.00    +0.130 C 
ATOM     12  C   UNL     1      11.804   3.637  -0.381  0.00  0.00    +0.119 C 
ATOM     13  C   UNL     1      12.066   4.173   2.048  0.00  0.00    +0.027 A 
ATOM     14  C   UNL     1      11.199   3.520   2.837  0.00  0.00    +0.022 A 
ATOM     15  C   UNL     1      11.781   6.226   3.362  0.00  0.00    +0.259 A 
ATOM     16  C   UNL     1      10.452   5.549  -1.184  0.00  0.00    +0.302 C 
ATOM     17  C   UNL     1      10.785   5.478   4.206  0.00  0.00    +0.048 A 
ATOM     18  C   UNL     1      10.546   4.188   3.928  0.00  0.00    +0.015 A 
ATOM     27  H   UNL     1      11.260   7.464  -1.489  0.00  0.00    +0.150 HD
ENDROOT
BRANCH  17  19
ATOM      6  N   UNL     1      10.025   6.794   7.640  0.00  0.00    -0.263 NA
ATOM     19  C   UNL     1      10.072   6.140   5.313  0.00  0.00    +0.005 A 
ATOM     23  C   UNL     1       8.825   6.722   5.117  0.00  0.00    +0.011 A 
ATOM     24  C   UNL     1      10.624   6.202   6.582  0.00  0.00    +0.119 A 
ATOM     25  C   UNL     1       8.177   7.340   6.181  0.00  0.00    +0.020 A 
ATOM     26  C   UNL     1       8.814   7.348   7.411  0.00  0.00    +0.111 A 
ENDBRANCH  17  19
BRANCH   5  20
ATOM     20  C   UNL     1       9.232   7.548  -2.004  0.00  0.00    +0.068 C 
ATOM     21  C   UNL     1       8.712   8.450  -0.891  0.00  0.00    +0.027 C 
ATOM     22  C   UNL     1       9.474   8.336  -3.285  0.00  0.00    +0.027 C 
ENDBRANCH   5  20
TORSDOF 2
ENDMDL
MODEL 4
REMARK VINA RESULT:      -6.0     14.439     16.772
REMARK  Name = 40533467
REMARK  4 active torsions:
REMARK  status: ('A' for Active; 'I' for Inactive)
REMARK    1  A    between atoms: N_5  and  C_20
REMARK    2  A    between atoms: C_17  and  C_19
REMARK    3  A    between atoms: C_20  and  C_21
REMARK    4  A    between atoms: C_20  and  C_22
REMARK                            x       y       z     vdW  Elec       q    Type
REMARK                         _______ _______ _______ _____ _____    ______ ____
ROOT
ATOM      1  O   UNL     1      12.588   6.844   3.275  0.00  0.00    -0.267 OA
ATOM      2  O   UNL     1       8.739   9.430   7.121  0.00  0.00    -0.253 OA
ATOM      3  N   UNL     1       8.684   7.204   6.461  0.00  0.00    -0.285 N 
ATOM      4  N   UNL     1      11.538   6.292   5.283  0.00  0.00    -0.311 N 
ATOM      5  N   UNL     1       7.831   8.921   5.077  0.00  0.00    -0.297 N 
ATOM      7  C   UNL     1       9.314   5.029   5.373  0.00  0.00    +0.027 C 
ATOM      8  C   UNL     1      10.415   5.708   7.460  0.00  0.00    +0.054 C 
ATOM      9  C   UNL     1       9.811   4.519   6.718  0.00  0.00    +0.018 C 
ATOM     10  C   UNL     1       8.250   6.129   5.556  0.00  0.00    +0.114 C 
ATOM     11  C   UNL     1      10.516   5.524   4.560  0.00  0.00    +0.130 C 
ATOM     12  C   UNL     1       9.319   6.758   7.708  0.00  0.00    +0.119 C 
ATOM     13  C   UNL     1      11.558   6.327   6.679  0.00  0.00    +0.027 A 
ATOM     14  C   UNL     1      12.569   6.931   7.322  0.00  0.00    +0.022 A 
ATOM     15  C   UNL     1      12.551   6.887   4.506  0.00  0.00    +0.259 A 
ATOM     16  C   UNL     1       8.440   8.578   6.278  0.00  0.00    +0.302 C 
ATOM     17  C   UNL     1      13.650   7.590   5.255  0.00  0.00    +0.048 A 
ATOM     18  C   UNL     1      13.626   7.576   6.596  0.00  0.00    +0.015 A 
ATOM     27  H   UNL     1       7.707   8.245   4.338  0.00  0.00    +0.150 HD
ENDROOT
BRANCH  17  19
ATOM      6  N   UNL     1      15.549  10.309   3.494  0.00  0.00    -0.263 NA
ATOM     19  C   UNL     1      14.734   8.289   4.542  0.00  0.00    +0.005 A 
ATOM     23  C   UNL     1      15.927   7.643   4.240  0.00  0.00    +0.011 A 
ATOM     24  C   UNL     1      14.595   9.610   4.150  0.00  0.00    +0.119 A 
ATOM     25  C   UNL     1      16.931   8.328   3.565  0.00  0.00    +0.020 A 
ATOM     26  C   UNL     1      16.695   9.648   3.218  0.00  0.00    +0.111 A 
ENDBRANCH  17  19
BRANCH   5  20
ATOM     20  C   UNL     1       7.510  10.291   4.741  0.00  0.00    +0.068 C 
ATOM     21  C   UNL     1       8.555  10.868   3.794  0.00  0.00    +0.027 C 
ATOM     22  C   UNL     1       6.113  10.374   4.141  0.00  0.00    +0.027 C 
ENDBRANCH   5  20
TORSDOF 2
ENDMDL
MODEL 5
REMARK VINA RESULT:      -6.0     27.613     29.950
REMARK  Name = 40533467
REMARK  4 active torsions:
REMARK  status: ('A' for Active; 'I' for Inactive)
REMARK    1  A    between atoms: N_5  and  C_20
REMARK    2  A    between atoms: C_17  and  C_19
REMARK    3  A    between atoms: C_20  and  C_21
REMARK    4  A    between atoms: C_20  and  C_22
REMARK                            x       y       z     vdW  Elec       q    Type
REMARK                         _______ _______ _______ _____ _____    ______ ____
ROOT
ATOM      1  O   UNL     1      -5.909 -12.738  15.419  0.00  0.00    -0.267 OA
ATOM      2  O   UNL     1      -9.714  -8.744  17.839  0.00  0.00    -0.253 OA
ATOM      3  N   UNL     1      -9.775 -11.038  18.192  0.00  0.00    -0.285 N 
ATOM      4  N   UNL     1      -6.934 -12.377  17.482  0.00  0.00    -0.311 N 
ATOM      5  N   UNL     1     -10.645 -10.071  16.217  0.00  0.00    -0.297 N 
ATOM      7  C   UNL     1      -9.155 -13.472  18.127  0.00  0.00    +0.027 C 
ATOM      8  C   UNL     1      -8.031 -11.974  19.714  0.00  0.00    +0.054 C 
ATOM      9  C   UNL     1      -8.642 -13.363  19.556  0.00  0.00    +0.018 C 
ATOM     10  C   UNL     1     -10.218 -12.394  17.835  0.00  0.00    +0.114 C 
ATOM     11  C   UNL     1      -7.964 -13.376  17.167  0.00  0.00    +0.130 C 
ATOM     12  C   UNL     1      -9.124 -10.913  19.502  0.00  0.00    +0.119 C 
ATOM     13  C   UNL     1      -6.898 -11.751  18.730  0.00  0.00    +0.027 A 
ATOM     14  C   UNL     1      -5.880 -10.934  19.044  0.00  0.00    +0.022 A 
ATOM     15  C   UNL     1      -5.931 -12.175  16.515  0.00  0.00    +0.259 A 
ATOM     16  C   UNL     1     -10.022  -9.872  17.443  0.00  0.00    +0.302 C 
ATOM     17  C   UNL     1      -4.824 -11.224  16.881  0.00  0.00    +0.048 A 
ATOM     18  C   UNL     1      -4.832 -10.665  18.100  0.00  0.00    +0.015 A 
ATOM     27  H   UNL     1     -10.778 -10.997  15.838  0.00  0.00    +0.150 HD
ENDROOT
BRANCH  17  19
ATOM      6  N   UNL     1      -3.090 -10.371  13.661  0.00  0.00    -0.263 NA
ATOM     19  C   UNL     1      -3.749 -10.900  15.925  0.00  0.00    +0.005 A 
ATOM     23  C   UNL     1      -2.424 -10.815  16.338  0.00  0.00    +0.011 A 
ATOM     24  C   UNL     1      -4.027 -10.672  14.588  0.00  0.00    +0.119 A 
ATOM     25  C   UNL     1      -1.432 -10.507  15.414  0.00  0.00    +0.020 A 
ATOM     26  C   UNL     1      -1.814 -10.297  14.099  0.00  0.00    +0.111 A 
ENDBRANCH  17  19
BRANCH   5  20
ATOM     20  C   UNL     1     -10.972  -8.974  15.333  0.00  0.00    +0.068 C 
ATOM     21  C   UNL     1     -10.679  -9.347  13.886  0.00  0.00    +0.027 C 
ATOM     22  C   UNL     1     -12.428  -8.564  15.515  0.00  0.00    +0.027 C 
ENDBRANCH   5  20
TORSDOF 2
ENDMDL
MODEL 6
REMARK VINA RESULT:      -6.0     27.356     29.670
REMARK  Name = 40533467
REMARK  4 active torsions:
REMARK  status: ('A' for Active; 'I' for Inactive)
REMARK    1  A    between atoms: N_5  and  C_20
REMARK    2  A    between atoms: C_17  and  C_19
REMARK    3  A    between atoms: C_20  and  C_21
REMARK    4  A    between atoms: C_20  and  C_22
REMARK                            x       y       z     vdW  Elec       q    Type
REMARK                         _______ _______ _______ _____ _____    ______ ____
ROOT
ATOM      1  O   UNL     1      -3.141 -10.558  14.149  0.00  0.00    -0.267 OA
ATOM      2  O   UNL     1      -6.704 -14.861  16.401  0.00  0.00    -0.253 OA
ATOM      3  N   UNL     1      -5.746 -13.136  17.625  0.00  0.00    -0.285 N 
ATOM      4  N   UNL     1      -4.881 -10.710  15.694  0.00  0.00    -0.311 N 
ATOM      5  N   UNL     1      -4.500 -15.048  17.007  0.00  0.00    -0.297 N 
ATOM      7  C   UNL     1      -4.475 -11.046  18.198  0.00  0.00    +0.027 C 
ATOM      8  C   UNL     1      -6.772 -10.876  17.349  0.00  0.00    +0.054 C 
ATOM      9  C   UNL     1      -5.795 -10.310  18.376  0.00  0.00    +0.018 C 
ATOM     10  C   UNL     1      -4.649 -12.561  18.419  0.00  0.00    +0.114 C 
ATOM     11  C   UNL     1      -3.920 -10.731  16.804  0.00  0.00    +0.130 C 
ATOM     12  C   UNL     1      -6.999 -12.370  17.637  0.00  0.00    +0.119 C 
ATOM     13  C   UNL     1      -6.257 -10.696  15.934  0.00  0.00    +0.027 A 
ATOM     14  C   UNL     1      -7.117 -10.552  14.914  0.00  0.00    +0.022 A 
ATOM     15  C   UNL     1      -4.348 -10.588  14.396  0.00  0.00    +0.259 A 
ATOM     16  C   UNL     1      -5.719 -14.381  16.970  0.00  0.00    +0.302 C 
ATOM     17  C   UNL     1      -5.337 -10.467  13.269  0.00  0.00    +0.048 A 
ATOM     18  C   UNL     1      -6.646 -10.442  13.562  0.00  0.00    +0.015 A 
ATOM     27  H   UNL     1      -3.665 -14.601  17.357  0.00  0.00    +0.150 HD
ENDROOT
BRANCH  17  19
ATOM      6  N   UNL     1      -4.118 -11.515   9.876  0.00  0.00    -0.263 NA
ATOM     19  C   UNL     1      -4.891 -10.384  11.867  0.00  0.00    +0.005 A 
ATOM     23  C   UNL     1      -4.813  -9.160  11.211  0.00  0.00    +0.011 A 
ATOM     24  C   UNL     1      -4.535 -11.521  11.162  0.00  0.00    +0.119 A 
ATOM     25  C   UNL     1      -4.388  -9.114   9.887  0.00  0.00    +0.020 A 
ATOM     26  C   UNL     1      -4.055 -10.308   9.271  0.00  0.00    +0.111 A 
ENDBRANCH  17  19
BRANCH   5  20
ATOM     20  C   UNL     1      -4.311 -16.340  16.385  0.00  0.00    +0.068 C 
ATOM     21  C   UNL     1      -3.109 -16.313  15.451  0.00  0.00    +0.027 C 
ATOM     22  C   UNL     1      -4.162 -17.422  17.447  0.00  0.00    +0.027 C 
ENDBRANCH   5  20
TORSDOF 2
ENDMDL
MODEL 7
REMARK VINA RESULT:      -5.9     22.632     24.340
REMARK  Name = 40533467
REMARK  4 active torsions:
REMARK  status: ('A' for Active; 'I' for Inactive)
REMARK    1  A    between atoms: N_5  and  C_20
REMARK    2  A    between atoms: C_17  and  C_19
REMARK    3  A    between atoms: C_20  and  C_21
REMARK    4  A    between atoms: C_20  and  C_22
REMARK                            x       y       z     vdW  Elec       q    Type
REMARK                         _______ _______ _______ _____ _____    ______ ____
ROOT
ATOM      1  O   UNL     1      -6.526   9.734   5.371  0.00  0.00    -0.267 OA
ATOM      2  O   UNL     1      -1.655   9.650   1.829  0.00  0.00    -0.253 OA
ATOM      3  N   UNL     1      -1.747  10.566   3.961  0.00  0.00    -0.285 N 
ATOM      4  N   UNL     1      -4.237   9.365   5.612  0.00  0.00    -0.311 N 
ATOM      5  N   UNL     1      -2.600  11.725   2.084  0.00  0.00    -0.297 N 
ATOM      7  C   UNL     1      -2.597  11.229   6.230  0.00  0.00    +0.027 C 
ATOM      8  C   UNL     1      -1.765   8.949   5.863  0.00  0.00    +0.054 C 
ATOM      9  C   UNL     1      -1.767  10.113   6.849  0.00  0.00    +0.018 C 
ATOM     10  C   UNL     1      -2.000  11.683   4.883  0.00  0.00    +0.114 C 
ATOM     11  C   UNL     1      -4.043  10.743   6.080  0.00  0.00    +0.130 C 
ATOM     12  C   UNL     1      -1.089   9.395   4.555  0.00  0.00    +0.119 C 
ATOM     13  C   UNL     1      -3.172   8.461   5.577  0.00  0.00    +0.027 A 
ATOM     14  C   UNL     1      -3.392   7.174   5.264  0.00  0.00    +0.022 A 
ATOM     15  C   UNL     1      -5.557   8.976   5.315  0.00  0.00    +0.259 A 
ATOM     16  C   UNL     1      -1.980  10.581   2.573  0.00  0.00    +0.302 C 
ATOM     17  C   UNL     1      -5.766   7.537   4.930  0.00  0.00    +0.048 A 
ATOM     18  C   UNL     1      -4.709   6.711   4.931  0.00  0.00    +0.015 A 
ATOM     27  H   UNL     1      -2.980  12.424   2.705  0.00  0.00    +0.150 HD
ENDROOT
BRANCH  17  19
ATOM      6  N   UNL     1      -9.003   7.146   3.066  0.00  0.00    -0.263 NA
ATOM     19  C   UNL     1      -7.098   7.033   4.551  0.00  0.00    +0.005 A 
ATOM     23  C   UNL     1      -7.712   6.014   5.272  0.00  0.00    +0.011 A 
ATOM     24  C   UNL     1      -7.780   7.561   3.467  0.00  0.00    +0.119 A 
ATOM     25  C   UNL     1      -8.970   5.561   4.891  0.00  0.00    +0.020 A 
ATOM     26  C   UNL     1      -9.567   6.154   3.791  0.00  0.00    +0.111 A 
ENDBRANCH  17  19
BRANCH   5  20
ATOM     20  C   UNL     1      -2.903  11.895   0.680  0.00  0.00    +0.068 C 
ATOM     21  C   UNL     1      -4.409  11.964   0.462  0.00  0.00    +0.027 C 
ATOM     22  C   UNL     1      -2.208  13.137   0.136  0.00  0.00    +0.027 C 
ENDBRANCH   5  20
TORSDOF 2
ENDMDL
MODEL 8
REMARK VINA RESULT:      -5.8     27.245     28.704
REMARK  Name = 40533467
REMARK  4 active torsions:
REMARK  status: ('A' for Active; 'I' for Inactive)
REMARK    1  A    between atoms: N_5  and  C_20
REMARK    2  A    between atoms: C_17  and  C_19
REMARK    3  A    between atoms: C_20  and  C_21
REMARK    4  A    between atoms: C_20  and  C_22
REMARK                            x       y       z     vdW  Elec       q    Type
REMARK                         _______ _______ _______ _____ _____    ______ ____
ROOT
ATOM      1  O   UNL     1      -4.164 -10.371  16.681  0.00  0.00    -0.267 OA
ATOM      2  O   UNL     1      -5.468 -12.230  11.101  0.00  0.00    -0.253 OA
ATOM      3  N   UNL     1      -3.332 -12.067  11.996  0.00  0.00    -0.285 N 
ATOM      4  N   UNL     1      -3.441 -12.032  15.213  0.00  0.00    -0.311 N 
ATOM      5  N   UNL     1      -4.483 -10.161  11.201  0.00  0.00    -0.297 N 
ATOM      7  C   UNL     1      -1.458 -11.705  13.630  0.00  0.00    +0.027 C 
ATOM      8  C   UNL     1      -2.676 -13.837  13.631  0.00  0.00    +0.054 C 
ATOM      9  C   UNL     1      -1.287 -13.213  13.744  0.00  0.00    +0.018 C 
ATOM     10  C   UNL     1      -2.098 -11.320  12.281  0.00  0.00    +0.114 C 
ATOM     11  C   UNL     1      -2.289 -11.211  14.820  0.00  0.00    +0.130 C 
ATOM     12  C   UNL     1      -3.264 -13.513  12.247  0.00  0.00    +0.119 C 
ATOM     13  C   UNL     1      -3.603 -13.328  14.718  0.00  0.00    +0.027 A 
ATOM     14  C   UNL     1      -4.592 -14.107  15.183  0.00  0.00    +0.022 A 
ATOM     15  C   UNL     1      -4.297 -11.494  16.193  0.00  0.00    +0.259 A 
ATOM     16  C   UNL     1      -4.496 -11.534  11.412  0.00  0.00    +0.302 C 
ATOM     17  C   UNL     1      -5.420 -12.377  16.666  0.00  0.00    +0.048 A 
ATOM     18  C   UNL     1      -5.516 -13.619  16.167  0.00  0.00    +0.015 A 
ATOM     27  H   UNL     1      -3.746  -9.578  11.571  0.00  0.00    +0.150 HD
ENDROOT
BRANCH  17  19
ATOM      6  N   UNL     1      -7.088 -11.704  19.963  0.00  0.00    -0.263 NA
ATOM     19  C   UNL     1      -6.405 -11.898  17.652  0.00  0.00    +0.005 A 
ATOM     23  C   UNL     1      -7.545 -11.211  17.250  0.00  0.00    +0.011 A 
ATOM     24  C   UNL     1      -6.224 -12.117  19.007  0.00  0.00    +0.119 A 
ATOM     25  C   UNL     1      -8.457 -10.771  18.203  0.00  0.00    +0.020 A 
ATOM     26  C   UNL     1      -8.184 -11.041  19.534  0.00  0.00    +0.111 A 
ENDBRANCH  17  19
BRANCH   5  20
ATOM     20  C   UNL     1      -5.601  -9.464  10.605  0.00  0.00    +0.068 C 
ATOM     21  C   UNL     1      -6.477  -8.838  11.684  0.00  0.00    +0.027 C 
ATOM     22  C   UNL     1      -5.106  -8.414   9.618  0.00  0.00    +0.027 C 
ENDBRANCH   5  20
TORSDOF 2
ENDMDL
MODEL 9
REMARK VINA RESULT:      -5.8     27.016     29.152
REMARK  Name = 40533467
REMARK  4 active torsions:
REMARK  status: ('A' for Active; 'I' for Inactive)
REMARK    1  A    between atoms: N_5  and  C_20
REMARK    2  A    between atoms: C_17  and  C_19
REMARK    3  A    between atoms: C_20  and  C_21
REMARK    4  A    between atoms: C_20  and  C_22
REMARK                            x       y       z     vdW  Elec       q    Type
REMARK                         _______ _______ _______ _____ _____    ______ ____
ROOT
ATOM      1  O   UNL     1      -6.748 -10.319  14.005  0.00  0.00    -0.267 OA
ATOM      2  O   UNL     1      -2.884 -14.897  14.639  0.00  0.00    -0.253 OA
ATOM      3  N   UNL     1      -2.597 -13.087  13.213  0.00  0.00    -0.285 N 
ATOM      4  N   UNL     1      -4.438 -10.609  14.128  0.00  0.00    -0.311 N 
ATOM      5  N   UNL     1      -4.019 -14.889  12.646  0.00  0.00    -0.297 N 
ATOM      7  C   UNL     1      -2.971 -10.892  12.050  0.00  0.00    +0.027 C 
ATOM      8  C   UNL     1      -1.944 -10.926  14.279  0.00  0.00    +0.054 C 
ATOM      9  C   UNL     1      -1.874 -10.271  12.903  0.00  0.00    +0.018 C 
ATOM     10  C   UNL     1      -2.777 -12.415  11.917  0.00  0.00    +0.114 C 
ATOM     11  C   UNL     1      -4.331 -10.540  12.665  0.00  0.00    +0.130 C 
ATOM     12  C   UNL     1      -1.663 -12.432  14.138  0.00  0.00    +0.119 C 
ATOM     13  C   UNL     1      -3.298 -10.712  14.928  0.00  0.00    +0.027 A 
ATOM     14  C   UNL     1      -3.406 -10.650  16.265  0.00  0.00    +0.022 A 
ATOM     15  C   UNL     1      -5.725 -10.451  14.678  0.00  0.00    +0.259 A 
ATOM     16  C   UNL     1      -3.150 -14.330  13.574  0.00  0.00    +0.302 C 
ATOM     17  C   UNL     1      -5.818 -10.423  16.179  0.00  0.00    +0.048 A 
ATOM     18  C   UNL     1      -4.687 -10.509  16.895  0.00  0.00    +0.015 A 
ATOM     27  H   UNL     1      -4.335 -14.369  11.840  0.00  0.00    +0.150 HD
ENDROOT
BRANCH  17  19
ATOM      6  N   UNL     1      -8.895 -11.378  18.109  0.00  0.00    -0.263 NA
ATOM     19  C   UNL     1      -7.120 -10.312  16.861  0.00  0.00    +0.005 A 
ATOM     23  C   UNL     1      -7.800  -9.101  16.915  0.00  0.00    +0.011 A 
ATOM     24  C   UNL     1      -7.705 -11.411  17.468  0.00  0.00    +0.119 A 
ATOM     25  C   UNL     1      -9.027  -9.027  17.565  0.00  0.00    +0.020 A 
ATOM     26  C   UNL     1      -9.526 -10.183  18.140  0.00  0.00    +0.111 A 
ENDBRANCH  17  19
BRANCH   5  20
ATOM     20  C   UNL     1      -4.665 -16.165  12.868  0.00  0.00    +0.068 C 
ATOM     21  C   UNL     1      -6.102 -15.963  13.329  0.00  0.00    +0.027 C 
ATOM     22  C   UNL     1      -4.603 -17.015  11.605  0.00  0.00    +0.027 C 
ENDBRANCH   5  20
TORSDOF 2
ENDMDL
MODEL 10
REMARK VINA RESULT:      -5.8     23.950     25.734
REMARK  Name = 40533467
REMARK  4 active torsions:
REMARK  status: ('A' for Active; 'I' for Inactive)
REMARK    1  A    between atoms: N_5  and  C_20
REMARK    2  A    between atoms: C_17  and  C_19
REMARK    3  A    between atoms: C_20  and  C_21
REMARK    4  A    between atoms: C_20  and  C_22
REMARK                            x       y       z     vdW  Elec       q    Type
REMARK                         _______ _______ _______ _____ _____    ______ ____
ROOT
ATOM      1  O   UNL     1      -5.539   9.938   3.722  0.00  0.00    -0.267 OA
ATOM      2  O   UNL     1      -9.086   7.428   7.894  0.00  0.00    -0.253 OA
ATOM      3  N   UNL     1      -9.574   7.570   5.628  0.00  0.00    -0.285 N 
ATOM      4  N   UNL     1      -6.893   8.049   3.911  0.00  0.00    -0.311 N 
ATOM      5  N   UNL     1      -9.864   9.422   7.070  0.00  0.00    -0.297 N 
ATOM      7  C   UNL     1      -9.341   8.027   3.169  0.00  0.00    +0.027 C 
ATOM      8  C   UNL     1      -8.342   6.000   4.127  0.00  0.00    +0.054 C 
ATOM      9  C   UNL     1      -9.118   6.541   2.930  0.00  0.00    +0.018 C 
ATOM     10  C   UNL     1     -10.141   8.267   4.465  0.00  0.00    +0.114 C 
ATOM     11  C   UNL     1      -7.980   8.732   3.199  0.00  0.00    +0.130 C 
ATOM     12  C   UNL     1      -9.191   6.171   5.399  0.00  0.00    +0.119 C 
ATOM     13  C   UNL     1      -7.013   6.711   4.295  0.00  0.00    +0.027 A 
ATOM     14  C   UNL     1      -5.965   6.069   4.834  0.00  0.00    +0.022 A 
ATOM     15  C   UNL     1      -5.695   8.770   4.081  0.00  0.00    +0.259 A 
ATOM     16  C   UNL     1      -9.479   8.094   6.931  0.00  0.00    +0.302 C 
ATOM     17  C   UNL     1      -4.550   8.034   4.724  0.00  0.00    +0.048 A 
ATOM     18  C   UNL     1      -4.719   6.746   5.055  0.00  0.00    +0.015 A 
ATOM     27  H   UNL     1     -10.060  10.000   6.266  0.00  0.00    +0.150 HD
ENDROOT
BRANCH  17  19
ATOM      6  N   UNL     1      -1.277   9.780   4.140  0.00  0.00    -0.263 NA
ATOM     19  C   UNL     1      -3.268   8.707   4.995  0.00  0.00    +0.005 A 
ATOM     23  C   UNL     1      -2.826   8.910   6.298  0.00  0.00    +0.011 A 
ATOM     24  C   UNL     1      -2.463   9.156   3.961  0.00  0.00    +0.119 A 
ATOM     25  C   UNL     1      -1.610   9.547   6.523  0.00  0.00    +0.020 A 
ATOM     26  C   UNL     1      -0.881   9.959   5.420  0.00  0.00    +0.111 A 
ENDBRANCH  17  19
BRANCH   5  20
ATOM     20  C   UNL     1      -9.829  10.103   8.345  0.00  0.00    +0.068 C 
ATOM     21  C   UNL     1      -9.236  11.498   8.190  0.00  0.00    +0.027 C 
ATOM     22  C   UNL     1     -11.225  10.160   8.953  0.00  0.00    +0.027 C 
ENDBRANCH   5  20
TORSDOF 2
ENDMDL
