MODEL 1
REMARK VINA RESULT:      -6.6      0.000      0.000
REMARK  Name = 51137187
REMARK  4 active torsions:
REMARK  status: ('A' for Active; 'I' for Inactive)
REMARK    1  A    between atoms: N_3  and  C_7
REMARK    2  A    between atoms: C_9  and  C_16
REMARK    3  A    between atoms: C_17  and  C_18
REMARK    4  A    between atoms: C_19  and  C_20
REMARK                            x       y       z     vdW  Elec       q    Type
REMARK                         _______ _______ _______ _____ _____    ______ ____
ROOT
ATOM      3  N   UNL     1      15.555   6.717  19.620  0.00  0.00    -0.299 NA
ATOM      8  C   UNL     1      14.735   6.731  20.834  0.00  0.00    +0.097 C 
ATOM      9  C   UNL     1      13.305   6.701  20.280  0.00  0.00    +0.092 C 
ATOM     10  C   UNL     1      14.894   7.652  18.709  0.00  0.00    +0.085 C 
ATOM     11  C   UNL     1      13.421   7.296  18.866  0.00  0.00    +0.029 C 
ENDROOT
BRANCH   3   7
ATOM      2  O   UNL     1      20.823   5.484  22.541  0.00  0.00    -0.276 OA
ATOM      4  N   UNL     1      19.313   6.939  21.540  0.00  0.00    -0.302 N 
ATOM      7  C   UNL     1      16.945   7.085  19.881  0.00  0.00    +0.060 C 
ATOM     12  C   UNL     1      17.045   7.851  21.207  0.00  0.00    +0.038 C 
ATOM     13  C   UNL     1      17.823   5.828  19.921  0.00  0.00    +0.038 C 
ATOM     14  C   UNL     1      18.502   8.163  21.550  0.00  0.00    +0.109 C 
ATOM     15  C   UNL     1      19.263   6.179  20.289  0.00  0.00    +0.109 C 
ATOM     17  C   UNL     1      20.122   6.499  22.588  0.00  0.00    +0.212 C 
ATOM     18  C   UNL     1      20.117   7.334  23.843  0.00  0.00    +0.109 C 
ENDBRANCH   3   7
BRANCH   9  16
ATOM      1  O   UNL     1      12.569   8.694  21.498  0.00  0.00    -0.425 OA
ATOM      5  N   UNL     1      11.207   6.933  21.722  0.00  0.00    -0.112 NA
ATOM      6  N   UNL     1      10.677   7.980  22.454  0.00  0.00    -0.113 NA
ATOM     16  C   UNL     1      12.310   7.395  21.182  0.00  0.00    +0.222 A 
ATOM     19  C   UNL     1      11.505   8.986  22.295  0.00  0.00    +0.214 A 
ATOM     20  C   UNL     1      11.438  10.347  22.840  0.00  0.00    +0.111 C 
ENDBRANCH   9  16
TORSDOF 2
ENDMDL
MODEL 2
REMARK VINA RESULT:      -6.5      1.635      7.483
REMARK  Name = 51137187
REMARK  4 active torsions:
REMARK  status: ('A' for Active; 'I' for Inactive)
REMARK    1  A    between atoms: N_3  and  C_7
REMARK    2  A    between atoms: C_9  and  C_16
REMARK    3  A    between atoms: C_17  and  C_18
REMARK    4  A    between atoms: C_19  and  C_20
REMARK                            x       y       z     vdW  Elec       q    Type
REMARK                         _______ _______ _______ _____ _____    ______ ____
ROOT
ATOM      3  N   UNL     1      16.456   6.995  20.180  0.00  0.00    -0.299 NA
ATOM      8  C   UNL     1      17.353   7.120  21.331  0.00  0.00    +0.097 C 
ATOM      9  C   UNL     1      18.739   6.917  20.707  0.00  0.00    +0.092 C 
ATOM     10  C   UNL     1      16.973   5.857  19.421  0.00  0.00    +0.085 C 
ATOM     11  C   UNL     1      18.478   6.095  19.433  0.00  0.00    +0.029 C 
ENDROOT
BRANCH   3   7
ATOM      2  O   UNL     1      10.563   8.590  19.447  0.00  0.00    -0.276 OA
ATOM      4  N   UNL     1      12.339   7.785  20.711  0.00  0.00    -0.302 N 
ATOM      7  C   UNL     1      15.062   6.812  20.577  0.00  0.00    +0.060 C 
ATOM     12  C   UNL     1      14.648   7.908  21.567  0.00  0.00    +0.038 C 
ATOM     13  C   UNL     1      14.155   6.838  19.340  0.00  0.00    +0.038 C 
ATOM     14  C   UNL     1      13.166   7.794  21.923  0.00  0.00    +0.109 C 
ATOM     15  C   UNL     1      12.684   6.745  19.739  0.00  0.00    +0.109 C 
ATOM     17  C   UNL     1      11.267   8.641  20.459  0.00  0.00    +0.212 C 
ATOM     18  C   UNL     1      10.977   9.687  21.506  0.00  0.00    +0.109 C 
ENDBRANCH   3   7
BRANCH   9  16
ATOM      1  O   UNL     1      20.616   5.407  21.146  0.00  0.00    -0.425 OA
ATOM      5  N   UNL     1      19.883   6.499  22.955  0.00  0.00    -0.112 NA
ATOM      6  N   UNL     1      20.934   5.690  23.342  0.00  0.00    -0.113 NA
ATOM     16  C   UNL     1      19.733   6.302  21.667  0.00  0.00    +0.222 A 
ATOM     19  C   UNL     1      21.331   5.071  22.255  0.00  0.00    +0.214 A 
ATOM     20  C   UNL     1      22.413   4.095  22.077  0.00  0.00    +0.111 C 
ENDBRANCH   9  16
TORSDOF 2
ENDMDL
MODEL 3
REMARK VINA RESULT:      -6.5     26.390     28.322
REMARK  Name = 51137187
REMARK  4 active torsions:
REMARK  status: ('A' for Active; 'I' for Inactive)
REMARK    1  A    between atoms: N_3  and  C_7
REMARK    2  A    between atoms: C_9  and  C_16
REMARK    3  A    between atoms: C_17  and  C_18
REMARK    4  A    between atoms: C_19  and  C_20
REMARK                            x       y       z     vdW  Elec       q    Type
REMARK                         _______ _______ _______ _____ _____    ______ ____
ROOT
ATOM      3  N   UNL     1      -3.767 -11.010  15.852  0.00  0.00    -0.299 NA
ATOM      8  C   UNL     1      -4.083 -10.714  14.452  0.00  0.00    +0.097 C 
ATOM      9  C   UNL     1      -2.830 -11.196  13.710  0.00  0.00    +0.092 C 
ATOM     10  C   UNL     1      -2.374 -10.597  16.018  0.00  0.00    +0.085 C 
ATOM     11  C   UNL     1      -1.707 -11.133  14.758  0.00  0.00    +0.029 C 
ENDROOT
BRANCH   3   7
ATOM      2  O   UNL     1      -8.342 -11.419  19.938  0.00  0.00    -0.276 OA
ATOM      4  N   UNL     1      -7.108 -10.279  18.334  0.00  0.00    -0.302 N 
ATOM      7  C   UNL     1      -4.664 -10.330  16.782  0.00  0.00    +0.060 C 
ATOM     12  C   UNL     1      -6.030 -10.099  16.122  0.00  0.00    +0.038 C 
ATOM     13  C   UNL     1      -4.821 -11.159  18.063  0.00  0.00    +0.038 C 
ATOM     14  C   UNL     1      -7.016  -9.475  17.109  0.00  0.00    +0.109 C 
ATOM     15  C   UNL     1      -5.830 -10.514  19.011  0.00  0.00    +0.109 C 
ATOM     17  C   UNL     1      -8.288 -10.775  18.887  0.00  0.00    +0.212 C 
ATOM     18  C   UNL     1      -9.560 -10.493  18.129  0.00  0.00    +0.109 C 
ENDBRANCH   3   7
BRANCH   9  16
ATOM      1  O   UNL     1      -3.619 -10.211  11.611  0.00  0.00    -0.425 OA
ATOM      5  N   UNL     1      -1.440  -9.895  12.004  0.00  0.00    -0.112 NA
ATOM      6  N   UNL     1      -1.748  -9.293  10.798  0.00  0.00    -0.113 NA
ATOM     16  C   UNL     1      -2.561 -10.417  12.442  0.00  0.00    +0.222 A 
ATOM     19  C   UNL     1      -3.030  -9.503  10.609  0.00  0.00    +0.214 A 
ATOM     20  C   UNL     1      -3.891  -9.086   9.496  0.00  0.00    +0.111 C 
ENDBRANCH   9  16
TORSDOF 2
ENDMDL
MODEL 4
REMARK VINA RESULT:      -6.2      2.440      7.205
REMARK  Name = 51137187
REMARK  4 active torsions:
REMARK  status: ('A' for Active; 'I' for Inactive)
REMARK    1  A    between atoms: N_3  and  C_7
REMARK    2  A    between atoms: C_9  and  C_16
REMARK    3  A    between atoms: C_17  and  C_18
REMARK    4  A    between atoms: C_19  and  C_20
REMARK                            x       y       z     vdW  Elec       q    Type
REMARK                         _______ _______ _______ _____ _____    ______ ____
ROOT
ATOM      3  N   UNL     1      17.313   7.748  20.329  0.00  0.00    -0.299 NA
ATOM      8  C   UNL     1      17.953   8.201  21.566  0.00  0.00    +0.097 C 
ATOM      9  C   UNL     1      19.346   7.565  21.482  0.00  0.00    +0.092 C 
ATOM     10  C   UNL     1      17.682   6.338  20.209  0.00  0.00    +0.085 C 
ATOM     11  C   UNL     1      19.162   6.342  20.567  0.00  0.00    +0.029 C 
ENDROOT
BRANCH   3   7
ATOM      2  O   UNL     1      11.913   7.049  17.473  0.00  0.00    -0.276 OA
ATOM      4  N   UNL     1      13.340   8.144  18.945  0.00  0.00    -0.302 N 
ATOM      7  C   UNL     1      15.865   7.945  20.346  0.00  0.00    +0.060 C 
ATOM     12  C   UNL     1      15.494   9.191  19.531  0.00  0.00    +0.038 C 
ATOM     13  C   UNL     1      15.160   6.706  19.781  0.00  0.00    +0.038 C 
ATOM     14  C   UNL     1      13.978   9.364  19.454  0.00  0.00    +0.109 C 
ATOM     15  C   UNL     1      13.651   6.927  19.699  0.00  0.00    +0.109 C 
ATOM     17  C   UNL     1      12.464   8.083  17.860  0.00  0.00    +0.212 C 
ATOM     18  C   UNL     1      12.198   9.377  17.134  0.00  0.00    +0.109 C 
ENDBRANCH   3   7
BRANCH   9  16
ATOM      1  O   UNL     1      20.019   8.294  23.721  0.00  0.00    -0.425 OA
ATOM      5  N   UNL     1      20.395   6.126  23.317  0.00  0.00    -0.112 NA
ATOM      6  N   UNL     1      20.817   6.400  24.604  0.00  0.00    -0.113 NA
ATOM     16  C   UNL     1      19.937   7.259  22.840  0.00  0.00    +0.222 A 
ATOM     19  C   UNL     1      20.579   7.676  24.797  0.00  0.00    +0.214 A 
ATOM     20  C   UNL     1      20.824   8.504  25.984  0.00  0.00    +0.111 C 
ENDBRANCH   9  16
TORSDOF 2
ENDMDL
MODEL 5
REMARK VINA RESULT:      -6.1      2.132      2.953
REMARK  Name = 51137187
REMARK  4 active torsions:
REMARK  status: ('A' for Active; 'I' for Inactive)
REMARK    1  A    between atoms: N_3  and  C_7
REMARK    2  A    between atoms: C_9  and  C_16
REMARK    3  A    between atoms: C_17  and  C_18
REMARK    4  A    between atoms: C_19  and  C_20
REMARK                            x       y       z     vdW  Elec       q    Type
REMARK                         _______ _______ _______ _____ _____    ______ ____
ROOT
ATOM      3  N   UNL     1      16.149   8.141  20.944  0.00  0.00    -0.299 NA
ATOM      8  C   UNL     1      15.446   8.642  19.761  0.00  0.00    +0.097 C 
ATOM      9  C   UNL     1      13.971   8.430  20.125  0.00  0.00    +0.092 C 
ATOM     10  C   UNL     1      15.451   6.906  21.301  0.00  0.00    +0.085 C 
ATOM     11  C   UNL     1      13.984   7.291  21.159  0.00  0.00    +0.029 C 
ENDROOT
BRANCH   3   7
ATOM      2  O   UNL     1      21.272   5.025  22.306  0.00  0.00    -0.276 OA
ATOM      4  N   UNL     1      20.147   6.914  21.553  0.00  0.00    -0.302 N 
ATOM      7  C   UNL     1      17.573   7.923  20.696  0.00  0.00    +0.060 C 
ATOM     12  C   UNL     1      18.408   8.652  21.757  0.00  0.00    +0.038 C 
ATOM     13  C   UNL     1      17.884   6.422  20.706  0.00  0.00    +0.038 C 
ATOM     14  C   UNL     1      19.898   8.360  21.575  0.00  0.00    +0.109 C 
ATOM     15  C   UNL     1      19.383   6.175  20.545  0.00  0.00    +0.109 C 
ATOM     17  C   UNL     1      21.054   6.238  22.369  0.00  0.00    +0.212 C 
ATOM     18  C   UNL     1      21.799   7.069  23.383  0.00  0.00    +0.109 C 
ENDBRANCH   3   7
BRANCH   9  16
ATOM      1  O   UNL     1      13.097   9.141  17.951  0.00  0.00    -0.425 OA
ATOM      5  N   UNL     1      12.316   7.163  18.645  0.00  0.00    -0.112 NA
ATOM      6  N   UNL     1      11.746   7.439  17.416  0.00  0.00    -0.113 NA
ATOM     16  C   UNL     1      13.096   8.182  18.917  0.00  0.00    +0.222 A 
ATOM     19  C   UNL     1      12.230   8.603  17.049  0.00  0.00    +0.214 A 
ATOM     20  C   UNL     1      11.974   9.379  15.830  0.00  0.00    +0.111 C 
ENDBRANCH   9  16
TORSDOF 2
ENDMDL
MODEL 6
REMARK VINA RESULT:      -6.1      4.657      7.244
REMARK  Name = 51137187
REMARK  4 active torsions:
REMARK  status: ('A' for Active; 'I' for Inactive)
REMARK    1  A    between atoms: N_3  and  C_7
REMARK    2  A    between atoms: C_9  and  C_16
REMARK    3  A    between atoms: C_17  and  C_18
REMARK    4  A    between atoms: C_19  and  C_20
REMARK                            x       y       z     vdW  Elec       q    Type
REMARK                         _______ _______ _______ _____ _____    ______ ____
ROOT
ATOM      3  N   UNL     1      12.003   8.310  21.043  0.00  0.00    -0.299 NA
ATOM      8  C   UNL     1      11.614   8.980  19.800  0.00  0.00    +0.097 C 
ATOM      9  C   UNL     1      11.906   7.917  18.733  0.00  0.00    +0.092 C 
ATOM     10  C   UNL     1      13.261   7.634  20.728  0.00  0.00    +0.085 C 
ATOM     11  C   UNL     1      12.984   7.019  19.362  0.00  0.00    +0.029 C 
ENDROOT
BRANCH   3   7
ATOM      2  O   UNL     1      10.123  13.482  23.786  0.00  0.00    -0.276 OA
ATOM      4  N   UNL     1      11.724  11.868  23.305  0.00  0.00    -0.302 N 
ATOM      7  C   UNL     1      12.137   9.242  22.160  0.00  0.00    +0.060 C 
ATOM     12  C   UNL     1      12.995  10.443  21.743  0.00  0.00    +0.038 C 
ATOM     13  C   UNL     1      10.752   9.707  22.625  0.00  0.00    +0.038 C 
ATOM     14  C   UNL     1      13.070  11.478  22.865  0.00  0.00    +0.109 C 
ATOM     15  C   UNL     1      10.871  10.756  23.729  0.00  0.00    +0.109 C 
ATOM     17  C   UNL     1      11.247  13.177  23.378  0.00  0.00    +0.212 C 
ATOM     18  C   UNL     1      12.185  14.265  22.920  0.00  0.00    +0.109 C 
ENDBRANCH   3   7
BRANCH   9  16
ATOM      1  O   UNL     1      13.471   9.163  17.320  0.00  0.00    -0.425 OA
ATOM      5  N   UNL     1      11.614   8.503  16.262  0.00  0.00    -0.112 NA
ATOM      6  N   UNL     1      12.402   9.188  15.356  0.00  0.00    -0.113 NA
ATOM     16  C   UNL     1      12.277   8.513  17.394  0.00  0.00    +0.222 A 
ATOM     19  C   UNL     1      13.474   9.555  16.016  0.00  0.00    +0.214 A 
ATOM     20  C   UNL     1      14.647  10.306  15.553  0.00  0.00    +0.111 C 
ENDBRANCH   9  16
TORSDOF 2
ENDMDL
MODEL 7
REMARK VINA RESULT:      -6.0      2.579      6.661
REMARK  Name = 51137187
REMARK  4 active torsions:
REMARK  status: ('A' for Active; 'I' for Inactive)
REMARK    1  A    between atoms: N_3  and  C_7
REMARK    2  A    between atoms: C_9  and  C_16
REMARK    3  A    between atoms: C_17  and  C_18
REMARK    4  A    between atoms: C_19  and  C_20
REMARK                            x       y       z     vdW  Elec       q    Type
REMARK                         _______ _______ _______ _____ _____    ______ ____
ROOT
ATOM      3  N   UNL     1      13.236   9.165  19.732  0.00  0.00    -0.299 NA
ATOM      8  C   UNL     1      14.649   8.959  19.405  0.00  0.00    +0.097 C 
ATOM      9  C   UNL     1      14.682   7.497  18.940  0.00  0.00    +0.092 C 
ATOM     10  C   UNL     1      12.836   7.954  20.450  0.00  0.00    +0.085 C 
ATOM     11  C   UNL     1      13.468   6.843  19.621  0.00  0.00    +0.029 C 
ENDROOT
BRANCH   3   7
ATOM      2  O   UNL     1      13.445  11.940  25.215  0.00  0.00    -0.276 OA
ATOM      4  N   UNL     1      12.585  11.669  23.073  0.00  0.00    -0.302 N 
ATOM      7  C   UNL     1      13.017  10.376  20.519  0.00  0.00    +0.060 C 
ATOM     12  C   UNL     1      11.666  10.296  21.242  0.00  0.00    +0.038 C 
ATOM     13  C   UNL     1      14.156  10.559  21.531  0.00  0.00    +0.038 C 
ATOM     14  C   UNL     1      11.457  11.509  22.148  0.00  0.00    +0.109 C 
ATOM     15  C   UNL     1      13.898  11.766  22.430  0.00  0.00    +0.109 C 
ATOM     17  C   UNL     1      12.483  11.770  24.461  0.00  0.00    +0.212 C 
ATOM     18  C   UNL     1      11.098  11.657  25.046  0.00  0.00    +0.109 C 
ENDBRANCH   3   7
BRANCH   9  16
ATOM      1  O   UNL     1      16.736   7.302  20.259  0.00  0.00    -0.425 OA
ATOM      5  N   UNL     1      16.579   5.820  18.591  0.00  0.00    -0.112 NA
ATOM      6  N   UNL     1      17.775   5.599  19.248  0.00  0.00    -0.113 NA
ATOM     16  C   UNL     1      16.006   6.822  19.215  0.00  0.00    +0.222 A 
ATOM     19  C   UNL     1      17.825   6.486  20.214  0.00  0.00    +0.214 A 
ATOM     20  C   UNL     1      18.864   6.711  21.226  0.00  0.00    +0.111 C 
ENDBRANCH   9  16
TORSDOF 2
ENDMDL
MODEL 8
REMARK VINA RESULT:      -6.0      3.303      6.899
REMARK  Name = 51137187
REMARK  4 active torsions:
REMARK  status: ('A' for Active; 'I' for Inactive)
REMARK    1  A    between atoms: N_3  and  C_7
REMARK    2  A    between atoms: C_9  and  C_16
REMARK    3  A    between atoms: C_17  and  C_18
REMARK    4  A    between atoms: C_19  and  C_20
REMARK                            x       y       z     vdW  Elec       q    Type
REMARK                         _______ _______ _______ _____ _____    ______ ____
ROOT
ATOM      3  N   UNL     1      14.118   7.671  19.362  0.00  0.00    -0.299 NA
ATOM      8  C   UNL     1      15.402   7.038  19.051  0.00  0.00    +0.097 C 
ATOM      9  C   UNL     1      15.829   6.449  20.401  0.00  0.00    +0.092 C 
ATOM     10  C   UNL     1      14.332   8.346  20.642  0.00  0.00    +0.085 C 
ATOM     11  C   UNL     1      15.102   7.309  21.449  0.00  0.00    +0.029 C 
ENDROOT
BRANCH   3   7
ATOM      2  O   UNL     1      15.308  10.413  13.990  0.00  0.00    -0.276 OA
ATOM      4  N   UNL     1      14.290  10.322  16.077  0.00  0.00    -0.302 N 
ATOM      7  C   UNL     1      13.680   8.590  18.314  0.00  0.00    +0.060 C 
ATOM     12  C   UNL     1      14.330   9.965  18.517  0.00  0.00    +0.038 C 
ATOM     13  C   UNL     1      14.041   8.025  16.935  0.00  0.00    +0.038 C 
ATOM     14  C   UNL     1      13.963  10.917  17.379  0.00  0.00    +0.109 C 
ATOM     15  C   UNL     1      13.680   9.014  15.829  0.00  0.00    +0.109 C 
ATOM     17  C   UNL     1      15.077  10.919  15.091  0.00  0.00    +0.212 C 
ATOM     18  C   UNL     1      15.672  12.264  15.424  0.00  0.00    +0.109 C 
ENDBRANCH   3   7
BRANCH   9  16
ATOM      1  O   UNL     1      17.846   6.897  21.714  0.00  0.00    -0.425 OA
ATOM      5  N   UNL     1      18.238   5.889  19.756  0.00  0.00    -0.112 NA
ATOM      6  N   UNL     1      19.452   6.080  20.388  0.00  0.00    -0.113 NA
ATOM     16  C   UNL     1      17.330   6.380  20.566  0.00  0.00    +0.222 A 
ATOM     19  C   UNL     1      19.176   6.672  21.526  0.00  0.00    +0.214 A 
ATOM     20  C   UNL     1      20.080   7.108  22.598  0.00  0.00    +0.111 C 
ENDBRANCH   9  16
TORSDOF 2
ENDMDL
MODEL 9
REMARK VINA RESULT:      -6.0     16.364     18.503
REMARK  Name = 51137187
REMARK  4 active torsions:
REMARK  status: ('A' for Active; 'I' for Inactive)
REMARK    1  A    between atoms: N_3  and  C_7
REMARK    2  A    between atoms: C_9  and  C_16
REMARK    3  A    between atoms: C_17  and  C_18
REMARK    4  A    between atoms: C_19  and  C_20
REMARK                            x       y       z     vdW  Elec       q    Type
REMARK                         _______ _______ _______ _____ _____    ______ ____
ROOT
ATOM      3  N   UNL     1       9.492   6.807   2.808  0.00  0.00    -0.299 NA
ATOM      8  C   UNL     1       9.576   6.149   4.115  0.00  0.00    +0.097 C 
ATOM      9  C   UNL     1       8.363   6.717   4.862  0.00  0.00    +0.092 C 
ATOM     10  C   UNL     1       9.157   8.199   3.110  0.00  0.00    +0.085 C 
ATOM     11  C   UNL     1       8.080   8.066   4.179  0.00  0.00    +0.029 C 
ENDROOT
BRANCH   3   7
ATOM      2  O   UNL     1      13.383   3.197  -0.295  0.00  0.00    -0.276 OA
ATOM      4  N   UNL     1      12.888   5.067   0.993  0.00  0.00    -0.302 N 
ATOM      7  C   UNL     1      10.730   6.686   2.042  0.00  0.00    +0.060 C 
ATOM     12  C   UNL     1      11.858   6.170   2.944  0.00  0.00    +0.038 C 
ATOM     13  C   UNL     1      10.521   5.744   0.851  0.00  0.00    +0.038 C 
ATOM     14  C   UNL     1      13.140   5.944   2.143  0.00  0.00    +0.109 C 
ATOM     15  C   UNL     1      11.828   5.526   0.091  0.00  0.00    +0.109 C 
ATOM     17  C   UNL     1      13.591   3.899   0.699  0.00  0.00    +0.212 C 
ATOM     18  C   UNL     1      14.664   3.492   1.677  0.00  0.00    +0.109 C 
ENDBRANCH   3   7
BRANCH   9  16
ATOM      1  O   UNL     1       9.143   5.710   6.953  0.00  0.00    -0.425 OA
ATOM      5  N   UNL     1       8.292   7.765   7.193  0.00  0.00    -0.112 NA
ATOM      6  N   UNL     1       8.690   7.319   8.439  0.00  0.00    -0.113 NA
ATOM     16  C   UNL     1       8.576   6.794   6.357  0.00  0.00    +0.222 A 
ATOM     19  C   UNL     1       9.180   6.117   8.252  0.00  0.00    +0.214 A 
ATOM     20  C   UNL     1       9.751   5.177   9.225  0.00  0.00    +0.111 C 
ENDBRANCH   9  16
TORSDOF 2
ENDMDL
MODEL 10
REMARK VINA RESULT:      -5.9     26.687     28.161
REMARK  Name = 51137187
REMARK  4 active torsions:
REMARK  status: ('A' for Active; 'I' for Inactive)
REMARK    1  A    between atoms: N_3  and  C_7
REMARK    2  A    between atoms: C_9  and  C_16
REMARK    3  A    between atoms: C_17  and  C_18
REMARK    4  A    between atoms: C_19  and  C_20
REMARK                            x       y       z     vdW  Elec       q    Type
REMARK                         _______ _______ _______ _____ _____    ______ ____
ROOT
ATOM      3  N   UNL     1      -4.126 -10.855  15.956  0.00  0.00    -0.299 NA
ATOM      8  C   UNL     1      -5.330 -10.020  15.989  0.00  0.00    +0.097 C 
ATOM      9  C   UNL     1      -5.769 -10.113  17.456  0.00  0.00    +0.092 C 
ATOM     10  C   UNL     1      -4.466 -12.036  16.749  0.00  0.00    +0.085 C 
ATOM     11  C   UNL     1      -5.177 -11.441  17.958  0.00  0.00    +0.029 C 
ENDROOT
BRANCH   3   7
ATOM      2  O   UNL     1      -1.490  -9.086  10.690  0.00  0.00    -0.276 OA
ATOM      4  N   UNL     1      -2.974 -10.388  11.918  0.00  0.00    -0.302 N 
ATOM      7  C   UNL     1      -3.722 -11.197  14.594  0.00  0.00    +0.060 C 
ATOM     12  C   UNL     1      -4.762 -10.678  13.592  0.00  0.00    +0.038 C 
ATOM     13  C   UNL     1      -2.341 -10.603  14.291  0.00  0.00    +0.038 C 
ATOM     14  C   UNL     1      -4.313 -10.939  12.154  0.00  0.00    +0.109 C 
ATOM     15  C   UNL     1      -1.941 -10.865  12.840  0.00  0.00    +0.109 C 
ATOM     17  C   UNL     1      -2.633  -9.508  10.890  0.00  0.00    +0.212 C 
ATOM     18  C   UNL     1      -3.752  -9.061   9.985  0.00  0.00    +0.109 C 
ENDBRANCH   3   7
BRANCH   9  16
ATOM      1  O   UNL     1      -7.840  -8.846  17.140  0.00  0.00    -0.425 OA
ATOM      5  N   UNL     1      -8.117 -10.795  18.203  0.00  0.00    -0.112 NA
ATOM      6  N   UNL     1      -9.354 -10.189  18.092  0.00  0.00    -0.113 NA
ATOM     16  C   UNL     1      -7.264  -9.976  17.633  0.00  0.00    +0.222 A 
ATOM     19  C   UNL     1      -9.145  -9.055  17.466  0.00  0.00    +0.214 A 
ATOM     20  C   UNL     1     -10.101  -8.011  17.077  0.00  0.00    +0.111 C 
ENDBRANCH   9  16
TORSDOF 2
ENDMDL
