MODEL 1
REMARK VINA RESULT:      -6.7      0.000      0.000
REMARK  Name = 51138073
REMARK  13 active torsions:
REMARK  status: ('A' for Active; 'I' for Inactive)
REMARK    1  A    between atoms: N_3  and  C_22
REMARK    2  A    between atoms: N_4  and  C_23
REMARK    3  A    between atoms: N_5  and  C_24
REMARK    4  A    between atoms: N_5  and  C_27
REMARK    5  A    between atoms: N_5  and  C_28
REMARK    6  A    between atoms: C_6  and  C_10
REMARK    7  A    between atoms: C_8  and  C_17
REMARK    8  A    between atoms: C_10  and  C_13
REMARK    9  A    between atoms: C_13  and  C_20
REMARK   10  A    between atoms: C_13  and  C_21
REMARK   11  A    between atoms: C_22  and  C_25
REMARK   12  A    between atoms: C_23  and  C_24
REMARK   13  A    between atoms: C_26  and  C_29
REMARK                            x       y       z     vdW  Elec       q    Type
REMARK                         _______ _______ _______ _____ _____    ______ ____
ROOT
ATOM      2  N   UNL     1      -6.709 -10.820  16.090  0.00  0.00    -0.299 NA
ATOM      3  N   UNL     1      -3.896 -10.223  11.938  0.00  0.00    -0.335 N 
ATOM      6  C   UNL     1      -5.323 -10.692  16.562  0.00  0.00    +0.085 C 
ATOM      7  C   UNL     1      -4.244 -10.683  15.475  0.00  0.00    -0.021 A 
ATOM      8  C   UNL     1      -7.177  -9.709  15.273  0.00  0.00    +0.145 C 
ATOM      9  C   UNL     1      -4.477 -10.449  14.089  0.00  0.00    +0.008 A 
ATOM     11  C   UNL     1      -7.057 -10.019  13.782  0.00  0.00    +0.065 C 
ATOM     12  C   UNL     1      -5.649 -10.161  13.307  0.00  0.00    -0.020 A 
ATOM     14  C   UNL     1      -3.398 -10.454  13.198  0.00  0.00    +0.050 A 
ATOM     15  C   UNL     1      -5.247 -10.039  11.992  0.00  0.00    +0.091 A 
ATOM     16  C   UNL     1      -2.889 -10.841  15.864  0.00  0.00    +0.006 A 
ATOM     18  C   UNL     1      -2.074 -10.658  13.593  0.00  0.00    +0.026 A 
ATOM     19  C   UNL     1      -1.836 -10.840  14.949  0.00  0.00    +0.002 A 
ATOM     30  H   UNL     1      -6.851 -11.711  15.617  0.00  0.00    +0.123 HD
ENDROOT
BRANCH   8  17
ATOM      1  O   UNL     1      -9.373 -10.512  15.752  0.00  0.00    -0.274 OA
ATOM      4  N   UNL     1      -8.986  -8.216  15.755  0.00  0.00    -0.313 N 
ATOM     17  C   UNL     1      -8.625  -9.547  15.624  0.00  0.00    +0.230 C 
ATOM     31  H   UNL     1      -8.281  -7.494  15.644  0.00  0.00    +0.149 HD
BRANCH   4  23
ATOM     23  C   UNL     1     -10.331  -7.789  16.068  0.00  0.00    +0.119 C 
BRANCH  23  24
ATOM     24  C   UNL     1     -10.546  -6.331  15.691  0.00  0.00    +0.102 C 
BRANCH  24   5
ATOM      5  N   UNL     1     -11.971  -6.046  15.565  0.00  0.00    -0.307 NA
ATOM     27  C   UNL     1     -12.271  -5.485  14.247  0.00  0.00    +0.104 C 
ATOM     28  C   UNL     1     -12.761  -7.257  15.794  0.00  0.00    +0.104 C 
ENDBRANCH  24   5
ENDBRANCH  23  24
ENDBRANCH   4  23
ENDBRANCH   8  17
BRANCH   6  10
ATOM     10  C   UNL     1      -5.145 -11.849  17.561  0.00  0.00    +0.026 C 
BRANCH  10  13
ATOM     13  C   UNL     1      -4.771 -11.373  18.968  0.00  0.00    -0.015 C 
ATOM     20  C   UNL     1      -3.653 -12.260  19.520  0.00  0.00    +0.007 C 
ATOM     21  C   UNL     1      -5.961 -11.382  19.929  0.00  0.00    +0.007 C 
ENDBRANCH  10  13
ENDBRANCH   6  10
BRANCH   3  22
ATOM     22  C   UNL     1      -3.115 -10.158  10.721  0.00  0.00    +0.210 C 
BRANCH  22  25
ATOM     25  C   UNL     1      -3.964 -10.059   9.527  0.00  0.00    -0.081 C 
ATOM     26  C   UNL     1      -4.658  -9.979   8.549  0.00  0.00    -0.104 C 
ATOM     29  C   UNL     1      -5.502  -9.881   7.359  0.00  0.00    +0.106 C 
ENDBRANCH  22  25
ENDBRANCH   3  22
TORSDOF 8
ENDMDL
MODEL 2
REMARK VINA RESULT:      -6.6      1.866      6.962
REMARK  Name = 51138073
REMARK  13 active torsions:
REMARK  status: ('A' for Active; 'I' for Inactive)
REMARK    1  A    between atoms: N_3  and  C_22
REMARK    2  A    between atoms: N_4  and  C_23
REMARK    3  A    between atoms: N_5  and  C_24
REMARK    4  A    between atoms: N_5  and  C_27
REMARK    5  A    between atoms: N_5  and  C_28
REMARK    6  A    between atoms: C_6  and  C_10
REMARK    7  A    between atoms: C_8  and  C_17
REMARK    8  A    between atoms: C_10  and  C_13
REMARK    9  A    between atoms: C_13  and  C_20
REMARK   10  A    between atoms: C_13  and  C_21
REMARK   11  A    between atoms: C_22  and  C_25
REMARK   12  A    between atoms: C_23  and  C_24
REMARK   13  A    between atoms: C_26  and  C_29
REMARK                            x       y       z     vdW  Elec       q    Type
REMARK                         _______ _______ _______ _____ _____    ______ ____
ROOT
ATOM      2  N   UNL     1      -4.464 -10.746  14.568  0.00  0.00    -0.299 NA
ATOM      3  N   UNL     1      -8.647  -9.584  17.149  0.00  0.00    -0.335 N 
ATOM      6  C   UNL     1      -4.288 -11.341  15.900  0.00  0.00    +0.085 C 
ATOM      7  C   UNL     1      -5.349 -10.973  16.942  0.00  0.00    -0.021 A 
ATOM      8  C   UNL     1      -5.668 -11.170  13.868  0.00  0.00    +0.145 C 
ATOM      9  C   UNL     1      -6.625 -10.409  16.651  0.00  0.00    +0.008 A 
ATOM     11  C   UNL     1      -6.801 -10.159  14.036  0.00  0.00    +0.065 C 
ATOM     12  C   UNL     1      -7.301 -10.039  15.437  0.00  0.00    -0.020 A 
ATOM     14  C   UNL     1      -7.511 -10.131  17.698  0.00  0.00    +0.050 A 
ATOM     15  C   UNL     1      -8.534  -9.530  15.791  0.00  0.00    +0.091 A 
ATOM     16  C   UNL     1      -5.097 -11.280  18.304  0.00  0.00    +0.006 A 
ATOM     18  C   UNL     1      -7.226 -10.397  19.039  0.00  0.00    +0.026 A 
ATOM     19  C   UNL     1      -6.003 -10.990  19.324  0.00  0.00    +0.002 A 
ATOM     30  H   UNL     1      -4.401  -9.730  14.612  0.00  0.00    +0.123 HD
ENDROOT
BRANCH   8  17
ATOM      1  O   UNL     1      -6.052 -11.645  11.561  0.00  0.00    -0.274 OA
ATOM      4  N   UNL     1      -3.980 -10.806  12.210  0.00  0.00    -0.313 N 
ATOM     17  C   UNL     1      -5.280 -11.235  12.422  0.00  0.00    +0.230 C 
ATOM     31  H   UNL     1      -3.430 -10.470  12.995  0.00  0.00    +0.149 HD
BRANCH   4  23
ATOM     23  C   UNL     1      -3.355 -10.792  10.907  0.00  0.00    +0.119 C 
BRANCH  23  24
ATOM     24  C   UNL     1      -3.133  -9.368  10.419  0.00  0.00    +0.102 C 
BRANCH  24   5
ATOM      5  N   UNL     1      -4.046  -9.059   9.325  0.00  0.00    -0.307 NA
ATOM     27  C   UNL     1      -4.510 -10.287   8.677  0.00  0.00    +0.104 C 
ATOM     28  C   UNL     1      -5.185  -8.278   9.810  0.00  0.00    +0.104 C 
ENDBRANCH  24   5
ENDBRANCH  23  24
ENDBRANCH   4  23
ENDBRANCH   8  17
BRANCH   6  10
ATOM     10  C   UNL     1      -2.870 -10.922  16.329  0.00  0.00    +0.026 C 
BRANCH  10  13
ATOM     13  C   UNL     1      -1.942 -10.649  15.141  0.00  0.00    -0.015 C 
ATOM     20  C   UNL     1      -1.420 -11.979  14.593  0.00  0.00    +0.007 C 
ATOM     21  C   UNL     1      -0.766  -9.743  15.509  0.00  0.00    +0.007 C 
ENDBRANCH  10  13
ENDBRANCH   6  10
BRANCH   3  22
ATOM     22  C   UNL     1      -9.811  -9.144  17.887  0.00  0.00    +0.210 C 
BRANCH  22  25
ATOM     25  C   UNL     1     -10.481  -8.012  17.233  0.00  0.00    -0.081 C 
ATOM     26  C   UNL     1     -11.028  -7.085  16.699  0.00  0.00    -0.104 C 
ATOM     29  C   UNL     1     -11.695  -5.957  16.050  0.00  0.00    +0.106 C 
ENDBRANCH  22  25
ENDBRANCH   3  22
TORSDOF 8
ENDMDL
MODEL 3
REMARK VINA RESULT:      -6.2     27.828     30.168
REMARK  Name = 51138073
REMARK  13 active torsions:
REMARK  status: ('A' for Active; 'I' for Inactive)
REMARK    1  A    between atoms: N_3  and  C_22
REMARK    2  A    between atoms: N_4  and  C_23
REMARK    3  A    between atoms: N_5  and  C_24
REMARK    4  A    between atoms: N_5  and  C_27
REMARK    5  A    between atoms: N_5  and  C_28
REMARK    6  A    between atoms: C_6  and  C_10
REMARK    7  A    between atoms: C_8  and  C_17
REMARK    8  A    between atoms: C_10  and  C_13
REMARK    9  A    between atoms: C_13  and  C_20
REMARK   10  A    between atoms: C_13  and  C_21
REMARK   11  A    between atoms: C_22  and  C_25
REMARK   12  A    between atoms: C_23  and  C_24
REMARK   13  A    between atoms: C_26  and  C_29
REMARK                            x       y       z     vdW  Elec       q    Type
REMARK                         _______ _______ _______ _____ _____    ______ ____
ROOT
ATOM      2  N   UNL     1      15.775   8.354  20.775  0.00  0.00    -0.299 NA
ATOM      3  N   UNL     1      20.206   5.942  20.543  0.00  0.00    -0.335 N 
ATOM      6  C   UNL     1      16.802   9.392  20.929  0.00  0.00    +0.085 C 
ATOM      7  C   UNL     1      18.243   8.892  21.078  0.00  0.00    -0.021 A 
ATOM      8  C   UNL     1      15.895   7.555  19.562  0.00  0.00    +0.145 C 
ATOM      9  C   UNL     1      18.695   7.582  20.746  0.00  0.00    +0.008 A 
ATOM     11  C   UNL     1      16.624   6.240  19.827  0.00  0.00    +0.065 C 
ATOM     12  C   UNL     1      18.057   6.410  20.211  0.00  0.00    -0.020 A 
ATOM     14  C   UNL     1      20.044   7.255  20.917  0.00  0.00    +0.050 A 
ATOM     15  C   UNL     1      19.019   5.426  20.112  0.00  0.00    +0.091 A 
ATOM     16  C   UNL     1      19.238   9.808  21.504  0.00  0.00    +0.006 A 
ATOM     18  C   UNL     1      21.002   8.158  21.382  0.00  0.00    +0.026 A 
ATOM     19  C   UNL     1      20.576   9.450  21.662  0.00  0.00    +0.002 A 
ATOM     30  H   UNL     1      15.728   7.762  21.603  0.00  0.00    +0.123 HD
ENDROOT
BRANCH   8  17
ATOM      1  O   UNL     1      14.084   7.489  18.009  0.00  0.00    -0.274 OA
ATOM      4  N   UNL     1      13.733   6.736  20.183  0.00  0.00    -0.313 N 
ATOM     17  C   UNL     1      14.486   7.260  19.146  0.00  0.00    +0.230 C 
ATOM     31  H   UNL     1      14.170   6.571  21.085  0.00  0.00    +0.149 HD
BRANCH   4  23
ATOM     23  C   UNL     1      12.337   6.387  20.049  0.00  0.00    +0.119 C 
BRANCH  23  24
ATOM     24  C   UNL     1      11.608   6.513  21.378  0.00  0.00    +0.102 C 
BRANCH  24   5
ATOM      5  N   UNL     1      10.669   7.628  21.337  0.00  0.00    -0.307 NA
ATOM     27  C   UNL     1      10.779   8.441  22.549  0.00  0.00    +0.104 C 
ATOM     28  C   UNL     1      10.899   8.452  20.149  0.00  0.00    +0.104 C 
ENDBRANCH  24   5
ENDBRANCH  23  24
ENDBRANCH   4  23
ENDBRANCH   8  17
BRANCH   6  10
ATOM     10  C   UNL     1      16.338  10.222  22.140  0.00  0.00    +0.026 C 
BRANCH  10  13
ATOM     13  C   UNL     1      15.986  11.667  21.775  0.00  0.00    -0.015 C 
ATOM     20  C   UNL     1      14.489  11.893  21.998  0.00  0.00    +0.007 C 
ATOM     21  C   UNL     1      16.353  12.017  20.332  0.00  0.00    +0.007 C 
ENDBRANCH  10  13
ENDBRANCH   6  10
BRANCH   3  22
ATOM     22  C   UNL     1      21.450   5.203  20.576  0.00  0.00    +0.210 C 
BRANCH  22  25
ATOM     25  C   UNL     1      21.907   4.954  21.950  0.00  0.00    -0.081 C 
ATOM     26  C   UNL     1      22.281   4.749  23.072  0.00  0.00    -0.104 C 
ATOM     29  C   UNL     1      22.736   4.500  24.440  0.00  0.00    +0.106 C 
ENDBRANCH  22  25
ENDBRANCH   3  22
TORSDOF 8
ENDMDL
MODEL 4
REMARK VINA RESULT:      -6.1      2.123      2.688
REMARK  Name = 51138073
REMARK  13 active torsions:
REMARK  status: ('A' for Active; 'I' for Inactive)
REMARK    1  A    between atoms: N_3  and  C_22
REMARK    2  A    between atoms: N_4  and  C_23
REMARK    3  A    between atoms: N_5  and  C_24
REMARK    4  A    between atoms: N_5  and  C_27
REMARK    5  A    between atoms: N_5  and  C_28
REMARK    6  A    between atoms: C_6  and  C_10
REMARK    7  A    between atoms: C_8  and  C_17
REMARK    8  A    between atoms: C_10  and  C_13
REMARK    9  A    between atoms: C_13  and  C_20
REMARK   10  A    between atoms: C_13  and  C_21
REMARK   11  A    between atoms: C_22  and  C_25
REMARK   12  A    between atoms: C_23  and  C_24
REMARK   13  A    between atoms: C_26  and  C_29
REMARK                            x       y       z     vdW  Elec       q    Type
REMARK                         _______ _______ _______ _____ _____    ______ ____
ROOT
ATOM      2  N   UNL     1      -6.755 -11.056  16.620  0.00  0.00    -0.299 NA
ATOM      3  N   UNL     1      -3.645 -10.342  12.705  0.00  0.00    -0.335 N 
ATOM      6  C   UNL     1      -5.420 -10.865  17.202  0.00  0.00    +0.085 C 
ATOM      7  C   UNL     1      -4.257 -10.810  16.205  0.00  0.00    -0.021 A 
ATOM      8  C   UNL     1      -7.205  -9.969  15.761  0.00  0.00    +0.145 C 
ATOM      9  C   UNL     1      -4.387 -10.590  14.803  0.00  0.00    +0.008 A 
ATOM     11  C   UNL     1      -6.950 -10.277  14.287  0.00  0.00    +0.065 C 
ATOM     12  C   UNL     1      -5.504 -10.356  13.927  0.00  0.00    -0.020 A 
ATOM     14  C   UNL     1      -3.241 -10.548  14.003  0.00  0.00    +0.050 A 
ATOM     15  C   UNL     1      -5.002 -10.220  12.649  0.00  0.00    +0.091 A 
ATOM     16  C   UNL     1      -2.932 -10.905  16.703  0.00  0.00    +0.006 A 
ATOM     18  C   UNL     1      -1.945 -10.691  14.506  0.00  0.00    +0.026 A 
ATOM     19  C   UNL     1      -1.810 -10.859  15.877  0.00  0.00    +0.002 A 
ATOM     30  H   UNL     1      -6.819 -11.954  16.142  0.00  0.00    +0.123 HD
ENDROOT
BRANCH   8  17
ATOM      1  O   UNL     1      -9.480  -9.778  15.064  0.00  0.00    -0.274 OA
ATOM      4  N   UNL     1      -9.002  -9.880  17.340  0.00  0.00    -0.313 N 
ATOM     17  C   UNL     1      -8.682  -9.872  15.993  0.00  0.00    +0.230 C 
ATOM     31  H   UNL     1      -8.262  -9.978  18.029  0.00  0.00    +0.149 HD
BRANCH   4  23
ATOM     23  C   UNL     1     -10.357  -9.774  17.831  0.00  0.00    +0.119 C 
BRANCH  23  24
ATOM     24  C   UNL     1     -10.960 -11.148  18.082  0.00  0.00    +0.102 C 
BRANCH  24   5
ATOM      5  N   UNL     1     -11.332 -11.290  19.485  0.00  0.00    -0.307 NA
ATOM     27  C   UNL     1     -11.933 -10.054  19.988  0.00  0.00    +0.104 C 
ATOM     28  C   UNL     1     -12.255 -12.412  19.663  0.00  0.00    +0.104 C 
ENDBRANCH  24   5
ENDBRANCH  23  24
ENDBRANCH   4  23
ENDBRANCH   8  17
BRANCH   6  10
ATOM     10  C   UNL     1      -5.271 -12.010  18.219  0.00  0.00    +0.026 C 
BRANCH  10  13
ATOM     13  C   UNL     1      -5.967 -11.720  19.552  0.00  0.00    -0.015 C 
ATOM     20  C   UNL     1      -7.313 -12.446  19.587  0.00  0.00    +0.007 C 
ATOM     21  C   UNL     1      -6.180 -10.225  19.793  0.00  0.00    +0.007 C 
ENDBRANCH  10  13
ENDBRANCH   6  10
BRANCH   3  22
ATOM     22  C   UNL     1      -2.771 -10.246  11.556  0.00  0.00    +0.210 C 
BRANCH  22  25
ATOM     25  C   UNL     1      -3.522 -10.050  10.308  0.00  0.00    -0.081 C 
ATOM     26  C   UNL     1      -4.135  -9.890   9.288  0.00  0.00    -0.104 C 
ATOM     29  C   UNL     1      -4.882  -9.694   8.046  0.00  0.00    +0.106 C 
ENDBRANCH  22  25
ENDBRANCH   3  22
TORSDOF 8
ENDMDL
MODEL 5
REMARK VINA RESULT:      -5.9     25.849     29.491
REMARK  Name = 51138073
REMARK  13 active torsions:
REMARK  status: ('A' for Active; 'I' for Inactive)
REMARK    1  A    between atoms: N_3  and  C_22
REMARK    2  A    between atoms: N_4  and  C_23
REMARK    3  A    between atoms: N_5  and  C_24
REMARK    4  A    between atoms: N_5  and  C_27
REMARK    5  A    between atoms: N_5  and  C_28
REMARK    6  A    between atoms: C_6  and  C_10
REMARK    7  A    between atoms: C_8  and  C_17
REMARK    8  A    between atoms: C_10  and  C_13
REMARK    9  A    between atoms: C_13  and  C_20
REMARK   10  A    between atoms: C_13  and  C_21
REMARK   11  A    between atoms: C_22  and  C_25
REMARK   12  A    between atoms: C_23  and  C_24
REMARK   13  A    between atoms: C_26  and  C_29
REMARK                            x       y       z     vdW  Elec       q    Type
REMARK                         _______ _______ _______ _____ _____    ______ ____
ROOT
ATOM      2  N   UNL     1      15.245   6.708   3.836  0.00  0.00    -0.299 NA
ATOM      3  N   UNL     1      10.707   7.117   6.014  0.00  0.00    -0.335 N 
ATOM      6  C   UNL     1      14.269   6.615   2.742  0.00  0.00    +0.085 C 
ATOM      7  C   UNL     1      12.798   6.528   3.164  0.00  0.00    -0.021 A 
ATOM      8  C   UNL     1      15.139   7.914   4.645  0.00  0.00    +0.145 C 
ATOM      9  C   UNL     1      12.293   6.864   4.453  0.00  0.00    +0.008 A 
ATOM     11  C   UNL     1      14.329   7.668   5.916  0.00  0.00    +0.065 C 
ATOM     12  C   UNL     1      12.891   7.354   5.665  0.00  0.00    -0.020 A 
ATOM     14  C   UNL     1      10.921   6.753   4.706  0.00  0.00    +0.050 A 
ATOM     15  C   UNL     1      11.883   7.486   6.598  0.00  0.00    +0.091 A 
ATOM     16  C   UNL     1      11.834   6.161   2.190  0.00  0.00    +0.006 A 
ATOM     18  C   UNL     1       9.992   6.344   3.747  0.00  0.00    +0.026 A 
ATOM     19  C   UNL     1      10.473   6.061   2.475  0.00  0.00    +0.002 A 
ATOM     30  H   UNL     1      15.222   5.871   4.417  0.00  0.00    +0.123 HD
ENDROOT
BRANCH   8  17
ATOM      1  O   UNL     1      16.904   8.346   6.192  0.00  0.00    -0.274 OA
ATOM      4  N   UNL     1      17.346   8.481   3.911  0.00  0.00    -0.313 N 
ATOM     17  C   UNL     1      16.547   8.260   5.020  0.00  0.00    +0.230 C 
ATOM     31  H   UNL     1      16.953   8.367   2.981  0.00  0.00    +0.149 HD
BRANCH   4  23
ATOM     23  C   UNL     1      18.740   8.851   4.001  0.00  0.00    +0.119 C 
BRANCH  23  24
ATOM     24  C   UNL     1      19.640   7.741   3.479  0.00  0.00    +0.102 C 
BRANCH  24   5
ATOM      5  N   UNL     1      20.317   7.076   4.585  0.00  0.00    -0.307 NA
ATOM     27  C   UNL     1      21.637   6.596   4.170  0.00  0.00    +0.104 C 
ATOM     28  C   UNL     1      20.442   7.978   5.731  0.00  0.00    +0.104 C 
ENDBRANCH  24   5
ENDBRANCH  23  24
ENDBRANCH   4  23
ENDBRANCH   8  17
BRANCH   6  10
ATOM     10  C   UNL     1      14.720   5.394   1.920  0.00  0.00    +0.026 C 
BRANCH  10  13
ATOM     13  C   UNL     1      15.116   5.752   0.485  0.00  0.00    -0.015 C 
ATOM     20  C   UNL     1      14.972   7.262   0.284  0.00  0.00    +0.007 C 
ATOM     21  C   UNL     1      14.280   5.010  -0.559  0.00  0.00    +0.007 C 
ENDBRANCH  10  13
ENDBRANCH   6  10
BRANCH   3  22
ATOM     22  C   UNL     1       9.426   7.133   6.686  0.00  0.00    +0.210 C 
BRANCH  22  25
ATOM     25  C   UNL     1       9.401   6.235   7.848  0.00  0.00    -0.081 C 
ATOM     26  C   UNL     1       9.380   5.500   8.797  0.00  0.00    -0.104 C 
ATOM     29  C   UNL     1       9.355   4.605   9.953  0.00  0.00    +0.106 C 
ENDBRANCH  22  25
ENDBRANCH   3  22
TORSDOF 8
ENDMDL
MODEL 6
REMARK VINA RESULT:      -5.9     24.006     26.934
REMARK  Name = 51138073
REMARK  13 active torsions:
REMARK  status: ('A' for Active; 'I' for Inactive)
REMARK    1  A    between atoms: N_3  and  C_22
REMARK    2  A    between atoms: N_4  and  C_23
REMARK    3  A    between atoms: N_5  and  C_24
REMARK    4  A    between atoms: N_5  and  C_27
REMARK    5  A    between atoms: N_5  and  C_28
REMARK    6  A    between atoms: C_6  and  C_10
REMARK    7  A    between atoms: C_8  and  C_17
REMARK    8  A    between atoms: C_10  and  C_13
REMARK    9  A    between atoms: C_13  and  C_20
REMARK   10  A    between atoms: C_13  and  C_21
REMARK   11  A    between atoms: C_22  and  C_25
REMARK   12  A    between atoms: C_23  and  C_24
REMARK   13  A    between atoms: C_26  and  C_29
REMARK                            x       y       z     vdW  Elec       q    Type
REMARK                         _______ _______ _______ _____ _____    ______ ____
ROOT
ATOM      2  N   UNL     1      12.066   6.344   4.454  0.00  0.00    -0.299 NA
ATOM      3  N   UNL     1      12.965   4.219  -0.038  0.00  0.00    -0.335 N 
ATOM      6  C   UNL     1      12.499   7.439   3.575  0.00  0.00    +0.085 C 
ATOM      7  C   UNL     1      13.011   7.023   2.192  0.00  0.00    -0.021 A 
ATOM      8  C   UNL     1      10.915   5.594   3.969  0.00  0.00    +0.145 C 
ATOM      9  C   UNL     1      12.790   5.755   1.582  0.00  0.00    +0.008 A 
ATOM     11  C   UNL     1      11.342   4.318   3.246  0.00  0.00    +0.065 C 
ATOM     12  C   UNL     1      12.089   4.563   1.977  0.00  0.00    -0.020 A 
ATOM     14  C   UNL     1      13.303   5.507   0.304  0.00  0.00    +0.050 A 
ATOM     15  C   UNL     1      12.231   3.645   0.957  0.00  0.00    +0.091 A 
ATOM     16  C   UNL     1      13.696   7.986   1.406  0.00  0.00    +0.006 A 
ATOM     18  C   UNL     1      14.015   6.452  -0.437  0.00  0.00    +0.026 A 
ATOM     19  C   UNL     1      14.193   7.706   0.134  0.00  0.00    +0.002 A 
ATOM     30  H   UNL     1      12.844   5.724   4.674  0.00  0.00    +0.123 HD
ENDROOT
BRANCH   8  17
ATOM      1  O   UNL     1       9.073   4.622   5.135  0.00  0.00    -0.274 OA
ATOM      4  N   UNL     1      10.761   5.659   6.358  0.00  0.00    -0.313 N 
ATOM     17  C   UNL     1      10.141   5.225   5.198  0.00  0.00    +0.230 C 
ATOM     31  H   UNL     1      11.656   6.137   6.297  0.00  0.00    +0.149 HD
BRANCH   4  23
ATOM     23  C   UNL     1      10.208   5.450   7.676  0.00  0.00    +0.119 C 
BRANCH  23  24
ATOM     24  C   UNL     1       9.307   6.607   8.084  0.00  0.00    +0.102 C 
BRANCH  24   5
ATOM      5  N   UNL     1       9.526   7.752   7.209  0.00  0.00    -0.307 NA
ATOM     27  C   UNL     1       8.287   8.123   6.524  0.00  0.00    +0.104 C 
ATOM     28  C   UNL     1      10.046   8.890   7.970  0.00  0.00    +0.104 C 
ENDBRANCH  24   5
ENDBRANCH  23  24
ENDBRANCH   4  23
ENDBRANCH   8  17
BRANCH   6  10
ATOM     10  C   UNL     1      13.558   8.199   4.393  0.00  0.00    +0.026 C 
BRANCH  10  13
ATOM     13  C   UNL     1      14.678   7.292   4.910  0.00  0.00    -0.015 C 
ATOM     20  C   UNL     1      14.783   7.436   6.430  0.00  0.00    +0.007 C 
ATOM     21  C   UNL     1      16.031   7.602   4.267  0.00  0.00    +0.007 C 
ENDBRANCH  10  13
ENDBRANCH   6  10
BRANCH   3  22
ATOM     22  C   UNL     1      13.311   3.558  -1.278  0.00  0.00    +0.210 C 
BRANCH  22  25
ATOM     25  C   UNL     1      12.132   2.999  -1.952  0.00  0.00    -0.081 C 
ATOM     26  C   UNL     1      11.168   2.541  -2.504  0.00  0.00    -0.104 C 
ATOM     29  C   UNL     1       9.995   1.984  -3.176  0.00  0.00    +0.106 C 
ENDBRANCH  22  25
ENDBRANCH   3  22
TORSDOF 8
ENDMDL
MODEL 7
REMARK VINA RESULT:      -5.7     25.472     29.005
REMARK  Name = 51138073
REMARK  13 active torsions:
REMARK  status: ('A' for Active; 'I' for Inactive)
REMARK    1  A    between atoms: N_3  and  C_22
REMARK    2  A    between atoms: N_4  and  C_23
REMARK    3  A    between atoms: N_5  and  C_24
REMARK    4  A    between atoms: N_5  and  C_27
REMARK    5  A    between atoms: N_5  and  C_28
REMARK    6  A    between atoms: C_6  and  C_10
REMARK    7  A    between atoms: C_8  and  C_17
REMARK    8  A    between atoms: C_10  and  C_13
REMARK    9  A    between atoms: C_13  and  C_20
REMARK   10  A    between atoms: C_13  and  C_21
REMARK   11  A    between atoms: C_22  and  C_25
REMARK   12  A    between atoms: C_23  and  C_24
REMARK   13  A    between atoms: C_26  and  C_29
REMARK                            x       y       z     vdW  Elec       q    Type
REMARK                         _______ _______ _______ _____ _____    ______ ____
ROOT
ATOM      2  N   UNL     1      14.688   6.697   3.493  0.00  0.00    -0.299 NA
ATOM      3  N   UNL     1      10.368   7.044   6.087  0.00  0.00    -0.335 N 
ATOM      6  C   UNL     1      13.629   6.849   2.486  0.00  0.00    +0.085 C 
ATOM      7  C   UNL     1      12.191   6.792   3.012  0.00  0.00    -0.021 A 
ATOM      8  C   UNL     1      14.737   7.760   4.488  0.00  0.00    +0.145 C 
ATOM      9  C   UNL     1      11.810   6.945   4.376  0.00  0.00    +0.008 A 
ATOM     11  C   UNL     1      14.005   7.363   5.769  0.00  0.00    +0.065 C 
ATOM     12  C   UNL     1      12.533   7.190   5.595  0.00  0.00    -0.020 A 
ATOM     14  C   UNL     1      10.456   6.885   4.724  0.00  0.00    +0.050 A 
ATOM     15  C   UNL     1      11.609   7.234   6.620  0.00  0.00    +0.091 A 
ATOM     16  C   UNL     1      11.133   6.653   2.078  0.00  0.00    +0.006 A 
ATOM     18  C   UNL     1       9.430   6.702   3.795  0.00  0.00    +0.026 A 
ATOM     19  C   UNL     1       9.793   6.599   2.458  0.00  0.00    +0.002 A 
ATOM     30  H   UNL     1      14.641   5.781   3.935  0.00  0.00    +0.123 HD
ENDROOT
BRANCH   8  17
ATOM      1  O   UNL     1      16.587   8.232   5.919  0.00  0.00    -0.274 OA
ATOM      4  N   UNL     1      16.987   7.778   3.671  0.00  0.00    -0.313 N 
ATOM     17  C   UNL     1      16.192   7.946   4.793  0.00  0.00    +0.230 C 
ATOM     31  H   UNL     1      16.556   7.525   2.786  0.00  0.00    +0.149 HD
BRANCH   4  23
ATOM     23  C   UNL     1      18.424   7.927   3.692  0.00  0.00    +0.119 C 
BRANCH  23  24
ATOM     24  C   UNL     1      18.920   8.659   2.454  0.00  0.00    +0.102 C 
BRANCH  24   5
ATOM      5  N   UNL     1      17.990   9.721   2.088  0.00  0.00    -0.307 NA
ATOM     27  C   UNL     1      18.465  11.016   2.580  0.00  0.00    +0.104 C 
ATOM     28  C   UNL     1      17.805   9.767   0.637  0.00  0.00    +0.104 C 
ENDBRANCH  24   5
ENDBRANCH  23  24
ENDBRANCH   4  23
ENDBRANCH   8  17
BRANCH   6  10
ATOM     10  C   UNL     1      13.922   5.752   1.446  0.00  0.00    +0.026 C 
BRANCH  10  13
ATOM     13  C   UNL     1      13.871   4.340   2.037  0.00  0.00    -0.015 C 
ATOM     20  C   UNL     1      15.176   3.611   1.714  0.00  0.00    +0.007 C 
ATOM     21  C   UNL     1      12.683   3.528   1.519  0.00  0.00    +0.007 C 
ENDBRANCH  10  13
ENDBRANCH   6  10
BRANCH   3  22
ATOM     22  C   UNL     1       9.145   7.036   6.859  0.00  0.00    +0.210 C 
BRANCH  22  25
ATOM     25  C   UNL     1       9.236   6.149   8.027  0.00  0.00    -0.081 C 
ATOM     26  C   UNL     1       9.313   5.424   8.981  0.00  0.00    -0.104 C 
ATOM     29  C   UNL     1       9.405   4.541  10.143  0.00  0.00    +0.106 C 
ENDBRANCH  22  25
ENDBRANCH   3  22
TORSDOF 8
ENDMDL
MODEL 8
REMARK VINA RESULT:      -5.7     23.727     27.049
REMARK  Name = 51138073
REMARK  13 active torsions:
REMARK  status: ('A' for Active; 'I' for Inactive)
REMARK    1  A    between atoms: N_3  and  C_22
REMARK    2  A    between atoms: N_4  and  C_23
REMARK    3  A    between atoms: N_5  and  C_24
REMARK    4  A    between atoms: N_5  and  C_27
REMARK    5  A    between atoms: N_5  and  C_28
REMARK    6  A    between atoms: C_6  and  C_10
REMARK    7  A    between atoms: C_8  and  C_17
REMARK    8  A    between atoms: C_10  and  C_13
REMARK    9  A    between atoms: C_13  and  C_20
REMARK   10  A    between atoms: C_13  and  C_21
REMARK   11  A    between atoms: C_22  and  C_25
REMARK   12  A    between atoms: C_23  and  C_24
REMARK   13  A    between atoms: C_26  and  C_29
REMARK                            x       y       z     vdW  Elec       q    Type
REMARK                         _______ _______ _______ _____ _____    ______ ____
ROOT
ATOM      2  N   UNL     1      10.756   5.696   3.790  0.00  0.00    -0.299 NA
ATOM      3  N   UNL     1       8.627   9.024   0.643  0.00  0.00    -0.335 N 
ATOM      6  C   UNL     1       9.584   6.224   4.502  0.00  0.00    +0.085 C 
ATOM      7  C   UNL     1       8.863   7.396   3.827  0.00  0.00    -0.021 A 
ATOM      8  C   UNL     1      10.463   5.104   2.492  0.00  0.00    +0.145 C 
ATOM      9  C   UNL     1       9.015   7.777   2.462  0.00  0.00    +0.008 A 
ATOM     11  C   UNL     1      10.710   6.094   1.355  0.00  0.00    +0.065 C 
ATOM     12  C   UNL     1       9.784   7.264   1.361  0.00  0.00    -0.020 A 
ATOM     14  C   UNL     1       8.286   8.863   1.965  0.00  0.00    +0.050 A 
ATOM     15  C   UNL     1       9.522   8.065   0.268  0.00  0.00    +0.091 A 
ATOM     16  C   UNL     1       7.908   8.127   4.578  0.00  0.00    +0.006 A 
ATOM     18  C   UNL     1       7.383   9.601   2.733  0.00  0.00    +0.026 A 
ATOM     19  C   UNL     1       7.197   9.205   4.051  0.00  0.00    +0.002 A 
ATOM     30  H   UNL     1      11.486   6.404   3.716  0.00  0.00    +0.123 HD
ENDROOT
BRANCH   8  17
ATOM      1  O   UNL     1      11.257   2.906   2.973  0.00  0.00    -0.274 OA
ATOM      4  N   UNL     1      12.468   4.247   1.504  0.00  0.00    -0.313 N 
ATOM     17  C   UNL     1      11.418   3.957   2.359  0.00  0.00    +0.230 C 
ATOM     31  H   UNL     1      12.496   5.147   1.034  0.00  0.00    +0.149 HD
BRANCH   4  23
ATOM     23  C   UNL     1      13.538   3.317   1.223  0.00  0.00    +0.119 C 
BRANCH  23  24
ATOM     24  C   UNL     1      14.889   3.897   1.613  0.00  0.00    +0.102 C 
BRANCH  24   5
ATOM      5  N   UNL     1      15.568   4.432   0.438  0.00  0.00    -0.307 NA
ATOM     27  C   UNL     1      14.870   4.038  -0.787  0.00  0.00    +0.104 C 
ATOM     28  C   UNL     1      15.668   5.890   0.519  0.00  0.00    +0.104 C 
ENDBRANCH  24   5
ENDBRANCH  23  24
ENDBRANCH   4  23
ENDBRANCH   8  17
BRANCH   6  10
ATOM     10  C   UNL     1      10.109   6.582   5.903  0.00  0.00    +0.026 C 
BRANCH  10  13
ATOM     13  C   UNL     1       9.238   6.019   7.030  0.00  0.00    -0.015 C 
ATOM     20  C   UNL     1       8.938   7.130   8.039  0.00  0.00    +0.007 C 
ATOM     21  C   UNL     1       9.891   4.835   7.744  0.00  0.00    +0.007 C 
ENDBRANCH  10  13
ENDBRANCH   6  10
BRANCH   3  22
ATOM     22  C   UNL     1       8.108  10.043  -0.244  0.00  0.00    +0.210 C 
BRANCH  22  25
ATOM     25  C   UNL     1       6.860   9.623  -0.895  0.00  0.00    -0.081 C 
ATOM     26  C   UNL     1       5.839   9.280  -1.428  0.00  0.00    -0.104 C 
ATOM     29  C   UNL     1       4.597   8.863  -2.076  0.00  0.00    +0.106 C 
ENDBRANCH  22  25
ENDBRANCH   3  22
TORSDOF 8
ENDMDL
MODEL 9
REMARK VINA RESULT:      -5.7     19.701     23.603
REMARK  Name = 51138073
REMARK  13 active torsions:
REMARK  status: ('A' for Active; 'I' for Inactive)
REMARK    1  A    between atoms: N_3  and  C_22
REMARK    2  A    between atoms: N_4  and  C_23
REMARK    3  A    between atoms: N_5  and  C_24
REMARK    4  A    between atoms: N_5  and  C_27
REMARK    5  A    between atoms: N_5  and  C_28
REMARK    6  A    between atoms: C_6  and  C_10
REMARK    7  A    between atoms: C_8  and  C_17
REMARK    8  A    between atoms: C_10  and  C_13
REMARK    9  A    between atoms: C_13  and  C_20
REMARK   10  A    between atoms: C_13  and  C_21
REMARK   11  A    between atoms: C_22  and  C_25
REMARK   12  A    between atoms: C_23  and  C_24
REMARK   13  A    between atoms: C_26  and  C_29
REMARK                            x       y       z     vdW  Elec       q    Type
REMARK                         _______ _______ _______ _____ _____    ______ ____
ROOT
ATOM      2  N   UNL     1       5.980  -8.208  34.722  0.00  0.00    -0.299 NA
ATOM      3  N   UNL     1       6.762 -12.564  32.288  0.00  0.00    -0.335 N 
ATOM      6  C   UNL     1       5.972  -7.872  33.292  0.00  0.00    +0.085 C 
ATOM      7  C   UNL     1       6.372  -9.002  32.337  0.00  0.00    -0.021 A 
ATOM      8  C   UNL     1       5.017  -9.228  35.113  0.00  0.00    +0.145 C 
ATOM      9  C   UNL     1       6.415 -10.385  32.674  0.00  0.00    +0.008 A 
ATOM     11  C   UNL     1       5.662 -10.610  35.187  0.00  0.00    +0.065 C 
ATOM     12  C   UNL     1       6.125 -11.133  33.868  0.00  0.00    -0.020 A 
ATOM     14  C   UNL     1       6.786 -11.320  31.702  0.00  0.00    +0.050 A 
ATOM     15  C   UNL     1       6.360 -12.463  33.588  0.00  0.00    +0.091 A 
ATOM     16  C   UNL     1       6.652  -8.678  30.984  0.00  0.00    +0.006 A 
ATOM     18  C   UNL     1       7.104 -10.978  30.386  0.00  0.00    +0.026 A 
ATOM     19  C   UNL     1       7.018  -9.636  30.039  0.00  0.00    +0.002 A 
ATOM     30  H   UNL     1       6.920  -8.450  35.033  0.00  0.00    +0.123 HD
ENDROOT
BRANCH   8  17
ATOM      1  O   UNL     1       3.688  -9.456  37.082  0.00  0.00    -0.274 OA
ATOM      4  N   UNL     1       5.201  -7.691  36.940  0.00  0.00    -0.313 N 
ATOM     17  C   UNL     1       4.556  -8.828  36.481  0.00  0.00    +0.230 C 
ATOM     31  H   UNL     1       5.918  -7.258  36.366  0.00  0.00    +0.149 HD
BRANCH   4  23
ATOM     23  C   UNL     1       4.921  -7.087  38.222  0.00  0.00    +0.119 C 
BRANCH  23  24
ATOM     24  C   UNL     1       5.382  -5.638  38.259  0.00  0.00    +0.102 C 
BRANCH  24   5
ATOM      5  N   UNL     1       4.716  -4.922  39.341  0.00  0.00    -0.307 NA
ATOM     27  C   UNL     1       3.888  -5.834  40.131  0.00  0.00    +0.104 C 
ATOM     28  C   UNL     1       5.698  -4.255  40.199  0.00  0.00    +0.104 C 
ENDBRANCH  24   5
ENDBRANCH  23  24
ENDBRANCH   4  23
ENDBRANCH   8  17
BRANCH   6  10
ATOM     10  C   UNL     1       6.894  -6.645  33.175  0.00  0.00    +0.026 C 
BRANCH  10  13
ATOM     13  C   UNL     1       8.058  -6.675  34.169  0.00  0.00    -0.015 C 
ATOM     20  C   UNL     1       8.287  -5.266  34.720  0.00  0.00    +0.007 C 
ATOM     21  C   UNL     1       9.351  -7.204  33.546  0.00  0.00    +0.007 C 
ENDBRANCH  10  13
ENDBRANCH   6  10
BRANCH   3  22
ATOM     22  C   UNL     1       7.090 -13.811  31.633  0.00  0.00    +0.210 C 
BRANCH  22  25
ATOM     25  C   UNL     1       6.113 -14.163  30.595  0.00  0.00    -0.081 C 
ATOM     26  C   UNL     1       5.313 -14.449  29.745  0.00  0.00    -0.104 C 
ATOM     29  C   UNL     1       4.340 -14.798  28.711  0.00  0.00    +0.106 C 
ENDBRANCH  22  25
ENDBRANCH   3  22
TORSDOF 8
ENDMDL
MODEL 10
REMARK VINA RESULT:      -5.7     29.297     31.811
REMARK  Name = 51138073
REMARK  13 active torsions:
REMARK  status: ('A' for Active; 'I' for Inactive)
REMARK    1  A    between atoms: N_3  and  C_22
REMARK    2  A    between atoms: N_4  and  C_23
REMARK    3  A    between atoms: N_5  and  C_24
REMARK    4  A    between atoms: N_5  and  C_27
REMARK    5  A    between atoms: N_5  and  C_28
REMARK    6  A    between atoms: C_6  and  C_10
REMARK    7  A    between atoms: C_8  and  C_17
REMARK    8  A    between atoms: C_10  and  C_13
REMARK    9  A    between atoms: C_13  and  C_20
REMARK   10  A    between atoms: C_13  and  C_21
REMARK   11  A    between atoms: C_22  and  C_25
REMARK   12  A    between atoms: C_23  and  C_24
REMARK   13  A    between atoms: C_26  and  C_29
REMARK                            x       y       z     vdW  Elec       q    Type
REMARK                         _______ _______ _______ _____ _____    ______ ____
ROOT
ATOM      2  N   UNL     1      19.312   8.637  22.640  0.00  0.00    -0.299 NA
ATOM      3  N   UNL     1      15.024   8.532  19.975  0.00  0.00    -0.335 N 
ATOM      6  C   UNL     1      19.497   7.588  21.629  0.00  0.00    +0.085 C 
ATOM      7  C   UNL     1      18.258   7.229  20.802  0.00  0.00    -0.021 A 
ATOM      8  C   UNL     1      18.976   9.948  22.101  0.00  0.00    +0.145 C 
ATOM      9  C   UNL     1      17.084   8.030  20.693  0.00  0.00    +0.008 A 
ATOM     11  C   UNL     1      17.470  10.200  22.134  0.00  0.00    +0.065 C 
ATOM     12  C   UNL     1      16.688   9.302  21.234  0.00  0.00    -0.020 A 
ATOM     14  C   UNL     1      16.025   7.593  19.890  0.00  0.00    +0.050 A 
ATOM     15  C   UNL     1      15.414   9.565  20.775  0.00  0.00    +0.091 A 
ATOM     16  C   UNL     1      18.288   6.051  20.012  0.00  0.00    +0.006 A 
ATOM     18  C   UNL     1      16.054   6.406  19.156  0.00  0.00    +0.026 A 
ATOM     19  C   UNL     1      17.214   5.645  19.221  0.00  0.00    +0.002 A 
ATOM     30  H   UNL     1      18.639   8.346  23.348  0.00  0.00    +0.123 HD
ENDROOT
BRANCH   8  17
ATOM      1  O   UNL     1      20.122  11.985  22.583  0.00  0.00    -0.274 OA
ATOM      4  N   UNL     1      19.704  10.489  24.317  0.00  0.00    -0.313 N 
ATOM     17  C   UNL     1      19.657  10.930  23.005  0.00  0.00    +0.230 C 
ATOM     31  H   UNL     1      19.272   9.603  24.562  0.00  0.00    +0.149 HD
BRANCH   4  23
ATOM     23  C   UNL     1      20.327  11.241  25.382  0.00  0.00    +0.119 C 
BRANCH  23  24
ATOM     24  C   UNL     1      21.156  10.337  26.282  0.00  0.00    +0.102 C 
BRANCH  24   5
ATOM      5  N   UNL     1      20.397   9.143  26.637  0.00  0.00    -0.307 NA
ATOM     27  C   UNL     1      21.298   8.036  26.961  0.00  0.00    +0.104 C 
ATOM     28  C   UNL     1      19.503   9.417  27.763  0.00  0.00    +0.104 C 
ENDBRANCH  24   5
ENDBRANCH  23  24
ENDBRANCH   4  23
ENDBRANCH   8  17
BRANCH   6  10
ATOM     10  C   UNL     1      20.051   6.385  22.414  0.00  0.00    +0.026 C 
BRANCH  10  13
ATOM     13  C   UNL     1      21.504   6.058  22.061  0.00  0.00    -0.015 C 
ATOM     20  C   UNL     1      21.538   4.827  21.152  0.00  0.00    +0.007 C 
ATOM     21  C   UNL     1      22.370   5.811  23.298  0.00  0.00    +0.007 C 
ENDBRANCH  10  13
ENDBRANCH   6  10
BRANCH   3  22
ATOM     22  C   UNL     1      13.744   8.461  19.303  0.00  0.00    +0.210 C 
BRANCH  22  25
ATOM     25  C   UNL     1      12.739   7.752  20.106  0.00  0.00    -0.081 C 
ATOM     26  C   UNL     1      11.916   7.172  20.761  0.00  0.00    -0.104 C 
ATOM     29  C   UNL     1      10.915   6.465  21.559  0.00  0.00    +0.106 C 
ENDBRANCH  22  25
ENDBRANCH   3  22
TORSDOF 8
ENDMDL
