MODEL 1
REMARK VINA RESULT:      -7.3      0.000      0.000
REMARK  Name = 75536413
REMARK  8 active torsions:
REMARK  status: ('A' for Active; 'I' for Inactive)
REMARK    1  A    between atoms: O_2  and  C_11
REMARK    2  A    between atoms: N_6  and  C_15
REMARK    3  A    between atoms: N_7  and  C_18
REMARK    4  A    between atoms: C_9  and  C_14
REMARK    5  A    between atoms: C_10  and  C_15
REMARK    6  A    between atoms: C_14  and  C_16
REMARK    7  A    between atoms: C_18  and  C_19
REMARK    8  A    between atoms: C_24  and  C_25
REMARK                            x       y       z     vdW  Elec       q    Type
REMARK                         _______ _______ _______ _____ _____    ______ ____
ROOT
ATOM      1  O   UNL     1      13.389   8.887  18.935  0.00  0.00    -0.369 OA
ATOM      9  C   UNL     1      12.164   8.325  18.457  0.00  0.00    +0.125 C 
ATOM     10  C   UNL     1      13.915   8.280  20.123  0.00  0.00    +0.164 C 
ATOM     11  C   UNL     1      12.886   8.294  21.260  0.00  0.00    +0.145 C 
ATOM     12  C   UNL     1      11.073   8.424  19.523  0.00  0.00    +0.034 C 
ATOM     13  C   UNL     1      11.526   7.760  20.819  0.00  0.00    +0.036 C 
ENDROOT
BRANCH  11   2
ATOM      2  O   UNL     1      12.705   9.641  21.701  0.00  0.00    -0.389 OA
ATOM     31  H   UNL     1      12.247   9.611  22.559  0.00  0.00    +0.210 HD
ENDBRANCH  11   2
BRANCH   9  14
ATOM     14  C   UNL     1      11.767   9.091  17.201  0.00  0.00    +0.090 C 
BRANCH  14  16
ATOM      3  O   UNL     1      14.530   9.031  14.887  0.00  0.00    -0.358 OA
ATOM      8  N   UNL     1      13.462   8.431  15.544  0.00  0.00    -0.083 NA
ATOM     16  C   UNL     1      12.957   9.388  16.329  0.00  0.00    +0.086 A 
ATOM     17  C   UNL     1      13.659  10.600  16.210  0.00  0.00    +0.072 A 
ATOM     19  C   UNL     1      14.637  10.323  15.293  0.00  0.00    +0.151 A 
BRANCH  19  18
ATOM     18  C   UNL     1      15.721  11.110  14.694  0.00  0.00    +0.161 C 
BRANCH  18   7
ATOM      4  O   UNL     1      15.304  13.217  11.089  0.00  0.00    -0.377 OA
ATOM      7  N   UNL     1      15.500  11.414  13.281  0.00  0.00    -0.291 NA
ATOM     20  C   UNL     1      14.336  12.294  13.112  0.00  0.00    +0.113 C 
ATOM     21  C   UNL     1      16.693  12.036  12.689  0.00  0.00    +0.113 C 
ATOM     22  C   UNL     1      14.134  12.606  11.632  0.00  0.00    +0.175 C 
ATOM     23  C   UNL     1      16.435  12.355  11.220  0.00  0.00    +0.175 C 
ENDBRANCH  18   7
ENDBRANCH  19  18
ENDBRANCH  14  16
ENDBRANCH   9  14
BRANCH  10  15
ATOM     15  C   UNL     1      14.464   6.886  19.830  0.00  0.00    +0.138 C 
BRANCH  15   6
ATOM      5  O   UNL     1      16.689   5.693  18.463  0.00  0.00    -0.270 OA
ATOM      6  N   UNL     1      15.798   6.743  20.331  0.00  0.00    -0.309 N 
ATOM     24  C   UNL     1      16.822   6.148  19.596  0.00  0.00    +0.244 C 
ATOM     32  H   UNL     1      15.986   7.135  21.246  0.00  0.00    +0.149 HD
BRANCH  24  25
ATOM     25  C   UNL     1      18.143   6.051  20.267  0.00  0.00    +0.037 A 
ATOM     26  C   UNL     1      18.424   6.850  21.375  0.00  0.00    +0.013 A 
ATOM     27  C   UNL     1      19.103   5.158  19.790  0.00  0.00    +0.013 A 
ATOM     28  C   UNL     1      19.665   6.757  22.005  0.00  0.00    +0.001 A 
ATOM     29  C   UNL     1      20.344   5.064  20.421  0.00  0.00    +0.001 A 
ATOM     30  C   UNL     1      20.625   5.865  21.528  0.00  0.00    +0.000 A 
ENDBRANCH  24  25
ENDBRANCH  15   6
ENDBRANCH  10  15
TORSDOF 8
ENDMDL
MODEL 2
REMARK VINA RESULT:      -7.2      2.621      4.216
REMARK  Name = 75536413
REMARK  8 active torsions:
REMARK  status: ('A' for Active; 'I' for Inactive)
REMARK    1  A    between atoms: O_2  and  C_11
REMARK    2  A    between atoms: N_6  and  C_15
REMARK    3  A    between atoms: N_7  and  C_18
REMARK    4  A    between atoms: C_9  and  C_14
REMARK    5  A    between atoms: C_10  and  C_15
REMARK    6  A    between atoms: C_14  and  C_16
REMARK    7  A    between atoms: C_18  and  C_19
REMARK    8  A    between atoms: C_24  and  C_25
REMARK                            x       y       z     vdW  Elec       q    Type
REMARK                         _______ _______ _______ _____ _____    ______ ____
ROOT
ATOM      1  O   UNL     1      12.692   9.748  21.529  0.00  0.00    -0.369 OA
ATOM      9  C   UNL     1      11.784   9.091  22.417  0.00  0.00    +0.125 C 
ATOM     10  C   UNL     1      13.460  10.807  22.115  0.00  0.00    +0.164 C 
ATOM     11  C   UNL     1      12.554  11.860  22.766  0.00  0.00    +0.145 C 
ATOM     12  C   UNL     1      10.784  10.089  23.000  0.00  0.00    +0.034 C 
ATOM     13  C   UNL     1      11.512  11.238  23.691  0.00  0.00    +0.036 C 
ENDROOT
BRANCH  11   2
ATOM      2  O   UNL     1      11.857  12.567  21.737  0.00  0.00    -0.389 OA
ATOM     31  H   UNL     1      11.845  12.000  20.947  0.00  0.00    +0.210 HD
ENDBRANCH  11   2
BRANCH   9  14
ATOM     14  C   UNL     1      11.069   8.006  21.621  0.00  0.00    +0.090 C 
BRANCH  14  16
ATOM      3  O   UNL     1      11.305   8.277  18.035  0.00  0.00    -0.358 OA
ATOM      8  N   UNL     1      10.611   8.387  19.234  0.00  0.00    -0.083 NA
ATOM     16  C   UNL     1      11.483   8.010  20.175  0.00  0.00    +0.086 A 
ATOM     17  C   UNL     1      12.730   7.656  19.634  0.00  0.00    +0.072 A 
ATOM     19  C   UNL     1      12.566   7.841  18.287  0.00  0.00    +0.151 A 
BRANCH  19  18
ATOM     18  C   UNL     1      13.443   7.668  17.123  0.00  0.00    +0.161 C 
BRANCH  18   7
ATOM      4  O   UNL     1      14.159  11.737  16.386  0.00  0.00    -0.377 OA
ATOM      7  N   UNL     1      14.086   8.909  16.696  0.00  0.00    -0.291 NA
ATOM     20  C   UNL     1      13.280   9.590  15.675  0.00  0.00    +0.113 C 
ATOM     21  C   UNL     1      14.308   9.802  17.842  0.00  0.00    +0.113 C 
ATOM     22  C   UNL     1      13.965  10.888  15.255  0.00  0.00    +0.175 C 
ATOM     23  C   UNL     1      14.969  11.094  17.371  0.00  0.00    +0.175 C 
ENDBRANCH  18   7
ENDBRANCH  19  18
ENDBRANCH  14  16
ENDBRANCH   9  14
BRANCH  10  15
ATOM     15  C   UNL     1      14.516  10.257  23.070  0.00  0.00    +0.138 C 
BRANCH  15   6
ATOM      5  O   UNL     1      16.453  10.531  20.969  0.00  0.00    -0.270 OA
ATOM      6  N   UNL     1      15.266   9.203  22.456  0.00  0.00    -0.309 N 
ATOM     24  C   UNL     1      16.190   9.426  21.437  0.00  0.00    +0.244 C 
ATOM     32  H   UNL     1      15.126   8.269  22.825  0.00  0.00    +0.149 HD
BRANCH  24  25
ATOM     25  C   UNL     1      16.866   8.224  20.886  0.00  0.00    +0.037 A 
ATOM     26  C   UNL     1      16.230   7.448  19.918  0.00  0.00    +0.013 A 
ATOM     27  C   UNL     1      18.139   7.873  21.334  0.00  0.00    +0.013 A 
ATOM     28  C   UNL     1      16.865   6.319  19.400  0.00  0.00    +0.001 A 
ATOM     29  C   UNL     1      18.776   6.745  20.815  0.00  0.00    +0.001 A 
ATOM     30  C   UNL     1      18.138   5.968  19.848  0.00  0.00    +0.000 A 
ENDBRANCH  24  25
ENDBRANCH  15   6
ENDBRANCH  10  15
TORSDOF 8
ENDMDL
MODEL 3
REMARK VINA RESULT:      -6.9      3.223      5.954
REMARK  Name = 75536413
REMARK  8 active torsions:
REMARK  status: ('A' for Active; 'I' for Inactive)
REMARK    1  A    between atoms: O_2  and  C_11
REMARK    2  A    between atoms: N_6  and  C_15
REMARK    3  A    between atoms: N_7  and  C_18
REMARK    4  A    between atoms: C_9  and  C_14
REMARK    5  A    between atoms: C_10  and  C_15
REMARK    6  A    between atoms: C_14  and  C_16
REMARK    7  A    between atoms: C_18  and  C_19
REMARK    8  A    between atoms: C_24  and  C_25
REMARK                            x       y       z     vdW  Elec       q    Type
REMARK                         _______ _______ _______ _____ _____    ______ ____
ROOT
ATOM      1  O   UNL     1      11.825   8.512  20.273  0.00  0.00    -0.369 OA
ATOM      9  C   UNL     1      12.701   8.446  19.146  0.00  0.00    +0.125 C 
ATOM     10  C   UNL     1      12.437   8.231  21.539  0.00  0.00    +0.164 C 
ATOM     11  C   UNL     1      13.135   6.865  21.531  0.00  0.00    +0.145 C 
ATOM     12  C   UNL     1      13.331   7.058  19.032  0.00  0.00    +0.034 C 
ATOM     13  C   UNL     1      14.051   6.687  20.324  0.00  0.00    +0.036 C 
ENDROOT
BRANCH  11   2
ATOM      2  O   UNL     1      12.139   5.840  21.478  0.00  0.00    -0.389 OA
ATOM     31  H   UNL     1      11.321   6.242  21.138  0.00  0.00    +0.210 HD
ENDBRANCH  11   2
BRANCH   9  14
ATOM     14  C   UNL     1      11.878   8.772  17.906  0.00  0.00    +0.090 C 
BRANCH  14  16
ATOM      3  O   UNL     1      13.567   9.777  14.884  0.00  0.00    -0.358 OA
ATOM      8  N   UNL     1      12.712   8.945  15.597  0.00  0.00    -0.083 NA
ATOM     16  C   UNL     1      12.711   9.434  16.841  0.00  0.00    +0.086 A 
ATOM     17  C   UNL     1      13.537  10.563  16.971  0.00  0.00    +0.072 A 
ATOM     19  C   UNL     1      14.052  10.737  15.713  0.00  0.00    +0.151 A 
BRANCH  19  18
ATOM     18  C   UNL     1      14.977  11.709  15.119  0.00  0.00    +0.161 C 
BRANCH  18   7
ATOM      4  O   UNL     1      15.225  12.972  11.125  0.00  0.00    -0.377 OA
ATOM      7  N   UNL     1      14.960  11.702  13.658  0.00  0.00    -0.291 NA
ATOM     20  C   UNL     1      13.928  12.613  13.144  0.00  0.00    +0.113 C 
ATOM     21  C   UNL     1      16.275  12.076  13.119  0.00  0.00    +0.113 C 
ATOM     22  C   UNL     1      13.938  12.598  11.617  0.00  0.00    +0.175 C 
ATOM     23  C   UNL     1      16.230  12.073  11.594  0.00  0.00    +0.175 C 
ENDBRANCH  18   7
ENDBRANCH  19  18
ENDBRANCH  14  16
ENDBRANCH   9  14
BRANCH  10  15
ATOM     15  C   UNL     1      13.360   9.369  21.968  0.00  0.00    +0.138 C 
BRANCH  15   6
ATOM      5  O   UNL     1      11.965  11.696  21.028  0.00  0.00    -0.270 OA
ATOM      6  N   UNL     1      12.658  10.327  22.768  0.00  0.00    -0.309 N 
ATOM     24  C   UNL     1      12.005  11.432  22.227  0.00  0.00    +0.244 C 
ATOM     32  H   UNL     1      12.619  10.145  23.765  0.00  0.00    +0.149 HD
BRANCH  24  25
ATOM     25  C   UNL     1      11.346  12.347  23.194  0.00  0.00    +0.037 A 
ATOM     26  C   UNL     1      11.386  12.066  24.560  0.00  0.00    +0.013 A 
ATOM     27  C   UNL     1      10.690  13.489  22.737  0.00  0.00    +0.013 A 
ATOM     28  C   UNL     1      10.768  12.925  25.468  0.00  0.00    +0.001 A 
ATOM     29  C   UNL     1      10.073  14.350  23.645  0.00  0.00    +0.001 A 
ATOM     30  C   UNL     1      10.112  14.067  25.010  0.00  0.00    +0.000 A 
ENDBRANCH  24  25
ENDBRANCH  15   6
ENDBRANCH  10  15
TORSDOF 8
ENDMDL
MODEL 4
REMARK VINA RESULT:      -6.8     14.867     18.873
REMARK  Name = 75536413
REMARK  8 active torsions:
REMARK  status: ('A' for Active; 'I' for Inactive)
REMARK    1  A    between atoms: O_2  and  C_11
REMARK    2  A    between atoms: N_6  and  C_15
REMARK    3  A    between atoms: N_7  and  C_18
REMARK    4  A    between atoms: C_9  and  C_14
REMARK    5  A    between atoms: C_10  and  C_15
REMARK    6  A    between atoms: C_14  and  C_16
REMARK    7  A    between atoms: C_18  and  C_19
REMARK    8  A    between atoms: C_24  and  C_25
REMARK                            x       y       z     vdW  Elec       q    Type
REMARK                         _______ _______ _______ _____ _____    ______ ____
ROOT
ATOM      1  O   UNL     1      12.792   2.825   0.587  0.00  0.00    -0.369 OA
ATOM      9  C   UNL     1      12.922   3.464  -0.685  0.00  0.00    +0.125 C 
ATOM     10  C   UNL     1      13.130   3.640   1.717  0.00  0.00    +0.164 C 
ATOM     11  C   UNL     1      14.549   4.208   1.590  0.00  0.00    +0.145 C 
ATOM     12  C   UNL     1      14.356   3.945  -0.903  0.00  0.00    +0.034 C 
ATOM     13  C   UNL     1      14.793   4.863   0.234  0.00  0.00    +0.036 C 
ENDROOT
BRANCH  11   2
ATOM      2  O   UNL     1      15.488   3.140   1.735  0.00  0.00    -0.389 OA
ATOM     31  H   UNL     1      15.908   3.233   2.607  0.00  0.00    +0.210 HD
ENDBRANCH  11   2
BRANCH   9  14
ATOM     14  C   UNL     1      12.520   2.452  -1.750  0.00  0.00    +0.090 C 
BRANCH  14  16
ATOM      3  O   UNL     1       9.320   2.737  -3.384  0.00  0.00    -0.358 OA
ATOM      8  N   UNL     1      10.279   2.026  -2.673  0.00  0.00    -0.083 NA
ATOM     16  C   UNL     1      11.287   2.886  -2.496  0.00  0.00    +0.086 A 
ATOM     17  C   UNL     1      11.023   4.141  -3.069  0.00  0.00    +0.072 A 
ATOM     19  C   UNL     1       9.775   3.996  -3.614  0.00  0.00    +0.151 A 
BRANCH  19  18
ATOM     18  C   UNL     1       8.881   4.890  -4.359  0.00  0.00    +0.161 C 
BRANCH  18   7
ATOM      4  O   UNL     1       6.501   8.047  -2.953  0.00  0.00    -0.377 OA
ATOM      7  N   UNL     1       8.040   5.716  -3.495  0.00  0.00    -0.291 NA
ATOM     20  C   UNL     1       8.677   7.014  -3.233  0.00  0.00    +0.113 C 
ATOM     21  C   UNL     1       6.714   5.918  -4.094  0.00  0.00    +0.113 C 
ATOM     22  C   UNL     1       7.777   7.862  -2.340  0.00  0.00    +0.175 C 
ATOM     23  C   UNL     1       5.860   6.791  -3.181  0.00  0.00    +0.175 C 
ENDBRANCH  18   7
ENDBRANCH  19  18
ENDBRANCH  14  16
ENDBRANCH   9  14
BRANCH  10  15
ATOM     15  C   UNL     1      12.074   4.717   1.954  0.00  0.00    +0.138 C 
BRANCH  15   6
ATOM      5  O   UNL     1      10.137   6.476   3.135  0.00  0.00    -0.270 OA
ATOM      6  N   UNL     1      11.771   4.843   3.348  0.00  0.00    -0.309 N 
ATOM     24  C   UNL     1      10.811   5.726   3.836  0.00  0.00    +0.244 C 
ATOM     32  H   UNL     1      12.265   4.222   3.979  0.00  0.00    +0.149 HD
BRANCH  24  25
ATOM     25  C   UNL     1      10.634   5.758   5.311  0.00  0.00    +0.037 A 
ATOM     26  C   UNL     1       9.880   4.771   5.944  0.00  0.00    +0.013 A 
ATOM     27  C   UNL     1      11.224   6.774   6.062  0.00  0.00    +0.013 A 
ATOM     28  C   UNL     1       9.715   4.800   7.329  0.00  0.00    +0.001 A 
ATOM     29  C   UNL     1      11.061   6.803   7.447  0.00  0.00    +0.001 A 
ATOM     30  C   UNL     1      10.305   5.816   8.080  0.00  0.00    +0.000 A 
ENDBRANCH  24  25
ENDBRANCH  15   6
ENDBRANCH  10  15
TORSDOF 8
ENDMDL
MODEL 5
REMARK VINA RESULT:      -6.8     26.789     28.593
REMARK  Name = 75536413
REMARK  8 active torsions:
REMARK  status: ('A' for Active; 'I' for Inactive)
REMARK    1  A    between atoms: O_2  and  C_11
REMARK    2  A    between atoms: N_6  and  C_15
REMARK    3  A    between atoms: N_7  and  C_18
REMARK    4  A    between atoms: C_9  and  C_14
REMARK    5  A    between atoms: C_10  and  C_15
REMARK    6  A    between atoms: C_14  and  C_16
REMARK    7  A    between atoms: C_18  and  C_19
REMARK    8  A    between atoms: C_24  and  C_25
REMARK                            x       y       z     vdW  Elec       q    Type
REMARK                         _______ _______ _______ _____ _____    ______ ____
ROOT
ATOM      1  O   UNL     1      -6.219 -10.781  17.311  0.00  0.00    -0.369 OA
ATOM      9  C   UNL     1      -7.045 -11.943  17.199  0.00  0.00    +0.125 C 
ATOM     10  C   UNL     1      -5.262 -10.814  18.378  0.00  0.00    +0.164 C 
ATOM     11  C   UNL     1      -5.941 -11.074  19.729  0.00  0.00    +0.145 C 
ATOM     12  C   UNL     1      -7.831 -12.173  18.488  0.00  0.00    +0.034 C 
ATOM     13  C   UNL     1      -6.888 -12.269  19.683  0.00  0.00    +0.036 C 
ENDROOT
BRANCH  11   2
ATOM      2  O   UNL     1      -6.708  -9.922  20.088  0.00  0.00    -0.389 OA
ATOM     31  H   UNL     1      -7.027  -9.513  19.265  0.00  0.00    +0.210 HD
ENDBRANCH  11   2
BRANCH   9  14
ATOM     14  C   UNL     1      -7.986 -11.724  16.020  0.00  0.00    +0.090 C 
BRANCH  14  16
ATOM      3  O   UNL     1      -5.809 -10.929  13.260  0.00  0.00    -0.358 OA
ATOM      8  N   UNL     1      -6.217 -11.743  14.310  0.00  0.00    -0.083 NA
ATOM     16  C   UNL     1      -7.272 -11.118  14.842  0.00  0.00    +0.086 A 
ATOM     17  C   UNL     1      -7.573  -9.918  14.175  0.00  0.00    +0.072 A 
ATOM     19  C   UNL     1      -6.624  -9.846  13.190  0.00  0.00    +0.151 A 
BRANCH  19  18
ATOM     18  C   UNL     1      -6.334  -8.874  12.129  0.00  0.00    +0.161 C 
BRANCH  18   7
ATOM      4  O   UNL     1      -4.908  -9.563   8.242  0.00  0.00    -0.377 OA
ATOM      7  N   UNL     1      -5.615  -9.455  10.996  0.00  0.00    -0.291 NA
ATOM     20  C   UNL     1      -6.553  -9.953   9.982  0.00  0.00    +0.113 C 
ATOM     21  C   UNL     1      -4.701  -8.472  10.399  0.00  0.00    +0.113 C 
ATOM     22  C   UNL     1      -5.779 -10.544   8.806  0.00  0.00    +0.175 C 
ATOM     23  C   UNL     1      -3.971  -9.097   9.214  0.00  0.00    +0.175 C 
ENDBRANCH  18   7
ENDBRANCH  19  18
ENDBRANCH  14  16
ENDBRANCH   9  14
BRANCH  10  15
ATOM     15  C   UNL     1      -4.136 -11.800  18.077  0.00  0.00    +0.138 C 
BRANCH  15   6
ATOM      5  O   UNL     1      -1.881 -10.673  16.703  0.00  0.00    -0.270 OA
ATOM      6  N   UNL     1      -3.872 -11.865  16.671  0.00  0.00    -0.309 N 
ATOM     24  C   UNL     1      -2.747 -11.287  16.085  0.00  0.00    +0.244 C 
ATOM     32  H   UNL     1      -4.529 -12.393  16.108  0.00  0.00    +0.149 HD
BRANCH  24  25
ATOM     25  C   UNL     1      -2.632 -11.418  14.610  0.00  0.00    +0.037 A 
ATOM     26  C   UNL     1      -2.356 -10.297  13.829  0.00  0.00    +0.013 A 
ATOM     27  C   UNL     1      -2.797 -12.665  14.007  0.00  0.00    +0.013 A 
ATOM     28  C   UNL     1      -2.246 -10.421  12.444  0.00  0.00    +0.001 A 
ATOM     29  C   UNL     1      -2.686 -12.790  12.622  0.00  0.00    +0.001 A 
ATOM     30  C   UNL     1      -2.412 -11.667  11.841  0.00  0.00    +0.000 A 
ENDBRANCH  24  25
ENDBRANCH  15   6
ENDBRANCH  10  15
TORSDOF 8
ENDMDL
MODEL 6
REMARK VINA RESULT:      -6.7     27.586     30.150
REMARK  Name = 75536413
REMARK  8 active torsions:
REMARK  status: ('A' for Active; 'I' for Inactive)
REMARK    1  A    between atoms: O_2  and  C_11
REMARK    2  A    between atoms: N_6  and  C_15
REMARK    3  A    between atoms: N_7  and  C_18
REMARK    4  A    between atoms: C_9  and  C_14
REMARK    5  A    between atoms: C_10  and  C_15
REMARK    6  A    between atoms: C_14  and  C_16
REMARK    7  A    between atoms: C_18  and  C_19
REMARK    8  A    between atoms: C_24  and  C_25
REMARK                            x       y       z     vdW  Elec       q    Type
REMARK                         _______ _______ _______ _____ _____    ______ ____
ROOT
ATOM      1  O   UNL     1      -5.984 -10.498  17.925  0.00  0.00    -0.369 OA
ATOM      9  C   UNL     1      -6.756 -11.699  18.001  0.00  0.00    +0.125 C 
ATOM     10  C   UNL     1      -5.228 -10.334  16.718  0.00  0.00    +0.164 C 
ATOM     11  C   UNL     1      -4.306 -11.535  16.469  0.00  0.00    +0.145 C 
ATOM     12  C   UNL     1      -5.857 -12.928  17.875  0.00  0.00    +0.034 C 
ATOM     13  C   UNL     1      -5.041 -12.867  16.587  0.00  0.00    +0.036 C 
ENDROOT
BRANCH  11   2
ATOM      2  O   UNL     1      -3.262 -11.524  17.446  0.00  0.00    -0.389 OA
ATOM     31  H   UNL     1      -2.415 -11.572  16.971  0.00  0.00    +0.210 HD
ENDBRANCH  11   2
BRANCH   9  14
ATOM     14  C   UNL     1      -7.483 -11.693  19.341  0.00  0.00    +0.090 C 
BRANCH  14  16
ATOM      3  O   UNL     1     -10.681 -10.139  19.930  0.00  0.00    -0.358 OA
ATOM      8  N   UNL     1      -9.553 -10.832  20.353  0.00  0.00    -0.083 NA
ATOM     16  C   UNL     1      -8.804 -10.977  19.256  0.00  0.00    +0.086 A 
ATOM     17  C   UNL     1      -9.402 -10.401  18.122  0.00  0.00    +0.072 A 
ATOM     19  C   UNL     1     -10.578  -9.888  18.599  0.00  0.00    +0.151 A 
BRANCH  19  18
ATOM     18  C   UNL     1     -11.693  -9.158  17.983  0.00  0.00    +0.161 C 
BRANCH  18   7
ATOM      4  O   UNL     1     -11.586  -6.462  14.768  0.00  0.00    -0.377 OA
ATOM      7  N   UNL     1     -11.334  -8.520  16.718  0.00  0.00    -0.291 NA
ATOM     20  C   UNL     1     -12.495  -8.450  15.820  0.00  0.00    +0.113 C 
ATOM     21  C   UNL     1     -10.793  -7.173  16.948  0.00  0.00    +0.113 C 
ATOM     22  C   UNL     1     -12.099  -7.770  14.512  0.00  0.00    +0.175 C 
ATOM     23  C   UNL     1     -10.437  -6.523  15.614  0.00  0.00    +0.175 C 
ENDBRANCH  18   7
ENDBRANCH  19  18
ENDBRANCH  14  16
ENDBRANCH   9  14
BRANCH  10  15
ATOM     15  C   UNL     1      -6.143 -10.029  15.534  0.00  0.00    +0.138 C 
BRANCH  15   6
ATOM      5  O   UNL     1      -7.191  -9.681  12.884  0.00  0.00    -0.270 OA
ATOM      6  N   UNL     1      -5.386  -9.842  14.334  0.00  0.00    -0.309 N 
ATOM     24  C   UNL     1      -5.979  -9.680  13.083  0.00  0.00    +0.244 C 
ATOM     32  H   UNL     1      -4.379  -9.790  14.433  0.00  0.00    +0.149 HD
BRANCH  24  25
ATOM     25  C   UNL     1      -5.055  -9.523  11.931  0.00  0.00    +0.037 A 
ATOM     26  C   UNL     1      -3.826 -10.182  11.927  0.00  0.00    +0.013 A 
ATOM     27  C   UNL     1      -5.418  -8.719  10.850  0.00  0.00    +0.013 A 
ATOM     28  C   UNL     1      -2.958 -10.035  10.845  0.00  0.00    +0.001 A 
ATOM     29  C   UNL     1      -4.551  -8.574   9.767  0.00  0.00    +0.001 A 
ATOM     30  C   UNL     1      -3.321  -9.231   9.765  0.00  0.00    +0.000 A 
ENDBRANCH  24  25
ENDBRANCH  15   6
ENDBRANCH  10  15
TORSDOF 8
ENDMDL
MODEL 7
REMARK VINA RESULT:      -6.6     27.581     30.103
REMARK  Name = 75536413
REMARK  8 active torsions:
REMARK  status: ('A' for Active; 'I' for Inactive)
REMARK    1  A    between atoms: O_2  and  C_11
REMARK    2  A    between atoms: N_6  and  C_15
REMARK    3  A    between atoms: N_7  and  C_18
REMARK    4  A    between atoms: C_9  and  C_14
REMARK    5  A    between atoms: C_10  and  C_15
REMARK    6  A    between atoms: C_14  and  C_16
REMARK    7  A    between atoms: C_18  and  C_19
REMARK    8  A    between atoms: C_24  and  C_25
REMARK                            x       y       z     vdW  Elec       q    Type
REMARK                         _______ _______ _______ _____ _____    ______ ____
ROOT
ATOM      1  O   UNL     1      -8.257  -9.210  17.684  0.00  0.00    -0.369 OA
ATOM      9  C   UNL     1      -9.524  -9.108  17.030  0.00  0.00    +0.125 C 
ATOM     10  C   UNL     1      -7.908 -10.524  18.138  0.00  0.00    +0.164 C 
ATOM     11  C   UNL     1      -8.991 -11.102  19.059  0.00  0.00    +0.145 C 
ATOM     12  C   UNL     1     -10.649  -9.565  17.958  0.00  0.00    +0.034 C 
ATOM     13  C   UNL     1     -10.389 -10.982  18.459  0.00  0.00    +0.036 C 
ENDROOT
BRANCH  11   2
ATOM      2  O   UNL     1      -8.981 -10.378  20.292  0.00  0.00    -0.389 OA
ATOM     31  H   UNL     1      -8.833 -11.018  21.009  0.00  0.00    +0.210 HD
ENDBRANCH  11   2
BRANCH   9  14
ATOM     14  C   UNL     1      -9.714  -7.652  16.622  0.00  0.00    +0.090 C 
BRANCH  14  16
ATOM      3  O   UNL     1     -12.160  -7.865  13.985  0.00  0.00    -0.358 OA
ATOM      8  N   UNL     1     -10.999  -8.284  14.622  0.00  0.00    -0.083 NA
ATOM     16  C   UNL     1     -10.878  -7.482  15.684  0.00  0.00    +0.086 A 
ATOM     17  C   UNL     1     -11.924  -6.548  15.768  0.00  0.00    +0.072 A 
ATOM     19  C   UNL     1     -12.702  -6.830  14.677  0.00  0.00    +0.151 A 
BRANCH  19  18
ATOM     18  C   UNL     1     -13.944  -6.261  14.139  0.00  0.00    +0.161 C 
BRANCH  18   7
ATOM      4  O   UNL     1     -13.602  -3.089  11.413  0.00  0.00    -0.377 OA
ATOM      7  N   UNL     1     -13.770  -4.920  13.584  0.00  0.00    -0.291 NA
ATOM     20  C   UNL     1     -12.584  -4.862  12.719  0.00  0.00    +0.113 C 
ATOM     21  C   UNL     1     -14.964  -4.507  12.833  0.00  0.00    +0.113 C 
ATOM     22  C   UNL     1     -12.432  -3.456  12.143  0.00  0.00    +0.175 C 
ATOM     23  C   UNL     1     -14.754  -3.111  12.255  0.00  0.00    +0.175 C 
ENDBRANCH  18   7
ENDBRANCH  19  18
ENDBRANCH  14  16
ENDBRANCH   9  14
BRANCH  10  15
ATOM     15  C   UNL     1      -7.573 -11.440  16.964  0.00  0.00    +0.138 C 
BRANCH  15   6
ATOM      5  O   UNL     1      -6.383  -9.825  14.910  0.00  0.00    -0.270 OA
ATOM      6  N   UNL     1      -6.181 -11.365  16.634  0.00  0.00    -0.309 N 
ATOM     24  C   UNL     1      -5.688 -10.550  15.617  0.00  0.00    +0.244 C 
ATOM     32  H   UNL     1      -5.548 -11.909  17.208  0.00  0.00    +0.149 HD
BRANCH  24  25
ATOM     25  C   UNL     1      -4.222 -10.606  15.381  0.00  0.00    +0.037 A 
ATOM     26  C   UNL     1      -3.342 -10.622  16.462  0.00  0.00    +0.013 A 
ATOM     27  C   UNL     1      -3.727 -10.645  14.078  0.00  0.00    +0.013 A 
ATOM     28  C   UNL     1      -1.966 -10.676  16.240  0.00  0.00    +0.001 A 
ATOM     29  C   UNL     1      -2.351 -10.700  13.855  0.00  0.00    +0.001 A 
ATOM     30  C   UNL     1      -1.471 -10.714  14.937  0.00  0.00    +0.000 A 
ENDBRANCH  24  25
ENDBRANCH  15   6
ENDBRANCH  10  15
TORSDOF 8
ENDMDL
MODEL 8
REMARK VINA RESULT:      -6.5      2.460      3.653
REMARK  Name = 75536413
REMARK  8 active torsions:
REMARK  status: ('A' for Active; 'I' for Inactive)
REMARK    1  A    between atoms: O_2  and  C_11
REMARK    2  A    between atoms: N_6  and  C_15
REMARK    3  A    between atoms: N_7  and  C_18
REMARK    4  A    between atoms: C_9  and  C_14
REMARK    5  A    between atoms: C_10  and  C_15
REMARK    6  A    between atoms: C_14  and  C_16
REMARK    7  A    between atoms: C_18  and  C_19
REMARK    8  A    between atoms: C_24  and  C_25
REMARK                            x       y       z     vdW  Elec       q    Type
REMARK                         _______ _______ _______ _____ _____    ______ ____
ROOT
ATOM      1  O   UNL     1      12.626   9.845  17.502  0.00  0.00    -0.369 OA
ATOM      9  C   UNL     1      13.705   9.878  16.565  0.00  0.00    +0.125 C 
ATOM     10  C   UNL     1      12.821   8.979  18.628  0.00  0.00    +0.164 C 
ATOM     11  C   UNL     1      13.135   7.545  18.182  0.00  0.00    +0.145 C 
ATOM     12  C   UNL     1      13.976   8.482  16.005  0.00  0.00    +0.034 C 
ATOM     13  C   UNL     1      14.243   7.492  17.134  0.00  0.00    +0.036 C 
ENDROOT
BRANCH  11   2
ATOM      2  O   UNL     1      11.959   6.976  17.602  0.00  0.00    -0.389 OA
ATOM     31  H   UNL     1      12.075   6.980  16.637  0.00  0.00    +0.210 HD
ENDBRANCH  11   2
BRANCH   9  14
ATOM     14  C   UNL     1      13.318  10.844  15.452  0.00  0.00    +0.090 C 
BRANCH  14  16
ATOM      3  O   UNL     1      15.558  13.241  13.960  0.00  0.00    -0.358 OA
ATOM      8  N   UNL     1      14.294  12.699  14.165  0.00  0.00    -0.083 NA
ATOM     16  C   UNL     1      14.488  11.675  15.002  0.00  0.00    +0.086 A 
ATOM     17  C   UNL     1      15.840  11.525  15.356  0.00  0.00    +0.072 A 
ATOM     19  C   UNL     1      16.469  12.533  14.675  0.00  0.00    +0.151 A 
BRANCH  19  18
ATOM     18  C   UNL     1      17.866  12.974  14.574  0.00  0.00    +0.161 C 
BRANCH  18   7
ATOM      4  O   UNL     1      21.210  11.213  12.750  0.00  0.00    -0.377 OA
ATOM      7  N   UNL     1      18.709  12.048  13.820  0.00  0.00    -0.291 NA
ATOM     20  C   UNL     1      19.308  12.717  12.658  0.00  0.00    +0.113 C 
ATOM     21  C   UNL     1      19.762  11.486  14.677  0.00  0.00    +0.113 C 
ATOM     22  C   UNL     1      20.193  11.734  11.894  0.00  0.00    +0.175 C 
ATOM     23  C   UNL     1      20.635  10.533  13.866  0.00  0.00    +0.175 C 
ENDBRANCH  18   7
ENDBRANCH  19  18
ENDBRANCH  14  16
ENDBRANCH   9  14
BRANCH  10  15
ATOM     15  C   UNL     1      13.866   9.549  19.584  0.00  0.00    +0.138 C 
BRANCH  15   6
ATOM      5  O   UNL     1      15.981   9.711  21.519  0.00  0.00    -0.270 OA
ATOM      6  N   UNL     1      14.997   8.676  19.690  0.00  0.00    -0.309 N 
ATOM     24  C   UNL     1      15.981   8.828  20.665  0.00  0.00    +0.244 C 
ATOM     32  H   UNL     1      15.036   7.900  19.039  0.00  0.00    +0.149 HD
BRANCH  24  25
ATOM     25  C   UNL     1      17.104   7.857  20.624  0.00  0.00    +0.037 A 
ATOM     26  C   UNL     1      18.206   8.028  21.462  0.00  0.00    +0.013 A 
ATOM     27  C   UNL     1      17.055   6.772  19.749  0.00  0.00    +0.013 A 
ATOM     28  C   UNL     1      19.259   7.115  21.424  0.00  0.00    +0.001 A 
ATOM     29  C   UNL     1      18.109   5.858  19.712  0.00  0.00    +0.001 A 
ATOM     30  C   UNL     1      19.211   6.030  20.549  0.00  0.00    +0.000 A 
ENDBRANCH  24  25
ENDBRANCH  15   6
ENDBRANCH  10  15
TORSDOF 8
ENDMDL
MODEL 9
REMARK VINA RESULT:      -6.5     26.706     29.545
REMARK  Name = 75536413
REMARK  8 active torsions:
REMARK  status: ('A' for Active; 'I' for Inactive)
REMARK    1  A    between atoms: O_2  and  C_11
REMARK    2  A    between atoms: N_6  and  C_15
REMARK    3  A    between atoms: N_7  and  C_18
REMARK    4  A    between atoms: C_9  and  C_14
REMARK    5  A    between atoms: C_10  and  C_15
REMARK    6  A    between atoms: C_14  and  C_16
REMARK    7  A    between atoms: C_18  and  C_19
REMARK    8  A    between atoms: C_24  and  C_25
REMARK                            x       y       z     vdW  Elec       q    Type
REMARK                         _______ _______ _______ _____ _____    ______ ____
ROOT
ATOM      1  O   UNL     1      -6.547 -11.435  16.675  0.00  0.00    -0.369 OA
ATOM      9  C   UNL     1      -5.264 -11.260  17.282  0.00  0.00    +0.125 C 
ATOM     10  C   UNL     1      -7.585 -10.588  17.186  0.00  0.00    +0.164 C 
ATOM     11  C   UNL     1      -7.730 -10.739  18.706  0.00  0.00    +0.145 C 
ATOM     12  C   UNL     1      -5.340 -11.517  18.786  0.00  0.00    +0.034 C 
ATOM     13  C   UNL     1      -6.393 -10.622  19.432  0.00  0.00    +0.036 C 
ENDROOT
BRANCH  11   2
ATOM      2  O   UNL     1      -8.270 -12.033  18.990  0.00  0.00    -0.389 OA
ATOM     31  H   UNL     1      -9.044 -12.161  18.416  0.00  0.00    +0.210 HD
ENDBRANCH  11   2
BRANCH   9  14
ATOM     14  C   UNL     1      -4.303 -12.234  16.612  0.00  0.00    +0.090 C 
BRANCH  14  16
ATOM      3  O   UNL     1      -1.852 -10.340  14.770  0.00  0.00    -0.358 OA
ATOM      8  N   UNL     1      -2.408 -10.810  15.954  0.00  0.00    -0.083 NA
ATOM     16  C   UNL     1      -3.452 -11.554  15.574  0.00  0.00    +0.086 A 
ATOM     17  C   UNL     1      -3.601 -11.590  14.178  0.00  0.00    +0.072 A 
ATOM     19  C   UNL     1      -2.572 -10.812  13.719  0.00  0.00    +0.151 A 
BRANCH  19  18
ATOM     18  C   UNL     1      -2.119 -10.410  12.382  0.00  0.00    +0.161 C 
BRANCH  18   7
ATOM      4  O   UNL     1      -4.213 -10.510   8.746  0.00  0.00    -0.377 OA
ATOM      7  N   UNL     1      -3.201 -10.349  11.401  0.00  0.00    -0.291 NA
ATOM     20  C   UNL     1      -2.956  -9.283  10.420  0.00  0.00    +0.113 C 
ATOM     21  C   UNL     1      -3.356 -11.639  10.715  0.00  0.00    +0.113 C 
ATOM     22  C   UNL     1      -4.092  -9.247   9.401  0.00  0.00    +0.175 C 
ATOM     23  C   UNL     1      -4.482 -11.547   9.690  0.00  0.00    +0.175 C 
ENDBRANCH  18   7
ENDBRANCH  19  18
ENDBRANCH  14  16
ENDBRANCH   9  14
BRANCH  10  15
ATOM     15  C   UNL     1      -7.379  -9.141  16.747  0.00  0.00    +0.138 C 
BRANCH  15   6
ATOM      5  O   UNL     1      -9.713  -7.759  17.687  0.00  0.00    -0.270 OA
ATOM      6  N   UNL     1      -8.479  -8.683  15.953  0.00  0.00    -0.309 N 
ATOM     24  C   UNL     1      -9.577  -8.017  16.494  0.00  0.00    +0.244 C 
ATOM     32  H   UNL     1      -8.410  -8.829  14.953  0.00  0.00    +0.149 HD
BRANCH  24  25
ATOM     25  C   UNL     1     -10.649  -7.631  15.541  0.00  0.00    +0.037 A 
ATOM     26  C   UNL     1     -11.299  -6.405  15.681  0.00  0.00    +0.013 A 
ATOM     27  C   UNL     1     -11.003  -8.493  14.504  0.00  0.00    +0.013 A 
ATOM     28  C   UNL     1     -12.304  -6.042  14.785  0.00  0.00    +0.001 A 
ATOM     29  C   UNL     1     -12.007  -8.130  13.606  0.00  0.00    +0.001 A 
ATOM     30  C   UNL     1     -12.658  -6.905  13.748  0.00  0.00    +0.000 A 
ENDBRANCH  24  25
ENDBRANCH  15   6
ENDBRANCH  10  15
TORSDOF 8
ENDMDL
MODEL 10
REMARK VINA RESULT:      -6.5     12.433     16.102
REMARK  Name = 75536413
REMARK  8 active torsions:
REMARK  status: ('A' for Active; 'I' for Inactive)
REMARK    1  A    between atoms: O_2  and  C_11
REMARK    2  A    between atoms: N_6  and  C_15
REMARK    3  A    between atoms: N_7  and  C_18
REMARK    4  A    between atoms: C_9  and  C_14
REMARK    5  A    between atoms: C_10  and  C_15
REMARK    6  A    between atoms: C_14  and  C_16
REMARK    7  A    between atoms: C_18  and  C_19
REMARK    8  A    between atoms: C_24  and  C_25
REMARK                            x       y       z     vdW  Elec       q    Type
REMARK                         _______ _______ _______ _____ _____    ______ ____
ROOT
ATOM      1  O   UNL     1      10.691   6.959   5.982  0.00  0.00    -0.369 OA
ATOM      9  C   UNL     1       9.535   7.703   6.376  0.00  0.00    +0.125 C 
ATOM     10  C   UNL     1      10.601   5.541   6.179  0.00  0.00    +0.164 C 
ATOM     11  C   UNL     1      10.263   5.201   7.636  0.00  0.00    +0.145 C 
ATOM     12  C   UNL     1       9.231   7.483   7.857  0.00  0.00    +0.034 C 
ATOM     13  C   UNL     1       9.070   5.996   8.158  0.00  0.00    +0.036 C 
ENDROOT
BRANCH  11   2
ATOM      2  O   UNL     1      11.391   5.517   8.456  0.00  0.00    -0.389 OA
ATOM     31  H   UNL     1      12.168   5.079   8.069  0.00  0.00    +0.210 HD
ENDBRANCH  11   2
BRANCH   9  14
ATOM     14  C   UNL     1       9.818   9.173   6.091  0.00  0.00    +0.090 C 
BRANCH  14  16
ATOM      3  O   UNL     1       7.334  11.482   4.870  0.00  0.00    -0.358 OA
ATOM      8  N   UNL     1       8.514  11.186   5.543  0.00  0.00    -0.083 NA
ATOM     16  C   UNL     1       8.634   9.857   5.463  0.00  0.00    +0.086 A 
ATOM     17  C   UNL     1       7.570   9.268   4.759  0.00  0.00    +0.072 A 
ATOM     19  C   UNL     1       6.782  10.331   4.408  0.00  0.00    +0.151 A 
BRANCH  19  18
ATOM     18  C   UNL     1       5.521  10.461   3.668  0.00  0.00    +0.161 C 
BRANCH  18   7
ATOM      4  O   UNL     1       5.230  10.018  -0.495  0.00  0.00    -0.377 OA
ATOM      7  N   UNL     1       5.578   9.884   2.326  0.00  0.00    -0.291 NA
ATOM     20  C   UNL     1       4.243   9.851   1.714  0.00  0.00    +0.113 C 
ATOM     21  C   UNL     1       6.505  10.641   1.472  0.00  0.00    +0.113 C 
ATOM     22  C   UNL     1       4.331   9.257   0.311  0.00  0.00    +0.175 C 
ATOM     23  C   UNL     1       6.539  10.029   0.075  0.00  0.00    +0.175 C 
ENDBRANCH  18   7
ENDBRANCH  19  18
ENDBRANCH  14  16
ENDBRANCH   9  14
BRANCH  10  15
ATOM     15  C   UNL     1       9.636   4.908   5.179  0.00  0.00    +0.138 C 
BRANCH  15   6
ATOM      5  O   UNL     1       9.984   6.312   2.699  0.00  0.00    -0.270 OA
ATOM      6  N   UNL     1      10.333   4.437   4.021  0.00  0.00    -0.309 N 
ATOM     24  C   UNL     1      10.454   5.188   2.853  0.00  0.00    +0.244 C 
ATOM     32  H   UNL     1      10.779   3.530   4.095  0.00  0.00    +0.149 HD
BRANCH  24  25
ATOM     25  C   UNL     1      11.184   4.546   1.730  0.00  0.00    +0.037 A 
ATOM     26  C   UNL     1      10.649   4.577   0.442  0.00  0.00    +0.013 A 
ATOM     27  C   UNL     1      12.405   3.914   1.963  0.00  0.00    +0.013 A 
ATOM     28  C   UNL     1      11.335   3.975  -0.613  0.00  0.00    +0.001 A 
ATOM     29  C   UNL     1      13.092   3.314   0.908  0.00  0.00    +0.001 A 
ATOM     30  C   UNL     1      12.557   3.344  -0.380  0.00  0.00    +0.000 A 
ENDBRANCH  24  25
ENDBRANCH  15   6
ENDBRANCH  10  15
TORSDOF 8
ENDMDL
