MODEL 1
REMARK VINA RESULT:      -6.4      0.000      0.000
REMARK  Name = 7675200
REMARK  6 active torsions:
REMARK  status: ('A' for Active; 'I' for Inactive)
REMARK    1  A    between atoms: O_4  and  C_22
REMARK    2  A    between atoms: N_8  and  C_15
REMARK    3  A    between atoms: C_15  and  C_18
REMARK    4  A    between atoms: C_16  and  C_17
REMARK    5  A    between atoms: C_17  and  C_19
REMARK    6  A    between atoms: C_19  and  C_22
REMARK                            x       y       z     vdW  Elec       q    Type
REMARK                         _______ _______ _______ _____ _____    ______ ____
ROOT
ATOM      1  O   UNL     1      11.943   4.338   2.524  0.00  0.00    -0.273 OA
ATOM      2  O   UNL     1      10.197   8.014   0.360  0.00  0.00    -0.252 OA
ATOM      3  O   UNL     1       8.063   7.569   6.906  0.00  0.00    -0.276 OA
ATOM      6  N   UNL     1       9.644   6.928   2.360  0.00  0.00    -0.271 N 
ATOM      7  N   UNL     1       9.469   7.041   5.135  0.00  0.00    -0.298 N 
ATOM      8  N   UNL     1      11.293   6.093   1.124  0.00  0.00    -0.220 N 
ATOM      9  C   UNL     1      10.086   5.780   3.120  0.00  0.00    +0.181 C 
ATOM     10  C   UNL     1      10.514   6.200   4.518  0.00  0.00    +0.139 C 
ATOM     11  C   UNL     1       8.642   7.807   2.934  0.00  0.00    +0.129 C 
ATOM     12  C   UNL     1       9.071   8.215   4.343  0.00  0.00    +0.127 C 
ATOM     13  C   UNL     1      11.227   5.292   2.246  0.00  0.00    +0.245 C 
ATOM     14  C   UNL     1      10.356   7.114   1.175  0.00  0.00    +0.312 C 
ATOM     16  C   UNL     1       8.902   6.826   6.390  0.00  0.00    +0.216 C 
ENDROOT
BRANCH   8  15
ATOM     15  C   UNL     1      12.263   5.918   0.060  0.00  0.00    +0.153 C 
BRANCH  15  18
ATOM     18  C   UNL     1      11.871   4.818  -0.883  0.00  0.00    -0.030 A 
ATOM     20  C   UNL     1      10.771   4.987  -1.716  0.00  0.00    +0.005 A 
ATOM     21  C   UNL     1      12.613   3.643  -0.915  0.00  0.00    +0.005 A 
ATOM     23  C   UNL     1      10.408   3.965  -2.593  0.00  0.00    +0.000 A 
ATOM     24  C   UNL     1      12.249   2.621  -1.791  0.00  0.00    +0.000 A 
ATOM     25  C   UNL     1      11.146   2.782  -2.631  0.00  0.00    +0.000 A 
ENDBRANCH  15  18
ENDBRANCH   8  15
BRANCH  16  17
ATOM     17  C   UNL     1       9.360   5.599   7.137  0.00  0.00    +0.107 C 
BRANCH  17  19
ATOM     19  C   UNL     1       9.303   5.853   8.630  0.00  0.00    +0.129 C 
BRANCH  19  22
ATOM      5  O   UNL     1      10.023   4.690  10.621  0.00  0.00    -0.251 OA
ATOM     22  C   UNL     1       9.932   4.720   9.400  0.00  0.00    +0.305 C 
BRANCH  22   4
ATOM      4  O   UNL     1      10.411   3.742   8.593  0.00  0.00    -0.481 OA
ATOM     26  H   UNL     1       9.766   3.012   8.480  0.00  0.00    +0.295 HD
ENDBRANCH  22   4
ENDBRANCH  19  22
ENDBRANCH  17  19
ENDBRANCH  16  17
TORSDOF 6
ENDMDL
MODEL 2
REMARK VINA RESULT:      -6.1     23.759     26.599
REMARK  Name = 7675200
REMARK  6 active torsions:
REMARK  status: ('A' for Active; 'I' for Inactive)
REMARK    1  A    between atoms: O_4  and  C_22
REMARK    2  A    between atoms: N_8  and  C_15
REMARK    3  A    between atoms: C_15  and  C_18
REMARK    4  A    between atoms: C_16  and  C_17
REMARK    5  A    between atoms: C_17  and  C_19
REMARK    6  A    between atoms: C_19  and  C_22
REMARK                            x       y       z     vdW  Elec       q    Type
REMARK                         _______ _______ _______ _____ _____    ______ ____
ROOT
ATOM      1  O   UNL     1      -5.831 -12.960  13.836  0.00  0.00    -0.273 OA
ATOM      2  O   UNL     1      -2.121 -10.647  15.293  0.00  0.00    -0.252 OA
ATOM      3  O   UNL     1      -6.736 -11.631  20.325  0.00  0.00    -0.276 OA
ATOM      6  N   UNL     1      -4.251 -10.982  16.204  0.00  0.00    -0.271 N 
ATOM      7  N   UNL     1      -5.800 -12.069  18.245  0.00  0.00    -0.298 N 
ATOM      8  N   UNL     1      -3.805 -11.856  14.210  0.00  0.00    -0.220 N 
ATOM      9  C   UNL     1      -5.483 -11.649  15.846  0.00  0.00    +0.181 C 
ATOM     10  C   UNL     1      -5.856 -12.679  16.902  0.00  0.00    +0.139 C 
ATOM     11  C   UNL     1      -4.129 -10.393  17.525  0.00  0.00    +0.129 C 
ATOM     12  C   UNL     1      -4.518 -11.428  18.580  0.00  0.00    +0.127 C 
ATOM     13  C   UNL     1      -5.093 -12.252  14.509  0.00  0.00    +0.245 C 
ATOM     14  C   UNL     1      -3.256 -11.101  15.234  0.00  0.00    +0.312 C 
ATOM     16  C   UNL     1      -6.823 -12.108  19.190  0.00  0.00    +0.216 C 
ENDROOT
BRANCH   8  15
ATOM     15  C   UNL     1      -3.101 -12.239  13.001  0.00  0.00    +0.153 C 
BRANCH  15  18
ATOM     18  C   UNL     1      -3.170 -11.171  11.948  0.00  0.00    -0.030 A 
ATOM     20  C   UNL     1      -2.092 -10.312  11.770  0.00  0.00    +0.005 A 
ATOM     21  C   UNL     1      -4.310 -11.054  11.161  0.00  0.00    +0.005 A 
ATOM     23  C   UNL     1      -2.155  -9.320  10.791  0.00  0.00    +0.000 A 
ATOM     24  C   UNL     1      -4.373 -10.062  10.182  0.00  0.00    +0.000 A 
ATOM     25  C   UNL     1      -3.296  -9.195   9.997  0.00  0.00    +0.000 A 
ENDBRANCH  15  18
ENDBRANCH   8  15
BRANCH  16  17
ATOM     17  C   UNL     1      -8.105 -12.780  18.769  0.00  0.00    +0.107 C 
BRANCH  17  19
ATOM     19  C   UNL     1      -9.211 -11.750  18.647  0.00  0.00    +0.129 C 
BRANCH  19  22
ATOM      5  O   UNL     1     -10.681 -12.413  20.445  0.00  0.00    -0.251 OA
ATOM     22  C   UNL     1      -9.938 -11.572  19.956  0.00  0.00    +0.305 C 
BRANCH  22   4
ATOM      4  O   UNL     1      -9.698 -10.366  20.527  0.00  0.00    -0.481 OA
ATOM     26  H   UNL     1     -10.216  -9.650  20.102  0.00  0.00    +0.295 HD
ENDBRANCH  22   4
ENDBRANCH  19  22
ENDBRANCH  17  19
ENDBRANCH  16  17
TORSDOF 6
ENDMDL
MODEL 3
REMARK VINA RESULT:      -6.1     35.863     38.214
REMARK  Name = 7675200
REMARK  6 active torsions:
REMARK  status: ('A' for Active; 'I' for Inactive)
REMARK    1  A    between atoms: O_4  and  C_22
REMARK    2  A    between atoms: N_8  and  C_15
REMARK    3  A    between atoms: C_15  and  C_18
REMARK    4  A    between atoms: C_16  and  C_17
REMARK    5  A    between atoms: C_17  and  C_19
REMARK    6  A    between atoms: C_19  and  C_22
REMARK                            x       y       z     vdW  Elec       q    Type
REMARK                         _______ _______ _______ _____ _____    ______ ____
ROOT
ATOM      1  O   UNL     1     -16.773   6.455  30.990  0.00  0.00    -0.273 OA
ATOM      2  O   UNL     1     -14.020   4.486  34.117  0.00  0.00    -0.252 OA
ATOM      3  O   UNL     1     -15.365   0.295  28.805  0.00  0.00    -0.276 OA
ATOM      6  N   UNL     1     -15.269   3.634  32.329  0.00  0.00    -0.271 N 
ATOM      7  N   UNL     1     -15.280   2.366  29.852  0.00  0.00    -0.298 N 
ATOM      8  N   UNL     1     -15.381   5.813  32.754  0.00  0.00    -0.220 N 
ATOM      9  C   UNL     1     -16.170   4.128  31.313  0.00  0.00    +0.181 C 
ATOM     10  C   UNL     1     -15.641   3.796  29.926  0.00  0.00    +0.139 C 
ATOM     11  C   UNL     1     -14.854   2.243  32.285  0.00  0.00    +0.129 C 
ATOM     12  C   UNL     1     -14.336   1.912  30.886  0.00  0.00    +0.127 C 
ATOM     13  C   UNL     1     -16.165   5.611  31.636  0.00  0.00    +0.245 C 
ATOM     14  C   UNL     1     -14.802   4.630  33.187  0.00  0.00    +0.312 C 
ATOM     16  C   UNL     1     -15.718   1.475  28.874  0.00  0.00    +0.216 C 
ENDROOT
BRANCH   8  15
ATOM     15  C   UNL     1     -15.150   7.111  33.356  0.00  0.00    +0.153 C 
BRANCH  15  18
ATOM     18  C   UNL     1     -14.122   7.906  32.604  0.00  0.00    -0.030 A 
ATOM     20  C   UNL     1     -14.530   8.929  31.755  0.00  0.00    +0.005 A 
ATOM     21  C   UNL     1     -12.773   7.612  32.764  0.00  0.00    +0.005 A 
ATOM     23  C   UNL     1     -13.575   9.667  31.056  0.00  0.00    +0.000 A 
ATOM     24  C   UNL     1     -11.818   8.350  32.065  0.00  0.00    +0.000 A 
ATOM     25  C   UNL     1     -12.219   9.378  31.211  0.00  0.00    +0.000 A 
ENDBRANCH  15  18
ENDBRANCH   8  15
BRANCH  16  17
ATOM     17  C   UNL     1     -16.686   2.017  27.853  0.00  0.00    +0.107 C 
BRANCH  17  19
ATOM     19  C   UNL     1     -17.233   0.884  27.009  0.00  0.00    +0.129 C 
BRANCH  19  22
ATOM      5  O   UNL     1     -16.148   1.945  25.130  0.00  0.00    -0.251 OA
ATOM     22  C   UNL     1     -16.749   0.980  25.584  0.00  0.00    +0.305 C 
BRANCH  22   4
ATOM      4  O   UNL     1     -17.072  -0.112  24.848  0.00  0.00    -0.481 OA
ATOM     26  H   UNL     1     -17.945  -0.479  25.102  0.00  0.00    +0.295 HD
ENDBRANCH  22   4
ENDBRANCH  19  22
ENDBRANCH  17  19
ENDBRANCH  16  17
TORSDOF 6
ENDMDL
MODEL 4
REMARK VINA RESULT:      -5.9     24.129     27.433
REMARK  Name = 7675200
REMARK  6 active torsions:
REMARK  status: ('A' for Active; 'I' for Inactive)
REMARK    1  A    between atoms: O_4  and  C_22
REMARK    2  A    between atoms: N_8  and  C_15
REMARK    3  A    between atoms: C_15  and  C_18
REMARK    4  A    between atoms: C_16  and  C_17
REMARK    5  A    between atoms: C_17  and  C_19
REMARK    6  A    between atoms: C_19  and  C_22
REMARK                            x       y       z     vdW  Elec       q    Type
REMARK                         _______ _______ _______ _____ _____    ______ ____
ROOT
ATOM      1  O   UNL     1      -6.394 -10.872  14.765  0.00  0.00    -0.273 OA
ATOM      2  O   UNL     1      -4.564 -12.354  18.726  0.00  0.00    -0.252 OA
ATOM      3  O   UNL     1     -10.929  -9.828  19.564  0.00  0.00    -0.276 OA
ATOM      6  N   UNL     1      -6.412 -11.003  18.229  0.00  0.00    -0.271 N 
ATOM      7  N   UNL     1      -9.173 -10.665  18.297  0.00  0.00    -0.298 N 
ATOM      8  N   UNL     1      -5.164 -11.750  16.547  0.00  0.00    -0.220 N 
ATOM      9  C   UNL     1      -7.062 -10.457  17.059  0.00  0.00    +0.181 C 
ATOM     10  C   UNL     1      -8.514 -10.908  16.998  0.00  0.00    +0.139 C 
ATOM     11  C   UNL     1      -7.033 -10.823  19.528  0.00  0.00    +0.129 C 
ATOM     12  C   UNL     1      -8.495 -11.265  19.457  0.00  0.00    +0.127 C 
ATOM     13  C   UNL     1      -6.190 -11.037  15.960  0.00  0.00    +0.245 C 
ATOM     14  C   UNL     1      -5.284 -11.768  17.928  0.00  0.00    +0.312 C 
ATOM     16  C   UNL     1     -10.373  -9.978  18.474  0.00  0.00    +0.216 C 
ENDROOT
BRANCH   8  15
ATOM     15  C   UNL     1      -4.130 -12.441  15.802  0.00  0.00    +0.153 C 
BRANCH  15  18
ATOM     18  C   UNL     1      -3.073 -11.499  15.301  0.00  0.00    -0.030 A 
ATOM     20  C   UNL     1      -3.010 -11.194  13.946  0.00  0.00    +0.005 A 
ATOM     21  C   UNL     1      -2.169 -10.941  16.197  0.00  0.00    +0.005 A 
ATOM     23  C   UNL     1      -2.029 -10.320  13.481  0.00  0.00    +0.000 A 
ATOM     24  C   UNL     1      -1.187 -10.066  15.732  0.00  0.00    +0.000 A 
ATOM     25  C   UNL     1      -1.117  -9.756  14.374  0.00  0.00    +0.000 A 
ENDBRANCH  15  18
ENDBRANCH   8  15
BRANCH  16  17
ATOM     17  C   UNL     1     -11.003  -9.391  17.236  0.00  0.00    +0.107 C 
BRANCH  17  19
ATOM     19  C   UNL     1     -10.685  -7.912  17.149  0.00  0.00    +0.129 C 
BRANCH  19  22
ATOM      5  O   UNL     1      -9.730  -8.395  14.983  0.00  0.00    -0.251 OA
ATOM     22  C   UNL     1     -10.056  -7.566  15.822  0.00  0.00    +0.305 C 
BRANCH  22   4
ATOM      4  O   UNL     1      -9.869  -6.232  15.665  0.00  0.00    -0.481 OA
ATOM     26  H   UNL     1      -9.788  -5.770  16.527  0.00  0.00    +0.295 HD
ENDBRANCH  22   4
ENDBRANCH  19  22
ENDBRANCH  17  19
ENDBRANCH  16  17
TORSDOF 6
ENDMDL
MODEL 5
REMARK VINA RESULT:      -5.8     25.440     27.467
REMARK  Name = 7675200
REMARK  6 active torsions:
REMARK  status: ('A' for Active; 'I' for Inactive)
REMARK    1  A    between atoms: O_4  and  C_22
REMARK    2  A    between atoms: N_8  and  C_15
REMARK    3  A    between atoms: C_15  and  C_18
REMARK    4  A    between atoms: C_16  and  C_17
REMARK    5  A    between atoms: C_17  and  C_19
REMARK    6  A    between atoms: C_19  and  C_22
REMARK                            x       y       z     vdW  Elec       q    Type
REMARK                         _______ _______ _______ _____ _____    ______ ____
ROOT
ATOM      1  O   UNL     1     -10.337   7.786  17.029  0.00  0.00    -0.273 OA
ATOM      2  O   UNL     1     -10.830  12.106  18.556  0.00  0.00    -0.252 OA
ATOM      3  O   UNL     1     -13.563  11.218  12.284  0.00  0.00    -0.276 OA
ATOM      6  N   UNL     1     -11.056  11.126  16.441  0.00  0.00    -0.271 N 
ATOM      7  N   UNL     1     -12.724  10.464  14.314  0.00  0.00    -0.298 N 
ATOM      8  N   UNL     1     -10.429   9.839  18.142  0.00  0.00    -0.220 N 
ATOM      9  C   UNL     1     -10.909   9.820  15.838  0.00  0.00    +0.181 C 
ATOM     10  C   UNL     1     -12.213   9.387  15.184  0.00  0.00    +0.139 C 
ATOM     11  C   UNL     1     -11.586  12.215  15.640  0.00  0.00    +0.129 C 
ATOM     12  C   UNL     1     -12.888  11.769  14.976  0.00  0.00    +0.127 C 
ATOM     13  C   UNL     1     -10.526   8.995  17.054  0.00  0.00    +0.245 C 
ATOM     14  C   UNL     1     -10.769  11.141  17.806  0.00  0.00    +0.312 C 
ATOM     16  C   UNL     1     -13.094  10.313  12.979  0.00  0.00    +0.216 C 
ENDROOT
BRANCH   8  15
ATOM     15  C   UNL     1     -10.075   9.399  19.478  0.00  0.00    +0.153 C 
BRANCH  15  18
ATOM     18  C   UNL     1     -11.237   8.768  20.189  0.00  0.00    -0.030 A 
ATOM     20  C   UNL     1     -12.220   9.576  20.749  0.00  0.00    +0.005 A 
ATOM     21  C   UNL     1     -11.318   7.384  20.280  0.00  0.00    +0.005 A 
ATOM     23  C   UNL     1     -13.299   8.990  21.409  0.00  0.00    +0.000 A 
ATOM     24  C   UNL     1     -12.397   6.798  20.940  0.00  0.00    +0.000 A 
ATOM     25  C   UNL     1     -13.388   7.601  21.505  0.00  0.00    +0.000 A 
ENDBRANCH  15  18
ENDBRANCH   8  15
BRANCH  16  17
ATOM     17  C   UNL     1     -12.892   8.947  12.374  0.00  0.00    +0.107 C 
BRANCH  17  19
ATOM     19  C   UNL     1     -14.196   8.176  12.395  0.00  0.00    +0.129 C 
BRANCH  19  22
ATOM      5  O   UNL     1     -15.009   6.338  13.736  0.00  0.00    -0.251 OA
ATOM     22  C   UNL     1     -14.068   6.907  13.199  0.00  0.00    +0.305 C 
BRANCH  22   4
ATOM      4  O   UNL     1     -12.786   6.470  13.284  0.00  0.00    -0.481 OA
ATOM     26  H   UNL     1     -12.252   7.023  13.893  0.00  0.00    +0.295 HD
ENDBRANCH  22   4
ENDBRANCH  19  22
ENDBRANCH  17  19
ENDBRANCH  16  17
TORSDOF 6
ENDMDL
MODEL 6
REMARK VINA RESULT:      -5.7     36.657     38.616
REMARK  Name = 7675200
REMARK  6 active torsions:
REMARK  status: ('A' for Active; 'I' for Inactive)
REMARK    1  A    between atoms: O_4  and  C_22
REMARK    2  A    between atoms: N_8  and  C_15
REMARK    3  A    between atoms: C_15  and  C_18
REMARK    4  A    between atoms: C_16  and  C_17
REMARK    5  A    between atoms: C_17  and  C_19
REMARK    6  A    between atoms: C_19  and  C_22
REMARK                            x       y       z     vdW  Elec       q    Type
REMARK                         _______ _______ _______ _____ _____    ______ ____
ROOT
ATOM      1  O   UNL     1     -15.825   6.953  31.170  0.00  0.00    -0.273 OA
ATOM      2  O   UNL     1     -13.909   5.637  35.149  0.00  0.00    -0.252 OA
ATOM      3  O   UNL     1     -14.452   0.431  30.654  0.00  0.00    -0.276 OA
ATOM      6  N   UNL     1     -14.829   4.450  33.352  0.00  0.00    -0.271 N 
ATOM      7  N   UNL     1     -14.431   2.677  31.245  0.00  0.00    -0.298 N 
ATOM      8  N   UNL     1     -14.868   6.672  33.283  0.00  0.00    -0.220 N 
ATOM      9  C   UNL     1     -15.469   4.737  32.087  0.00  0.00    +0.181 C 
ATOM     10  C   UNL     1     -14.696   4.097  30.943  0.00  0.00    +0.139 C 
ATOM     11  C   UNL     1     -14.516   3.073  33.685  0.00  0.00    +0.129 C 
ATOM     12  C   UNL     1     -13.751   2.432  32.527  0.00  0.00    +0.127 C 
ATOM     13  C   UNL     1     -15.422   6.254  32.090  0.00  0.00    +0.245 C 
ATOM     14  C   UNL     1     -14.475   5.596  34.064  0.00  0.00    +0.312 C 
ATOM     16  C   UNL     1     -14.726   1.607  30.401  0.00  0.00    +0.216 C 
ENDROOT
BRANCH   8  15
ATOM     15  C   UNL     1     -14.670   8.064  33.640  0.00  0.00    +0.153 C 
BRANCH  15  18
ATOM     18  C   UNL     1     -13.265   8.520  33.370  0.00  0.00    -0.030 A 
ATOM     20  C   UNL     1     -12.513   9.073  34.400  0.00  0.00    +0.005 A 
ATOM     21  C   UNL     1     -12.731   8.383  32.095  0.00  0.00    +0.005 A 
ATOM     23  C   UNL     1     -11.209   9.496  34.150  0.00  0.00    +0.000 A 
ATOM     24  C   UNL     1     -11.426   8.806  31.844  0.00  0.00    +0.000 A 
ATOM     25  C   UNL     1     -10.664   9.363  32.872  0.00  0.00    +0.000 A 
ENDBRANCH  15  18
ENDBRANCH   8  15
BRANCH  16  17
ATOM     17  C   UNL     1     -15.426   1.940  29.108  0.00  0.00    +0.107 C 
BRANCH  17  19
ATOM     19  C   UNL     1     -16.533   0.939  28.848  0.00  0.00    +0.129 C 
BRANCH  19  22
ATOM      5  O   UNL     1     -16.525   1.750  26.573  0.00  0.00    -0.251 OA
ATOM     22  C   UNL     1     -16.986   0.986  27.411  0.00  0.00    +0.305 C 
BRANCH  22   4
ATOM      4  O   UNL     1     -17.981   0.103  27.147  0.00  0.00    -0.481 OA
ATOM     26  H   UNL     1     -18.764   0.542  26.753  0.00  0.00    +0.295 HD
ENDBRANCH  22   4
ENDBRANCH  19  22
ENDBRANCH  17  19
ENDBRANCH  16  17
TORSDOF 6
ENDMDL
MODEL 7
REMARK VINA RESULT:      -5.7     24.142     28.235
REMARK  Name = 7675200
REMARK  6 active torsions:
REMARK  status: ('A' for Active; 'I' for Inactive)
REMARK    1  A    between atoms: O_4  and  C_22
REMARK    2  A    between atoms: N_8  and  C_15
REMARK    3  A    between atoms: C_15  and  C_18
REMARK    4  A    between atoms: C_16  and  C_17
REMARK    5  A    between atoms: C_17  and  C_19
REMARK    6  A    between atoms: C_19  and  C_22
REMARK                            x       y       z     vdW  Elec       q    Type
REMARK                         _______ _______ _______ _____ _____    ______ ____
ROOT
ATOM      1  O   UNL     1     -11.167   6.969  18.300  0.00  0.00    -0.273 OA
ATOM      2  O   UNL     1     -13.183  10.754  19.987  0.00  0.00    -0.252 OA
ATOM      3  O   UNL     1     -13.766  10.313  13.127  0.00  0.00    -0.276 OA
ATOM      6  N   UNL     1     -12.556  10.109  17.825  0.00  0.00    -0.271 N 
ATOM      7  N   UNL     1     -13.344   9.446  15.240  0.00  0.00    -0.298 N 
ATOM      8  N   UNL     1     -12.099   8.736  19.512  0.00  0.00    -0.220 N 
ATOM      9  C   UNL     1     -11.910   8.988  17.180  0.00  0.00    +0.181 C 
ATOM     10  C   UNL     1     -12.823   8.385  16.123  0.00  0.00    +0.139 C 
ATOM     11  C   UNL     1     -13.116  11.167  17.002  0.00  0.00    +0.129 C 
ATOM     12  C   UNL     1     -14.021  10.553  15.934  0.00  0.00    +0.127 C 
ATOM     13  C   UNL     1     -11.669   8.083  18.375  0.00  0.00    +0.245 C 
ATOM     14  C   UNL     1     -12.666   9.964  19.208  0.00  0.00    +0.312 C 
ATOM     16  C   UNL     1     -13.282   9.436  13.847  0.00  0.00    +0.216 C 
ENDROOT
BRANCH   8  15
ATOM     15  C   UNL     1     -12.019   8.175  20.847  0.00  0.00    +0.153 C 
BRANCH  15  18
ATOM     18  C   UNL     1     -13.122   7.190  21.110  0.00  0.00    -0.030 A 
ATOM     20  C   UNL     1     -12.826   5.971  21.708  0.00  0.00    +0.005 A 
ATOM     21  C   UNL     1     -14.427   7.510  20.755  0.00  0.00    +0.005 A 
ATOM     23  C   UNL     1     -13.850   5.057  21.953  0.00  0.00    +0.000 A 
ATOM     24  C   UNL     1     -15.452   6.596  21.000  0.00  0.00    +0.000 A 
ATOM     25  C   UNL     1     -15.163   5.369  21.599  0.00  0.00    +0.000 A 
ENDBRANCH  15  18
ENDBRANCH   8  15
BRANCH  16  17
ATOM     17  C   UNL     1     -12.569   8.270  13.212  0.00  0.00    +0.107 C 
BRANCH  17  19
ATOM     19  C   UNL     1     -11.211   8.710  12.705  0.00  0.00    +0.129 C 
BRANCH  19  22
ATOM      5  O   UNL     1     -10.138   7.041  14.083  0.00  0.00    -0.251 OA
ATOM     22  C   UNL     1     -10.145   7.702  13.053  0.00  0.00    +0.305 C 
BRANCH  22   4
ATOM      4  O   UNL     1      -9.175   7.619  12.109  0.00  0.00    -0.481 OA
ATOM     26  H   UNL     1      -9.545   7.428  11.221  0.00  0.00    +0.295 HD
ENDBRANCH  22   4
ENDBRANCH  19  22
ENDBRANCH  17  19
ENDBRANCH  16  17
TORSDOF 6
ENDMDL
MODEL 8
REMARK VINA RESULT:      -5.6     22.784     25.493
REMARK  Name = 7675200
REMARK  6 active torsions:
REMARK  status: ('A' for Active; 'I' for Inactive)
REMARK    1  A    between atoms: O_4  and  C_22
REMARK    2  A    between atoms: N_8  and  C_15
REMARK    3  A    between atoms: C_15  and  C_18
REMARK    4  A    between atoms: C_16  and  C_17
REMARK    5  A    between atoms: C_17  and  C_19
REMARK    6  A    between atoms: C_19  and  C_22
REMARK                            x       y       z     vdW  Elec       q    Type
REMARK                         _______ _______ _______ _____ _____    ______ ____
ROOT
ATOM      1  O   UNL     1      -6.004 -11.448  12.969  0.00  0.00    -0.273 OA
ATOM      2  O   UNL     1      -1.626 -11.719  14.382  0.00  0.00    -0.252 OA
ATOM      3  O   UNL     1      -6.011 -10.723  19.615  0.00  0.00    -0.276 OA
ATOM      6  N   UNL     1      -3.592 -10.971  15.412  0.00  0.00    -0.271 N 
ATOM      7  N   UNL     1      -5.473 -11.313  17.434  0.00  0.00    -0.298 N 
ATOM      8  N   UNL     1      -3.702 -11.672  13.305  0.00  0.00    -0.220 N 
ATOM      9  C   UNL     1      -4.990 -10.814  15.079  0.00  0.00    +0.181 C 
ATOM     10  C   UNL     1      -5.858 -11.611  16.041  0.00  0.00    +0.139 C 
ATOM     11  C   UNL     1      -3.162 -10.723  16.777  0.00  0.00    +0.129 C 
ATOM     12  C   UNL     1      -4.047 -11.515  17.739  0.00  0.00    +0.127 C 
ATOM     13  C   UNL     1      -4.997 -11.347  13.657  0.00  0.00    +0.245 C 
ATOM     14  C   UNL     1      -2.826 -11.476  14.362  0.00  0.00    +0.312 C 
ATOM     16  C   UNL     1      -6.349 -10.921  18.445  0.00  0.00    +0.216 C 
ENDROOT
BRANCH   8  15
ATOM     15  C   UNL     1      -3.326 -12.208  12.012  0.00  0.00    +0.153 C 
BRANCH  15  18
ATOM     18  C   UNL     1      -3.599 -11.237  10.899  0.00  0.00    -0.030 A 
ATOM     20  C   UNL     1      -4.376 -11.633   9.817  0.00  0.00    +0.005 A 
ATOM     21  C   UNL     1      -3.073  -9.952  10.964  0.00  0.00    +0.005 A 
ATOM     23  C   UNL     1      -4.630 -10.731   8.784  0.00  0.00    +0.000 A 
ATOM     24  C   UNL     1      -3.326  -9.050   9.931  0.00  0.00    +0.000 A 
ATOM     25  C   UNL     1      -4.105  -9.440   8.841  0.00  0.00    +0.000 A 
ENDBRANCH  15  18
ENDBRANCH   8  15
BRANCH  16  17
ATOM     17  C   UNL     1      -7.792 -10.732  18.051  0.00  0.00    +0.107 C 
BRANCH  17  19
ATOM     19  C   UNL     1      -8.017  -9.307  17.588  0.00  0.00    +0.129 C 
BRANCH  19  22
ATOM      5  O   UNL     1      -9.350 -10.257  15.811  0.00  0.00    -0.251 OA
ATOM     22  C   UNL     1      -8.879  -9.265  16.351  0.00  0.00    +0.305 C 
BRANCH  22   4
ATOM      4  O   UNL     1      -9.059  -8.005  15.883  0.00  0.00    -0.481 OA
ATOM     26  H   UNL     1      -8.807  -7.926  14.938  0.00  0.00    +0.295 HD
ENDBRANCH  22   4
ENDBRANCH  19  22
ENDBRANCH  17  19
ENDBRANCH  16  17
TORSDOF 6
ENDMDL
MODEL 9
REMARK VINA RESULT:      -5.6     23.768     27.500
REMARK  Name = 7675200
REMARK  6 active torsions:
REMARK  status: ('A' for Active; 'I' for Inactive)
REMARK    1  A    between atoms: O_4  and  C_22
REMARK    2  A    between atoms: N_8  and  C_15
REMARK    3  A    between atoms: C_15  and  C_18
REMARK    4  A    between atoms: C_16  and  C_17
REMARK    5  A    between atoms: C_17  and  C_19
REMARK    6  A    between atoms: C_19  and  C_22
REMARK                            x       y       z     vdW  Elec       q    Type
REMARK                         _______ _______ _______ _____ _____    ______ ____
ROOT
ATOM      1  O   UNL     1      19.346  -2.037  26.810  0.00  0.00    -0.273 OA
ATOM      2  O   UNL     1      17.325  -6.171  27.052  0.00  0.00    -0.252 OA
ATOM      3  O   UNL     1      16.012  -2.286  32.600  0.00  0.00    -0.276 OA
ATOM      6  N   UNL     1      17.743  -4.504  28.643  0.00  0.00    -0.271 N 
ATOM      7  N   UNL     1      16.712  -2.619  30.410  0.00  0.00    -0.298 N 
ATOM      8  N   UNL     1      18.458  -4.185  26.562  0.00  0.00    -0.220 N 
ATOM      9  C   UNL     1      18.374  -3.205  28.700  0.00  0.00    +0.181 C 
ATOM     10  C   UNL     1      17.384  -2.154  29.181  0.00  0.00    +0.139 C 
ATOM     11  C   UNL     1      17.039  -4.996  29.813  0.00  0.00    +0.129 C 
ATOM     12  C   UNL     1      16.057  -3.932  30.299  0.00  0.00    +0.127 C 
ATOM     13  C   UNL     1      18.795  -3.037  27.251  0.00  0.00    +0.245 C 
ATOM     14  C   UNL     1      17.795  -5.089  27.377  0.00  0.00    +0.312 C 
ATOM     16  C   UNL     1      16.620  -1.897  31.599  0.00  0.00    +0.216 C 
ENDROOT
BRANCH   8  15
ATOM     15  C   UNL     1      18.716  -4.385  25.150  0.00  0.00    +0.153 C 
BRANCH  15  18
ATOM     18  C   UNL     1      17.862  -3.497  24.290  0.00  0.00    -0.030 A 
ATOM     20  C   UNL     1      16.478  -3.578  24.382  0.00  0.00    +0.005 A 
ATOM     21  C   UNL     1      18.465  -2.602  23.414  0.00  0.00    +0.005 A 
ATOM     23  C   UNL     1      15.685  -2.754  23.584  0.00  0.00    +0.000 A 
ATOM     24  C   UNL     1      17.673  -1.778  22.617  0.00  0.00    +0.000 A 
ATOM     25  C   UNL     1      16.282  -1.854  22.701  0.00  0.00    +0.000 A 
ENDBRANCH  15  18
ENDBRANCH   8  15
BRANCH  16  17
ATOM     17  C   UNL     1      17.321  -0.563  31.634  0.00  0.00    +0.107 C 
BRANCH  17  19
ATOM     19  C   UNL     1      17.033   0.137  32.947  0.00  0.00    +0.129 C 
BRANCH  19  22
ATOM      5  O   UNL     1      15.817   2.187  33.340  0.00  0.00    -0.251 OA
ATOM     22  C   UNL     1      16.692   1.590  32.728  0.00  0.00    +0.305 C 
BRANCH  22   4
ATOM      4  O   UNL     1      17.448   2.163  31.758  0.00  0.00    -0.481 OA
ATOM     26  H   UNL     1      17.056   2.039  30.868  0.00  0.00    +0.295 HD
ENDBRANCH  22   4
ENDBRANCH  19  22
ENDBRANCH  17  19
ENDBRANCH  16  17
TORSDOF 6
ENDMDL
MODEL 10
REMARK VINA RESULT:      -5.5     25.347     28.372
REMARK  Name = 7675200
REMARK  6 active torsions:
REMARK  status: ('A' for Active; 'I' for Inactive)
REMARK    1  A    between atoms: O_4  and  C_22
REMARK    2  A    between atoms: N_8  and  C_15
REMARK    3  A    between atoms: C_15  and  C_18
REMARK    4  A    between atoms: C_16  and  C_17
REMARK    5  A    between atoms: C_17  and  C_19
REMARK    6  A    between atoms: C_19  and  C_22
REMARK                            x       y       z     vdW  Elec       q    Type
REMARK                         _______ _______ _______ _____ _____    ______ ____
ROOT
ATOM      1  O   UNL     1     -14.750   8.560  18.342  0.00  0.00    -0.273 OA
ATOM      2  O   UNL     1     -10.255   9.192  19.140  0.00  0.00    -0.252 OA
ATOM      3  O   UNL     1     -11.851   9.877  12.463  0.00  0.00    -0.276 OA
ATOM      6  N   UNL     1     -11.491   8.814  17.187  0.00  0.00    -0.271 N 
ATOM      7  N   UNL     1     -12.364   9.774  14.726  0.00  0.00    -0.298 N 
ATOM      8  N   UNL     1     -12.569   8.847  19.132  0.00  0.00    -0.220 N 
ATOM      9  C   UNL     1     -12.868   8.581  16.813  0.00  0.00    +0.181 C 
ATOM     10  C   UNL     1     -13.337   9.641  15.828  0.00  0.00    +0.139 C 
ATOM     11  C   UNL     1     -10.497   8.985  16.143  0.00  0.00    +0.129 C 
ATOM     12  C   UNL     1     -10.981  10.041  15.151  0.00  0.00    +0.127 C 
ATOM     13  C   UNL     1     -13.542   8.659  18.171  0.00  0.00    +0.245 C 
ATOM     14  C   UNL     1     -11.311   8.969  18.562  0.00  0.00    +0.312 C 
ATOM     16  C   UNL     1     -12.674   9.716  13.368  0.00  0.00    +0.216 C 
ENDROOT
BRANCH   8  15
ATOM     15  C   UNL     1     -12.845   8.962  20.550  0.00  0.00    +0.153 C 
BRANCH  15  18
ATOM     18  C   UNL     1     -13.121   7.628  21.180  0.00  0.00    -0.030 A 
ATOM     20  C   UNL     1     -14.361   7.385  21.760  0.00  0.00    +0.005 A 
ATOM     21  C   UNL     1     -12.134   6.648  21.176  0.00  0.00    +0.005 A 
ATOM     23  C   UNL     1     -14.617   6.145  22.345  0.00  0.00    +0.000 A 
ATOM     24  C   UNL     1     -12.391   5.409  21.761  0.00  0.00    +0.000 A 
ATOM     25  C   UNL     1     -13.633   5.157  22.346  0.00  0.00    +0.000 A 
ENDBRANCH  15  18
ENDBRANCH   8  15
BRANCH  16  17
ATOM     17  C   UNL     1     -14.112   9.435  13.016  0.00  0.00    +0.107 C 
BRANCH  17  19
ATOM     19  C   UNL     1     -14.222   8.085  12.335  0.00  0.00    +0.129 C 
BRANCH  19  22
ATOM      5  O   UNL     1     -14.948   6.591  14.089  0.00  0.00    -0.251 OA
ATOM     22  C   UNL     1     -14.065   6.959  13.325  0.00  0.00    +0.305 C 
BRANCH  22   4
ATOM      4  O   UNL     1     -12.826   6.408  13.297  0.00  0.00    -0.481 OA
ATOM     26  H   UNL     1     -12.725   5.701  13.969  0.00  0.00    +0.295 HD
ENDBRANCH  22   4
ENDBRANCH  19  22
ENDBRANCH  17  19
ENDBRANCH  16  17
TORSDOF 6
ENDMDL
