MODEL 1
REMARK VINA RESULT:      -6.7      0.000      0.000
REMARK  Name = 7673896
REMARK  8 active torsions:
REMARK  status: ('A' for Active; 'I' for Inactive)
REMARK    1  A    between atoms: N_7  and  C_22
REMARK    2  A    between atoms: N_8  and  C_20
REMARK    3  A    between atoms: N_9  and  C_26
REMARK    4  A    between atoms: N_9  and  C_30
REMARK    5  A    between atoms: N_9  and  C_31
REMARK    6  A    between atoms: C_23  and  C_26
REMARK    7  A    between atoms: C_29  and  C_32
REMARK    8  A    between atoms: C_32  and  C_33
REMARK                            x       y       z     vdW  Elec       q    Type
REMARK                         _______ _______ _______ _____ _____    ______ ____
ROOT
ATOM      1  O   UNL     1      -5.183 -13.965  15.929  0.00  0.00    -0.266 OA
ATOM      2  O   UNL     1      -9.012 -11.293  13.923  0.00  0.00    -0.252 OA
ATOM      5  N   UNL     1      -8.547 -10.316  15.965  0.00  0.00    -0.284 N 
ATOM      6  N   UNL     1      -6.091 -12.045  16.904  0.00  0.00    -0.310 N 
ATOM      7  N   UNL     1      -7.673  -9.398  13.977  0.00  0.00    -0.269 N 
ATOM     10  C   UNL     1      -8.479 -11.960  17.827  0.00  0.00    +0.027 C 
ATOM     11  C   UNL     1      -7.060  -9.948  17.912  0.00  0.00    +0.054 C 
ATOM     12  C   UNL     1      -7.928 -10.882  18.755  0.00  0.00    +0.018 C 
ATOM     13  C   UNL     1      -9.315 -11.328  16.695  0.00  0.00    +0.114 C 
ATOM     14  C   UNL     1      -7.304 -12.784  17.286  0.00  0.00    +0.130 C 
ATOM     15  C   UNL     1      -7.934  -9.290  16.826  0.00  0.00    +0.119 C 
ATOM     16  C   UNL     1      -5.916 -10.704  17.263  0.00  0.00    +0.027 A 
ATOM     17  C   UNL     1      -4.756 -10.080  16.999  0.00  0.00    +0.024 A 
ATOM     18  C   UNL     1      -5.082 -12.780  16.249  0.00  0.00    +0.273 A 
ATOM     19  C   UNL     1      -8.460 -10.391  14.559  0.00  0.00    +0.306 C 
ATOM     20  C   UNL     1      -3.815 -12.040  15.949  0.00  0.00    +0.099 A 
ATOM     21  C   UNL     1      -3.687 -10.763  16.327  0.00  0.00    +0.030 A 
ATOM     34  H   UNL     1      -7.609  -8.501  14.445  0.00  0.00    +0.156 HD
ENDROOT
BRANCH   7  22
ATOM     22  C   UNL     1      -6.919  -9.489  12.781  0.00  0.00    +0.035 A 
ATOM     24  C   UNL     1      -7.514  -9.185  11.557  0.00  0.00    +0.024 A 
ATOM     25  C   UNL     1      -5.582  -9.885  12.829  0.00  0.00    +0.024 A 
ATOM     27  C   UNL     1      -6.772  -9.276  10.380  0.00  0.00    +0.013 A 
ATOM     28  C   UNL     1      -4.840  -9.976  11.651  0.00  0.00    +0.013 A 
ATOM     29  C   UNL     1      -5.435  -9.671  10.427  0.00  0.00    +0.017 A 
BRANCH  29  32
ATOM      4  O   UNL     1      -3.960  -8.817   8.797  0.00  0.00    -0.292 OA
ATOM     32  C   UNL     1      -4.661  -9.766   9.199  0.00  0.00    +0.160 C 
ATOM     33  C   UNL     1      -4.694 -11.044   8.367  0.00  0.00    +0.091 C 
ENDBRANCH  29  32
ENDBRANCH   7  22
BRANCH  20   8
ATOM      3  O   UNL     1      -2.433 -11.167  13.601  0.00  0.00    -0.274 OA
ATOM      8  N   UNL     1      -2.820 -12.710  15.300  0.00  0.00    -0.280 N 
ATOM     23  C   UNL     1      -2.178 -12.229  14.166  0.00  0.00    +0.231 C 
ATOM     35  H   UNL     1      -2.708 -13.695  15.532  0.00  0.00    +0.155 HD
BRANCH  23  26
ATOM     26  C   UNL     1      -1.120 -13.197  13.675  0.00  0.00    +0.180 C 
BRANCH  26   9
ATOM      9  N   UNL     1      -1.737 -14.493  13.432  0.00  0.00    -0.300 NA
ATOM     30  C   UNL     1      -2.511 -14.472  12.188  0.00  0.00    +0.105 C 
ATOM     31  C   UNL     1      -0.721 -15.547  13.377  0.00  0.00    +0.105 C 
ENDBRANCH  26   9
ENDBRANCH  23  26
ENDBRANCH  20   8
TORSDOF 5
ENDMDL
MODEL 2
REMARK VINA RESULT:      -6.7      2.593      6.423
REMARK  Name = 7673896
REMARK  8 active torsions:
REMARK  status: ('A' for Active; 'I' for Inactive)
REMARK    1  A    between atoms: N_7  and  C_22
REMARK    2  A    between atoms: N_8  and  C_20
REMARK    3  A    between atoms: N_9  and  C_26
REMARK    4  A    between atoms: N_9  and  C_30
REMARK    5  A    between atoms: N_9  and  C_31
REMARK    6  A    between atoms: C_23  and  C_26
REMARK    7  A    between atoms: C_29  and  C_32
REMARK    8  A    between atoms: C_32  and  C_33
REMARK                            x       y       z     vdW  Elec       q    Type
REMARK                         _______ _______ _______ _____ _____    ______ ____
ROOT
ATOM      1  O   UNL     1      -8.538  -8.419  17.081  0.00  0.00    -0.266 OA
ATOM      2  O   UNL     1      -3.751 -10.044  16.559  0.00  0.00    -0.252 OA
ATOM      5  N   UNL     1      -4.954 -11.840  17.377  0.00  0.00    -0.284 N 
ATOM      6  N   UNL     1      -7.854 -10.621  17.465  0.00  0.00    -0.310 N 
ATOM      7  N   UNL     1      -4.498 -11.661  15.071  0.00  0.00    -0.269 N 
ATOM     10  C   UNL     1      -6.293 -11.268  19.390  0.00  0.00    +0.027 C 
ATOM     11  C   UNL     1      -7.098 -12.996  17.830  0.00  0.00    +0.054 C 
ATOM     12  C   UNL     1      -6.990 -12.622  19.308  0.00  0.00    +0.018 C 
ATOM     13  C   UNL     1      -4.891 -11.338  18.751  0.00  0.00    +0.114 C 
ATOM     14  C   UNL     1      -7.185 -10.220  18.711  0.00  0.00    +0.130 C 
ATOM     15  C   UNL     1      -5.681 -13.114  17.235  0.00  0.00    +0.119 C 
ATOM     16  C   UNL     1      -7.895 -11.960  17.061  0.00  0.00    +0.027 A 
ATOM     17  C   UNL     1      -8.603 -12.318  15.977  0.00  0.00    +0.024 A 
ATOM     18  C   UNL     1      -8.530  -9.607  16.755  0.00  0.00    +0.273 A 
ATOM     19  C   UNL     1      -4.340 -11.106  16.340  0.00  0.00    +0.306 C 
ATOM     20  C   UNL     1      -9.286 -10.044  15.538  0.00  0.00    +0.099 A 
ATOM     21  C   UNL     1      -9.310 -11.339  15.202  0.00  0.00    +0.030 A 
ATOM     34  H   UNL     1      -4.594 -12.667  14.994  0.00  0.00    +0.156 HD
ENDROOT
BRANCH   7  22
ATOM     22  C   UNL     1      -4.552 -10.973  13.833  0.00  0.00    +0.035 A 
ATOM     24  C   UNL     1      -5.712 -10.291  13.464  0.00  0.00    +0.024 A 
ATOM     25  C   UNL     1      -3.447 -10.982  12.982  0.00  0.00    +0.024 A 
ATOM     27  C   UNL     1      -5.765  -9.616  12.246  0.00  0.00    +0.013 A 
ATOM     28  C   UNL     1      -3.501 -10.307  11.762  0.00  0.00    +0.013 A 
ATOM     29  C   UNL     1      -4.660  -9.624  11.394  0.00  0.00    +0.017 A 
BRANCH  29  32
ATOM      4  O   UNL     1      -3.703  -8.787   9.407  0.00  0.00    -0.292 OA
ATOM     32  C   UNL     1      -4.716  -8.920  10.123  0.00  0.00    +0.160 C 
ATOM     33  C   UNL     1      -6.031  -8.320   9.634  0.00  0.00    +0.091 C 
ENDBRANCH  29  32
ENDBRANCH   7  22
BRANCH  20   8
ATOM      3  O   UNL     1     -12.017  -9.253  15.850  0.00  0.00    -0.274 OA
ATOM      8  N   UNL     1      -9.939  -9.091  14.814  0.00  0.00    -0.280 N 
ATOM     23  C   UNL     1     -11.269  -8.743  15.020  0.00  0.00    +0.231 C 
ATOM     35  H   UNL     1      -9.494  -8.791  13.950  0.00  0.00    +0.155 HD
BRANCH  23  26
ATOM     26  C   UNL     1     -11.710  -7.654  14.061  0.00  0.00    +0.180 C 
BRANCH  26   9
ATOM      9  N   UNL     1     -12.277  -6.551  14.821  0.00  0.00    -0.300 NA
ATOM     30  C   UNL     1     -11.252  -5.912  15.650  0.00  0.00    +0.105 C 
ATOM     31  C   UNL     1     -12.889  -5.566  13.926  0.00  0.00    +0.105 C 
ENDBRANCH  26   9
ENDBRANCH  23  26
ENDBRANCH  20   8
TORSDOF 5
ENDMDL
MODEL 3
REMARK VINA RESULT:      -6.6     25.031     27.970
REMARK  Name = 7673896
REMARK  8 active torsions:
REMARK  status: ('A' for Active; 'I' for Inactive)
REMARK    1  A    between atoms: N_7  and  C_22
REMARK    2  A    between atoms: N_8  and  C_20
REMARK    3  A    between atoms: N_9  and  C_26
REMARK    4  A    between atoms: N_9  and  C_30
REMARK    5  A    between atoms: N_9  and  C_31
REMARK    6  A    between atoms: C_23  and  C_26
REMARK    7  A    between atoms: C_29  and  C_32
REMARK    8  A    between atoms: C_32  and  C_33
REMARK                            x       y       z     vdW  Elec       q    Type
REMARK                         _______ _______ _______ _____ _____    ______ ____
ROOT
ATOM      1  O   UNL     1      10.122   7.507   1.209  0.00  0.00    -0.266 OA
ATOM      2  O   UNL     1      11.637   9.570   5.599  0.00  0.00    -0.252 OA
ATOM      5  N   UNL     1      10.371   7.720   6.161  0.00  0.00    -0.284 N 
ATOM      6  N   UNL     1       9.697   6.575   3.309  0.00  0.00    -0.310 N 
ATOM      7  N   UNL     1      12.724   7.586   6.117  0.00  0.00    -0.269 N 
ATOM     10  C   UNL     1       8.159   7.686   5.030  0.00  0.00    +0.027 C 
ATOM     11  C   UNL     1       9.289   5.568   5.583  0.00  0.00    +0.054 C 
ATOM     12  C   UNL     1       7.929   6.263   5.529  0.00  0.00    +0.018 C 
ATOM     13  C   UNL     1       9.112   8.446   5.974  0.00  0.00    +0.114 C 
ATOM     14  C   UNL     1       8.700   7.617   3.596  0.00  0.00    +0.130 C 
ATOM     15  C   UNL     1      10.200   6.316   6.576  0.00  0.00    +0.119 C 
ATOM     16  C   UNL     1       9.940   5.535   4.213  0.00  0.00    +0.027 A 
ATOM     17  C   UNL     1      10.774   4.534   3.884  0.00  0.00    +0.024 A 
ATOM     18  C   UNL     1      10.317   6.623   2.044  0.00  0.00    +0.273 A 
ATOM     19  C   UNL     1      11.596   8.386   5.946  0.00  0.00    +0.306 C 
ATOM     20  C   UNL     1      11.260   5.503   1.727  0.00  0.00    +0.099 A 
ATOM     21  C   UNL     1      11.447   4.522   2.616  0.00  0.00    +0.030 A 
ATOM     34  H   UNL     1      12.672   6.815   6.774  0.00  0.00    +0.156 HD
ENDROOT
BRANCH   7  22
ATOM     22  C   UNL     1      13.974   7.710   5.461  0.00  0.00    +0.035 A 
ATOM     24  C   UNL     1      14.095   7.354   4.118  0.00  0.00    +0.024 A 
ATOM     25  C   UNL     1      15.083   8.186   6.160  0.00  0.00    +0.024 A 
ATOM     27  C   UNL     1      15.325   7.475   3.473  0.00  0.00    +0.013 A 
ATOM     28  C   UNL     1      16.314   8.306   5.514  0.00  0.00    +0.013 A 
ATOM     29  C   UNL     1      16.435   7.951   4.171  0.00  0.00    +0.017 A 
BRANCH  29  32
ATOM      4  O   UNL     1      17.793   8.221   2.261  0.00  0.00    -0.292 OA
ATOM     32  C   UNL     1      17.718   8.077   3.498  0.00  0.00    +0.160 C 
ATOM     33  C   UNL     1      19.014   8.034   4.300  0.00  0.00    +0.091 C 
ENDBRANCH  29  32
ENDBRANCH   7  22
BRANCH  20   8
ATOM      3  O   UNL     1      10.360   4.250  -0.682  0.00  0.00    -0.274 OA
ATOM      8  N   UNL     1      11.894   5.523   0.520  0.00  0.00    -0.280 N 
ATOM     23  C   UNL     1      11.401   4.901  -0.621  0.00  0.00    +0.231 C 
ATOM     35  H   UNL     1      12.869   5.815   0.522  0.00  0.00    +0.155 HD
BRANCH  23  26
ATOM     26  C   UNL     1      12.328   5.099  -1.804  0.00  0.00    +0.180 C 
BRANCH  26   9
ATOM      9  N   UNL     1      13.187   3.932  -1.936  0.00  0.00    -0.300 NA
ATOM     30  C   UNL     1      12.825   3.154  -3.123  0.00  0.00    +0.105 C 
ATOM     31  C   UNL     1      14.595   4.332  -2.005  0.00  0.00    +0.105 C 
ENDBRANCH  26   9
ENDBRANCH  23  26
ENDBRANCH  20   8
TORSDOF 5
ENDMDL
MODEL 4
REMARK VINA RESULT:      -6.6     28.954     30.726
REMARK  Name = 7673896
REMARK  8 active torsions:
REMARK  status: ('A' for Active; 'I' for Inactive)
REMARK    1  A    between atoms: N_7  and  C_22
REMARK    2  A    between atoms: N_8  and  C_20
REMARK    3  A    between atoms: N_9  and  C_26
REMARK    4  A    between atoms: N_9  and  C_30
REMARK    5  A    between atoms: N_9  and  C_31
REMARK    6  A    between atoms: C_23  and  C_26
REMARK    7  A    between atoms: C_29  and  C_32
REMARK    8  A    between atoms: C_32  and  C_33
REMARK                            x       y       z     vdW  Elec       q    Type
REMARK                         _______ _______ _______ _____ _____    ______ ____
ROOT
ATOM      1  O   UNL     1      15.693   6.206  19.162  0.00  0.00    -0.266 OA
ATOM      2  O   UNL     1      14.995  10.733  16.961  0.00  0.00    -0.252 OA
ATOM      5  N   UNL     1      13.183  10.412  18.359  0.00  0.00    -0.284 N 
ATOM      6  N   UNL     1      13.933   7.655  19.677  0.00  0.00    -0.310 N 
ATOM      7  N   UNL     1      15.015  11.720  19.062  0.00  0.00    -0.269 N 
ATOM     10  C   UNL     1      12.072   8.217  18.009  0.00  0.00    +0.027 C 
ATOM     11  C   UNL     1      12.069   9.253  20.244  0.00  0.00    +0.054 C 
ATOM     12  C   UNL     1      11.224   8.451  19.255  0.00  0.00    +0.018 C 
ATOM     13  C   UNL     1      12.500   9.560  17.382  0.00  0.00    +0.114 C 
ATOM     14  C   UNL     1      13.277   7.351  18.396  0.00  0.00    +0.130 C 
ATOM     15  C   UNL     1      12.433  10.611  19.612  0.00  0.00    +0.119 C 
ATOM     16  C   UNL     1      13.334   8.502  20.615  0.00  0.00    +0.027 A 
ATOM     17  C   UNL     1      13.897   8.680  21.822  0.00  0.00    +0.024 A 
ATOM     18  C   UNL     1      15.138   6.975  19.948  0.00  0.00    +0.273 A 
ATOM     19  C   UNL     1      14.445  10.958  18.043  0.00  0.00    +0.306 C 
ATOM     20  C   UNL     1      15.747   7.221  21.294  0.00  0.00    +0.099 A 
ATOM     21  C   UNL     1      15.129   8.027  22.165  0.00  0.00    +0.030 A 
ATOM     34  H   UNL     1      14.396  12.204  19.702  0.00  0.00    +0.156 HD
ENDROOT
BRANCH   7  22
ATOM     22  C   UNL     1      16.394  11.902  19.331  0.00  0.00    +0.035 A 
ATOM     24  C   UNL     1      16.965  11.326  20.466  0.00  0.00    +0.024 A 
ATOM     25  C   UNL     1      17.179  12.659  18.462  0.00  0.00    +0.024 A 
ATOM     27  C   UNL     1      18.321  11.507  20.731  0.00  0.00    +0.013 A 
ATOM     28  C   UNL     1      18.537  12.840  18.728  0.00  0.00    +0.013 A 
ATOM     29  C   UNL     1      19.108  12.263  19.863  0.00  0.00    +0.017 A 
BRANCH  29  32
ATOM      4  O   UNL     1      21.287  11.480  20.313  0.00  0.00    -0.292 OA
ATOM     32  C   UNL     1      20.523  12.451  20.140  0.00  0.00    +0.160 C 
ATOM     33  C   UNL     1      21.109  13.857  20.227  0.00  0.00    +0.091 C 
ENDBRANCH  29  32
ENDBRANCH   7  22
BRANCH  20   8
ATOM      3  O   UNL     1      18.376   8.253  20.840  0.00  0.00    -0.274 OA
ATOM      8  N   UNL     1      16.923   6.596  21.588  0.00  0.00    -0.280 N 
ATOM     23  C   UNL     1      18.173   7.155  21.353  0.00  0.00    +0.231 C 
ATOM     35  H   UNL     1      16.873   5.598  21.779  0.00  0.00    +0.155 HD
BRANCH  23  26
ATOM     26  C   UNL     1      19.287   6.222  21.785  0.00  0.00    +0.180 C 
BRANCH  26   9
ATOM      9  N   UNL     1      20.258   6.109  20.708  0.00  0.00    -0.300 NA
ATOM     30  C   UNL     1      21.468   6.876  21.018  0.00  0.00    +0.105 C 
ATOM     31  C   UNL     1      20.600   4.705  20.464  0.00  0.00    +0.105 C 
ENDBRANCH  26   9
ENDBRANCH  23  26
ENDBRANCH  20   8
TORSDOF 5
ENDMDL
MODEL 5
REMARK VINA RESULT:      -6.5     28.991     31.144
REMARK  Name = 7673896
REMARK  8 active torsions:
REMARK  status: ('A' for Active; 'I' for Inactive)
REMARK    1  A    between atoms: N_7  and  C_22
REMARK    2  A    between atoms: N_8  and  C_20
REMARK    3  A    between atoms: N_9  and  C_26
REMARK    4  A    between atoms: N_9  and  C_30
REMARK    5  A    between atoms: N_9  and  C_31
REMARK    6  A    between atoms: C_23  and  C_26
REMARK    7  A    between atoms: C_29  and  C_32
REMARK    8  A    between atoms: C_32  and  C_33
REMARK                            x       y       z     vdW  Elec       q    Type
REMARK                         _______ _______ _______ _____ _____    ______ ____
ROOT
ATOM      1  O   UNL     1      13.569  11.069  21.943  0.00  0.00    -0.266 OA
ATOM      2  O   UNL     1      14.497   6.195  20.844  0.00  0.00    -0.252 OA
ATOM      5  N   UNL     1      13.791   7.175  18.874  0.00  0.00    -0.284 N 
ATOM      6  N   UNL     1      13.433  10.163  19.793  0.00  0.00    -0.310 N 
ATOM      7  N   UNL     1      16.091   6.881  19.302  0.00  0.00    -0.269 N 
ATOM     10  C   UNL     1      11.664   8.433  19.131  0.00  0.00    +0.027 C 
ATOM     11  C   UNL     1      13.336   9.171  17.479  0.00  0.00    +0.054 C 
ATOM     12  C   UNL     1      11.837   9.006  17.728  0.00  0.00    +0.018 C 
ATOM     13  C   UNL     1      12.380   7.073  19.255  0.00  0.00    +0.114 C 
ATOM     14  C   UNL     1      12.191   9.457  20.143  0.00  0.00    +0.130 C 
ATOM     15  C   UNL     1      14.015   7.789  17.553  0.00  0.00    +0.119 C 
ATOM     16  C   UNL     1      13.959  10.106  18.498  0.00  0.00    +0.027 A 
ATOM     17  C   UNL     1      15.033  10.844  18.171  0.00  0.00    +0.024 A 
ATOM     18  C   UNL     1      14.006  10.972  20.795  0.00  0.00    +0.273 A 
ATOM     19  C   UNL     1      14.785   6.696  19.754  0.00  0.00    +0.306 C 
ATOM     20  C   UNL     1      15.217  11.759  20.398  0.00  0.00    +0.099 A 
ATOM     21  C   UNL     1      15.673  11.685  19.143  0.00  0.00    +0.030 A 
ATOM     34  H   UNL     1      16.257   6.889  18.303  0.00  0.00    +0.156 HD
ENDROOT
BRANCH   7  22
ATOM     22  C   UNL     1      17.253   7.075  20.089  0.00  0.00    +0.035 A 
ATOM     24  C   UNL     1      17.395   8.236  20.850  0.00  0.00    +0.024 A 
ATOM     25  C   UNL     1      18.256   6.105  20.101  0.00  0.00    +0.024 A 
ATOM     27  C   UNL     1      18.539   8.427  21.622  0.00  0.00    +0.013 A 
ATOM     28  C   UNL     1      19.401   6.297  20.875  0.00  0.00    +0.013 A 
ATOM     29  C   UNL     1      19.543   7.458  21.636  0.00  0.00    +0.017 A 
BRANCH  29  32
ATOM      4  O   UNL     1      21.057   8.788  22.861  0.00  0.00    -0.292 OA
ATOM     32  C   UNL     1      20.736   7.657  22.442  0.00  0.00    +0.160 C 
ATOM     33  C   UNL     1      21.632   6.475  22.795  0.00  0.00    +0.091 C 
ENDBRANCH  29  32
ENDBRANCH   7  22
BRANCH  20   8
ATOM      3  O   UNL     1      14.582  14.485  20.988  0.00  0.00    -0.274 OA
ATOM      8  N   UNL     1      15.811  12.540  21.344  0.00  0.00    -0.280 N 
ATOM     23  C   UNL     1      15.452  13.860  21.592  0.00  0.00    +0.231 C 
ATOM     35  H   UNL     1      16.696  12.207  21.720  0.00  0.00    +0.155 HD
BRANCH  23  26
ATOM     26  C   UNL     1      16.292  14.464  22.699  0.00  0.00    +0.180 C 
BRANCH  26   9
ATOM      9  N   UNL     1      16.112  13.682  23.913  0.00  0.00    -0.300 NA
ATOM     30  C   UNL     1      17.225  13.903  24.841  0.00  0.00    +0.105 C 
ATOM     31  C   UNL     1      14.841  14.017  24.561  0.00  0.00    +0.105 C 
ENDBRANCH  26   9
ENDBRANCH  23  26
ENDBRANCH  20   8
TORSDOF 5
ENDMDL
MODEL 6
REMARK VINA RESULT:      -6.4     28.729     30.394
REMARK  Name = 7673896
REMARK  8 active torsions:
REMARK  status: ('A' for Active; 'I' for Inactive)
REMARK    1  A    between atoms: N_7  and  C_22
REMARK    2  A    between atoms: N_8  and  C_20
REMARK    3  A    between atoms: N_9  and  C_26
REMARK    4  A    between atoms: N_9  and  C_30
REMARK    5  A    between atoms: N_9  and  C_31
REMARK    6  A    between atoms: C_23  and  C_26
REMARK    7  A    between atoms: C_29  and  C_32
REMARK    8  A    between atoms: C_32  and  C_33
REMARK                            x       y       z     vdW  Elec       q    Type
REMARK                         _______ _______ _______ _____ _____    ______ ____
ROOT
ATOM      1  O   UNL     1      15.490   9.545  22.361  0.00  0.00    -0.266 OA
ATOM      2  O   UNL     1      14.377   7.436  17.874  0.00  0.00    -0.252 OA
ATOM      5  N   UNL     1      12.355   7.794  18.935  0.00  0.00    -0.284 N 
ATOM      6  N   UNL     1      13.315   9.213  21.574  0.00  0.00    -0.310 N 
ATOM      7  N   UNL     1      13.148   9.327  17.328  0.00  0.00    -0.269 N 
ATOM     10  C   UNL     1      12.304   6.883  21.246  0.00  0.00    +0.027 C 
ATOM     11  C   UNL     1      10.981   8.884  20.684  0.00  0.00    +0.054 C 
ATOM     12  C   UNL     1      10.972   7.584  21.489  0.00  0.00    +0.018 C 
ATOM     13  C   UNL     1      12.493   6.582  19.745  0.00  0.00    +0.114 C 
ATOM     14  C   UNL     1      13.428   7.765  21.803  0.00  0.00    +0.130 C 
ATOM     15  C   UNL     1      11.114   8.548  19.186  0.00  0.00    +0.119 C 
ATOM     16  C   UNL     1      12.123   9.784  21.113  0.00  0.00    +0.027 A 
ATOM     17  C   UNL     1      12.007  11.119  21.015  0.00  0.00    +0.024 A 
ATOM     18  C   UNL     1      14.428  10.000  21.935  0.00  0.00    +0.273 A 
ATOM     19  C   UNL     1      13.369   8.134  18.014  0.00  0.00    +0.306 C 
ATOM     20  C   UNL     1      14.267  11.481  21.785  0.00  0.00    +0.099 A 
ATOM     21  C   UNL     1      13.103  11.982  21.356  0.00  0.00    +0.030 A 
ATOM     34  H   UNL     1      12.190   9.614  17.160  0.00  0.00    +0.156 HD
ENDROOT
BRANCH   7  22
ATOM     22  C   UNL     1      14.123  10.225  16.827  0.00  0.00    +0.035 A 
ATOM     24  C   UNL     1      14.658  11.208  17.659  0.00  0.00    +0.024 A 
ATOM     25  C   UNL     1      14.545  10.125  15.501  0.00  0.00    +0.024 A 
ATOM     27  C   UNL     1      15.616  12.092  17.165  0.00  0.00    +0.013 A 
ATOM     28  C   UNL     1      15.504  11.010  15.008  0.00  0.00    +0.013 A 
ATOM     29  C   UNL     1      16.040  11.993  15.839  0.00  0.00    +0.017 A 
BRANCH  29  32
ATOM      4  O   UNL     1      16.916  13.452  14.205  0.00  0.00    -0.292 OA
ATOM     32  C   UNL     1      17.040  12.916  15.325  0.00  0.00    +0.160 C 
ATOM     33  C   UNL     1      18.277  13.248  16.152  0.00  0.00    +0.091 C 
ENDBRANCH  29  32
ENDBRANCH   7  22
BRANCH  20   8
ATOM      3  O   UNL     1      14.761  12.707  24.322  0.00  0.00    -0.274 OA
ATOM      8  N   UNL     1      15.327  12.276  22.105  0.00  0.00    -0.280 N 
ATOM     23  C   UNL     1      15.518  12.837  23.363  0.00  0.00    +0.231 C 
ATOM     35  H   UNL     1      15.870  12.647  21.329  0.00  0.00    +0.155 HD
BRANCH  23  26
ATOM     26  C   UNL     1      16.784  13.670  23.411  0.00  0.00    +0.180 C 
BRANCH  26   9
ATOM      9  N   UNL     1      17.871  12.920  22.800  0.00  0.00    -0.300 NA
ATOM     30  C   UNL     1      18.794  13.820  22.103  0.00  0.00    +0.105 C 
ATOM     31  C   UNL     1      18.592  12.139  23.809  0.00  0.00    +0.105 C 
ENDBRANCH  26   9
ENDBRANCH  23  26
ENDBRANCH  20   8
TORSDOF 5
ENDMDL
MODEL 7
REMARK VINA RESULT:      -6.1      2.862      5.434
REMARK  Name = 7673896
REMARK  8 active torsions:
REMARK  status: ('A' for Active; 'I' for Inactive)
REMARK    1  A    between atoms: N_7  and  C_22
REMARK    2  A    between atoms: N_8  and  C_20
REMARK    3  A    between atoms: N_9  and  C_26
REMARK    4  A    between atoms: N_9  and  C_30
REMARK    5  A    between atoms: N_9  and  C_31
REMARK    6  A    between atoms: C_23  and  C_26
REMARK    7  A    between atoms: C_29  and  C_32
REMARK    8  A    between atoms: C_32  and  C_33
REMARK                            x       y       z     vdW  Elec       q    Type
REMARK                         _______ _______ _______ _____ _____    ______ ____
ROOT
ATOM      1  O   UNL     1      -7.129 -13.076  14.362  0.00  0.00    -0.266 OA
ATOM      2  O   UNL     1      -9.741 -11.307  18.347  0.00  0.00    -0.252 OA
ATOM      5  N   UNL     1      -7.508 -10.994  18.851  0.00  0.00    -0.284 N 
ATOM      6  N   UNL     1      -6.152 -12.022  16.205  0.00  0.00    -0.310 N 
ATOM      7  N   UNL     1      -8.797  -9.216  17.994  0.00  0.00    -0.269 N 
ATOM     10  C   UNL     1      -6.152 -13.054  18.549  0.00  0.00    +0.027 C 
ATOM     11  C   UNL     1      -5.127 -10.844  18.182  0.00  0.00    +0.054 C 
ATOM     12  C   UNL     1      -4.877 -12.241  18.750  0.00  0.00    +0.018 C 
ATOM     13  C   UNL     1      -7.341 -12.388  19.270  0.00  0.00    +0.114 C 
ATOM     14  C   UNL     1      -6.401 -13.204  17.043  0.00  0.00    +0.130 C 
ATOM     15  C   UNL     1      -6.282 -10.183  18.960  0.00  0.00    +0.119 C 
ATOM     16  C   UNL     1      -5.470 -10.908  16.706  0.00  0.00    +0.027 A 
ATOM     17  C   UNL     1      -5.157  -9.884  15.894  0.00  0.00    +0.024 A 
ATOM     18  C   UNL     1      -6.544 -12.110  14.853  0.00  0.00    +0.273 A 
ATOM     19  C   UNL     1      -8.768 -10.549  18.401  0.00  0.00    +0.306 C 
ATOM     20  C   UNL     1      -6.200 -10.937  13.988  0.00  0.00    +0.099 A 
ATOM     21  C   UNL     1      -5.532  -9.902  14.508  0.00  0.00    +0.030 A 
ATOM     34  H   UNL     1      -8.154  -8.566  18.431  0.00  0.00    +0.156 HD
ENDROOT
BRANCH   7  22
ATOM     22  C   UNL     1      -9.632  -8.637  17.006  0.00  0.00    +0.035 A 
ATOM     24  C   UNL     1     -10.534  -7.633  17.357  0.00  0.00    +0.024 A 
ATOM     25  C   UNL     1      -9.552  -9.074  15.684  0.00  0.00    +0.024 A 
ATOM     27  C   UNL     1     -11.356  -7.064  16.385  0.00  0.00    +0.013 A 
ATOM     28  C   UNL     1     -10.376  -8.504  14.712  0.00  0.00    +0.013 A 
ATOM     29  C   UNL     1     -11.277  -7.500  15.062  0.00  0.00    +0.017 A 
BRANCH  29  32
ATOM      4  O   UNL     1     -12.462  -7.536  13.023  0.00  0.00    -0.292 OA
ATOM     32  C   UNL     1     -12.135  -6.906  14.049  0.00  0.00    +0.160 C 
ATOM     33  C   UNL     1     -12.657  -5.484  14.220  0.00  0.00    +0.091 C 
ENDBRANCH  29  32
ENDBRANCH   7  22
BRANCH  20   8
ATOM      3  O   UNL     1      -4.517 -11.535  11.753  0.00  0.00    -0.274 OA
ATOM      8  N   UNL     1      -6.578 -10.975  12.678  0.00  0.00    -0.280 N 
ATOM     23  C   UNL     1      -5.714 -11.283  11.634  0.00  0.00    +0.231 C 
ATOM     35  H   UNL     1      -7.471 -10.544  12.449  0.00  0.00    +0.155 HD
BRANCH  23  26
ATOM     26  C   UNL     1      -6.426 -11.244  10.296  0.00  0.00    +0.180 C 
BRANCH  26   9
ATOM      9  N   UNL     1      -5.614 -10.499   9.346  0.00  0.00    -0.300 NA
ATOM     30  C   UNL     1      -5.795 -11.022   7.989  0.00  0.00    +0.105 C 
ATOM     31  C   UNL     1      -5.948  -9.073   9.386  0.00  0.00    +0.105 C 
ENDBRANCH  26   9
ENDBRANCH  23  26
ENDBRANCH  20   8
TORSDOF 5
ENDMDL
MODEL 8
REMARK VINA RESULT:      -6.1      1.908      2.482
REMARK  Name = 7673896
REMARK  8 active torsions:
REMARK  status: ('A' for Active; 'I' for Inactive)
REMARK    1  A    between atoms: N_7  and  C_22
REMARK    2  A    between atoms: N_8  and  C_20
REMARK    3  A    between atoms: N_9  and  C_26
REMARK    4  A    between atoms: N_9  and  C_30
REMARK    5  A    between atoms: N_9  and  C_31
REMARK    6  A    between atoms: C_23  and  C_26
REMARK    7  A    between atoms: C_29  and  C_32
REMARK    8  A    between atoms: C_32  and  C_33
REMARK                            x       y       z     vdW  Elec       q    Type
REMARK                         _______ _______ _______ _____ _____    ______ ____
ROOT
ATOM      1  O   UNL     1      -7.131 -15.043  16.492  0.00  0.00    -0.266 OA
ATOM      2  O   UNL     1      -8.892 -10.747  14.425  0.00  0.00    -0.252 OA
ATOM      5  N   UNL     1      -8.724 -10.346  16.694  0.00  0.00    -0.284 N 
ATOM      6  N   UNL     1      -7.497 -13.068  17.688  0.00  0.00    -0.310 N 
ATOM      7  N   UNL     1      -7.021  -9.633  15.228  0.00  0.00    -0.269 N 
ATOM     10  C   UNL     1      -9.835 -12.094  18.067  0.00  0.00    +0.027 C 
ATOM     11  C   UNL     1      -7.858 -10.915  18.945  0.00  0.00    +0.054 C 
ATOM     12  C   UNL     1      -9.222 -11.491  19.326  0.00  0.00    +0.018 C 
ATOM     13  C   UNL     1      -9.995 -11.020  16.972  0.00  0.00    +0.114 C 
ATOM     14  C   UNL     1      -8.952 -13.261  17.607  0.00  0.00    +0.130 C 
ATOM     15  C   UNL     1      -8.056  -9.807  17.892  0.00  0.00    +0.119 C 
ATOM     16  C   UNL     1      -6.945 -11.993  18.393  0.00  0.00    +0.027 A 
ATOM     17  C   UNL     1      -5.614 -11.895  18.546  0.00  0.00    +0.024 A 
ATOM     18  C   UNL     1      -6.692 -14.069  17.106  0.00  0.00    +0.273 A 
ATOM     19  C   UNL     1      -8.257 -10.262  15.366  0.00  0.00    +0.306 C 
ATOM     20  C   UNL     1      -5.213 -13.910  17.277  0.00  0.00    +0.099 A 
ATOM     21  C   UNL     1      -4.733 -12.874  17.974  0.00  0.00    +0.030 A 
ATOM     34  H   UNL     1      -6.766  -8.921  15.903  0.00  0.00    +0.156 HD
ENDROOT
BRANCH   7  22
ATOM     22  C   UNL     1      -6.037  -9.877  14.238  0.00  0.00    +0.035 A 
ATOM     24  C   UNL     1      -4.829 -10.478  14.588  0.00  0.00    +0.024 A 
ATOM     25  C   UNL     1      -6.278  -9.513  12.913  0.00  0.00    +0.024 A 
ATOM     27  C   UNL     1      -3.861 -10.716  13.614  0.00  0.00    +0.013 A 
ATOM     28  C   UNL     1      -5.309  -9.751  11.938  0.00  0.00    +0.013 A 
ATOM     29  C   UNL     1      -4.100 -10.353  12.288  0.00  0.00    +0.017 A 
BRANCH  29  32
ATOM      4  O   UNL     1      -3.227 -11.510  10.427  0.00  0.00    -0.292 OA
ATOM     32  C   UNL     1      -3.091 -10.602  11.272  0.00  0.00    +0.160 C 
ATOM     33  C   UNL     1      -1.828  -9.748  11.217  0.00  0.00    +0.091 C 
ENDBRANCH  29  32
ENDBRANCH   7  22
BRANCH  20   8
ATOM      3  O   UNL     1      -4.348 -13.988  14.551  0.00  0.00    -0.274 OA
ATOM      8  N   UNL     1      -4.399 -14.848  16.713  0.00  0.00    -0.280 N 
ATOM     23  C   UNL     1      -4.004 -14.827  15.381  0.00  0.00    +0.231 C 
ATOM     35  H   UNL     1      -4.264 -15.709  17.238  0.00  0.00    +0.155 HD
BRANCH  23  26
ATOM     26  C   UNL     1      -3.102 -15.999  15.052  0.00  0.00    +0.180 C 
BRANCH  26   9
ATOM      9  N   UNL     1      -2.467 -15.766  13.763  0.00  0.00    -0.300 NA
ATOM     30  C   UNL     1      -1.010 -15.860  13.879  0.00  0.00    +0.105 C 
ATOM     31  C   UNL     1      -2.957 -16.719  12.765  0.00  0.00    +0.105 C 
ENDBRANCH  26   9
ENDBRANCH  23  26
ENDBRANCH  20   8
TORSDOF 5
ENDMDL
MODEL 9
REMARK VINA RESULT:      -6.0     20.446     23.714
REMARK  Name = 7673896
REMARK  8 active torsions:
REMARK  status: ('A' for Active; 'I' for Inactive)
REMARK    1  A    between atoms: N_7  and  C_22
REMARK    2  A    between atoms: N_8  and  C_20
REMARK    3  A    between atoms: N_9  and  C_26
REMARK    4  A    between atoms: N_9  and  C_30
REMARK    5  A    between atoms: N_9  and  C_31
REMARK    6  A    between atoms: C_23  and  C_26
REMARK    7  A    between atoms: C_29  and  C_32
REMARK    8  A    between atoms: C_32  and  C_33
REMARK                            x       y       z     vdW  Elec       q    Type
REMARK                         _______ _______ _______ _____ _____    ______ ____
ROOT
ATOM      1  O   UNL     1      -6.481  10.277   5.750  0.00  0.00    -0.266 OA
ATOM      2  O   UNL     1      -2.723  12.326   3.010  0.00  0.00    -0.252 OA
ATOM      5  N   UNL     1      -1.731  10.764   4.395  0.00  0.00    -0.284 N 
ATOM      6  N   UNL     1      -4.255   9.570   5.846  0.00  0.00    -0.310 N 
ATOM      7  N   UNL     1      -2.241  10.221   2.158  0.00  0.00    -0.269 N 
ATOM     10  C   UNL     1      -2.377  11.041   6.779  0.00  0.00    +0.027 C 
ATOM     11  C   UNL     1      -1.857   8.799   5.898  0.00  0.00    +0.054 C 
ATOM     12  C   UNL     1      -1.701   9.715   7.113  0.00  0.00    +0.018 C 
ATOM     13  C   UNL     1      -1.728  11.684   5.536  0.00  0.00    +0.114 C 
ATOM     14  C   UNL     1      -3.876  10.786   6.581  0.00  0.00    +0.130 C 
ATOM     15  C   UNL     1      -1.151   9.441   4.688  0.00  0.00    +0.119 C 
ATOM     16  C   UNL     1      -3.320   8.565   5.576  0.00  0.00    +0.027 A 
ATOM     17  C   UNL     1      -3.711   7.415   5.000  0.00  0.00    +0.024 A 
ATOM     18  C   UNL     1      -5.619   9.428   5.517  0.00  0.00    +0.273 A 
ATOM     19  C   UNL     1      -2.257  11.193   3.159  0.00  0.00    +0.306 C 
ATOM     20  C   UNL     1      -6.008   8.144   4.852  0.00  0.00    +0.099 A 
ATOM     21  C   UNL     1      -5.082   7.204   4.630  0.00  0.00    +0.030 A 
ATOM     34  H   UNL     1      -1.514   9.516   2.185  0.00  0.00    +0.156 HD
ENDROOT
BRANCH   7  22
ATOM     22  C   UNL     1      -3.148  10.084   1.079  0.00  0.00    +0.035 A 
ATOM     24  C   UNL     1      -4.517  10.249   1.292  0.00  0.00    +0.024 A 
ATOM     25  C   UNL     1      -2.672   9.782  -0.197  0.00  0.00    +0.024 A 
ATOM     27  C   UNL     1      -5.409  10.112   0.230  0.00  0.00    +0.013 A 
ATOM     28  C   UNL     1      -3.565   9.645  -1.260  0.00  0.00    +0.013 A 
ATOM     29  C   UNL     1      -4.934   9.811  -1.047  0.00  0.00    +0.017 A 
BRANCH  29  32
ATOM      4  O   UNL     1      -6.737   8.776  -2.162  0.00  0.00    -0.292 OA
ATOM     32  C   UNL     1      -5.864   9.668  -2.155  0.00  0.00    +0.160 C 
ATOM     33  C   UNL     1      -5.792  10.617  -3.347  0.00  0.00    +0.091 C 
ENDBRANCH  29  32
ENDBRANCH   7  22
BRANCH  20   8
ATOM      3  O   UNL     1      -7.830   6.242   5.967  0.00  0.00    -0.274 OA
ATOM      8  N   UNL     1      -7.315   7.975   4.501  0.00  0.00    -0.280 N 
ATOM     23  C   UNL     1      -8.156   7.037   5.088  0.00  0.00    +0.231 C 
ATOM     35  H   UNL     1      -7.611   8.401   3.626  0.00  0.00    +0.155 HD
BRANCH  23  26
ATOM     26  C   UNL     1      -9.547   7.088   4.488  0.00  0.00    +0.180 C 
BRANCH  26   9
ATOM      9  N   UNL     1     -10.141   5.761   4.547  0.00  0.00    -0.300 NA
ATOM     30  C   UNL     1     -11.531   5.836   5.006  0.00  0.00    +0.105 C 
ATOM     31  C   UNL     1     -10.076   5.106   3.238  0.00  0.00    +0.105 C 
ENDBRANCH  26   9
ENDBRANCH  23  26
ENDBRANCH  20   8
TORSDOF 5
ENDMDL
MODEL 10
REMARK VINA RESULT:      -6.0      2.322      7.795
REMARK  Name = 7673896
REMARK  8 active torsions:
REMARK  status: ('A' for Active; 'I' for Inactive)
REMARK    1  A    between atoms: N_7  and  C_22
REMARK    2  A    between atoms: N_8  and  C_20
REMARK    3  A    between atoms: N_9  and  C_26
REMARK    4  A    between atoms: N_9  and  C_30
REMARK    5  A    between atoms: N_9  and  C_31
REMARK    6  A    between atoms: C_23  and  C_26
REMARK    7  A    between atoms: C_29  and  C_32
REMARK    8  A    between atoms: C_32  and  C_33
REMARK                            x       y       z     vdW  Elec       q    Type
REMARK                         _______ _______ _______ _____ _____    ______ ____
ROOT
ATOM      1  O   UNL     1      -7.669 -13.031  11.977  0.00  0.00    -0.266 OA
ATOM      2  O   UNL     1      -3.162 -12.865  14.320  0.00  0.00    -0.252 OA
ATOM      5  N   UNL     1      -3.051 -11.322  12.603  0.00  0.00    -0.284 N 
ATOM      6  N   UNL     1      -5.965 -11.526  11.434  0.00  0.00    -0.310 N 
ATOM      7  N   UNL     1      -3.533 -10.625  14.803  0.00  0.00    -0.269 N 
ATOM     10  C   UNL     1      -3.738 -12.269  10.410  0.00  0.00    +0.027 C 
ATOM     11  C   UNL     1      -4.130  -9.886  10.897  0.00  0.00    +0.054 C 
ATOM     12  C   UNL     1      -3.716 -10.870   9.803  0.00  0.00    +0.018 C 
ATOM     13  C   UNL     1      -2.768 -12.358  11.606  0.00  0.00    +0.114 C 
ATOM     14  C   UNL     1      -5.180 -12.603  10.812  0.00  0.00    +0.130 C 
ATOM     15  C   UNL     1      -3.111  -9.957  12.052  0.00  0.00    +0.119 C 
ATOM     16  C   UNL     1      -5.519 -10.200  11.417  0.00  0.00    +0.027 A 
ATOM     17  C   UNL     1      -6.301  -9.217  11.895  0.00  0.00    +0.024 A 
ATOM     18  C   UNL     1      -7.226 -11.882  11.957  0.00  0.00    +0.273 A 
ATOM     19  C   UNL     1      -3.232 -11.689  13.953  0.00  0.00    +0.306 C 
ATOM     20  C   UNL     1      -8.055 -10.761  12.503  0.00  0.00    +0.099 A 
ATOM     21  C   UNL     1      -7.594  -9.507  12.449  0.00  0.00    +0.030 A 
ATOM     34  H   UNL     1      -3.176  -9.706  14.568  0.00  0.00    +0.156 HD
ENDROOT
BRANCH   7  22
ATOM     22  C   UNL     1      -4.310 -10.665  15.988  0.00  0.00    +0.035 A 
ATOM     24  C   UNL     1      -3.804 -11.279  17.133  0.00  0.00    +0.024 A 
ATOM     25  C   UNL     1      -5.581 -10.091  16.006  0.00  0.00    +0.024 A 
ATOM     27  C   UNL     1      -4.569 -11.319  18.298  0.00  0.00    +0.013 A 
ATOM     28  C   UNL     1      -6.347 -10.132  17.172  0.00  0.00    +0.013 A 
ATOM     29  C   UNL     1      -5.840 -10.746  18.318  0.00  0.00    +0.017 A 
BRANCH  29  32
ATOM      4  O   UNL     1      -6.107 -10.759  20.662  0.00  0.00    -0.292 OA
ATOM     32  C   UNL     1      -6.638 -10.788  19.533  0.00  0.00    +0.160 C 
ATOM     33  C   UNL     1      -8.159 -10.870  19.452  0.00  0.00    +0.091 C 
ENDBRANCH  29  32
ENDBRANCH   7  22
BRANCH  20   8
ATOM      3  O   UNL     1      -8.560 -11.708  15.155  0.00  0.00    -0.274 OA
ATOM      8  N   UNL     1      -9.273 -11.067  13.034  0.00  0.00    -0.280 N 
ATOM     23  C   UNL     1      -9.457 -11.515  14.337  0.00  0.00    +0.231 C 
ATOM     35  H   UNL     1     -10.042 -11.181  12.377  0.00  0.00    +0.155 HD
BRANCH  23  26
ATOM     26  C   UNL     1     -10.921 -11.769  14.634  0.00  0.00    +0.180 C 
BRANCH  26   9
ATOM      9  N   UNL     1     -11.396 -10.770  15.579  0.00  0.00    -0.300 NA
ATOM     30  C   UNL     1     -12.346  -9.859  14.936  0.00  0.00    +0.105 C 
ATOM     31  C   UNL     1     -12.020 -11.412  16.740  0.00  0.00    +0.105 C 
ENDBRANCH  26   9
ENDBRANCH  23  26
ENDBRANCH  20   8
TORSDOF 5
ENDMDL
