MODEL 1
REMARK VINA RESULT:      -7.6      0.000      0.000
REMARK  Name = 75536104
REMARK  10 active torsions:
REMARK  status: ('A' for Active; 'I' for Inactive)
REMARK    1  A    between atoms: O_1  and  C_8
REMARK    2  A    between atoms: O_2  and  C_10
REMARK    3  A    between atoms: O_3  and  C_18
REMARK    4  A    between atoms: O_3  and  C_24
REMARK    5  A    between atoms: O_4  and  C_21
REMARK    6  A    between atoms: O_4  and  C_25
REMARK    7  A    between atoms: N_5  and  C_6
REMARK    8  A    between atoms: N_5  and  C_12
REMARK    9  A    between atoms: C_7  and  C_11
REMARK   10  A    between atoms: C_12  and  C_15
REMARK                            x       y       z     vdW  Elec       q    Type
REMARK                         _______ _______ _______ _____ _____    ______ ____
ROOT
ATOM      6  C   UNL     1      13.302   7.167  20.866  0.00  0.00    +0.092 C 
ATOM      7  C   UNL     1      12.811   8.575  20.408  0.00  0.00    +0.041 C 
ATOM      8  C   UNL     1      12.040   6.442  21.360  0.00  0.00    +0.160 C 
ATOM      9  C   UNL     1      11.294   8.599  20.677  0.00  0.00    +0.043 C 
ATOM     10  C   UNL     1      11.109   7.573  21.787  0.00  0.00    +0.145 C 
ENDROOT
BRANCH   7  11
ATOM     11  C   UNL     1      13.169   8.919  18.979  0.00  0.00    -0.042 A 
ATOM     13  C   UNL     1      13.289   7.906  18.027  0.00  0.00    +0.007 A 
ATOM     14  C   UNL     1      13.379  10.249  18.613  0.00  0.00    +0.007 A 
ATOM     16  C   UNL     1      13.619   8.222  16.709  0.00  0.00    +0.046 A 
ATOM     17  C   UNL     1      13.709  10.565  17.295  0.00  0.00    +0.046 A 
ATOM     18  C   UNL     1      13.829   9.552  16.343  0.00  0.00    +0.120 A 
BRANCH  18   3
ATOM      3  O   UNL     1      14.151   9.861  15.058  0.00  0.00    -0.495 OA
ATOM     24  C   UNL     1      15.122  10.886  14.860  0.00  0.00    +0.277 C 
ENDBRANCH  18   3
ENDBRANCH   7  11
BRANCH   8   1
ATOM      1  O   UNL     1      11.482   5.713  20.268  0.00  0.00    -0.388 OA
ATOM     27  H   UNL     1      12.205   5.522  19.646  0.00  0.00    +0.210 HD
ENDBRANCH   8   1
BRANCH  10   2
ATOM      2  O   UNL     1       9.761   7.160  21.889  0.00  0.00    -0.389 OA
ATOM     28  H   UNL     1       9.343   7.696  22.585  0.00  0.00    +0.210 HD
ENDBRANCH  10   2
BRANCH   6   5
ATOM      5  N   UNL     1      14.256   7.313  21.967  0.00  0.00    -0.306 NA
ATOM     26  H   UNL     1      14.585   6.390  22.252  0.00  0.00    +0.123 HD
BRANCH   5  12
ATOM     12  C   UNL     1      15.404   8.109  21.558  0.00  0.00    +0.116 C 
BRANCH  12  15
ATOM     15  C   UNL     1      16.446   7.273  20.862  0.00  0.00    -0.030 A 
ATOM     19  C   UNL     1      17.727   7.164  21.402  0.00  0.00    +0.050 A 
ATOM     20  C   UNL     1      16.128   6.608  19.678  0.00  0.00    +0.005 A 
ATOM     21  C   UNL     1      18.692   6.390  20.757  0.00  0.00    +0.120 A 
ATOM     22  C   UNL     1      17.093   5.834  19.033  0.00  0.00    +0.004 A 
ATOM     23  C   UNL     1      18.375   5.725  19.572  0.00  0.00    +0.045 A 
BRANCH  21   4
ATOM      4  O   UNL     1      19.943   6.284  21.284  0.00  0.00    -0.495 OA
ATOM     25  C   UNL     1      20.653   7.498  21.518  0.00  0.00    +0.277 C 
ENDBRANCH  21   4
ENDBRANCH  12  15
ENDBRANCH   5  12
ENDBRANCH   6   5
TORSDOF 8
ENDMDL
MODEL 2
REMARK VINA RESULT:      -7.5      2.973      6.805
REMARK  Name = 75536104
REMARK  10 active torsions:
REMARK  status: ('A' for Active; 'I' for Inactive)
REMARK    1  A    between atoms: O_1  and  C_8
REMARK    2  A    between atoms: O_2  and  C_10
REMARK    3  A    between atoms: O_3  and  C_18
REMARK    4  A    between atoms: O_3  and  C_24
REMARK    5  A    between atoms: O_4  and  C_21
REMARK    6  A    between atoms: O_4  and  C_25
REMARK    7  A    between atoms: N_5  and  C_6
REMARK    8  A    between atoms: N_5  and  C_12
REMARK    9  A    between atoms: C_7  and  C_11
REMARK   10  A    between atoms: C_12  and  C_15
REMARK                            x       y       z     vdW  Elec       q    Type
REMARK                         _______ _______ _______ _____ _____    ______ ____
ROOT
ATOM      6  C   UNL     1      13.275   7.568  21.174  0.00  0.00    +0.092 C 
ATOM      7  C   UNL     1      14.329   8.188  20.205  0.00  0.00    +0.041 C 
ATOM      8  C   UNL     1      12.026   7.331  20.310  0.00  0.00    +0.160 C 
ATOM      9  C   UNL     1      13.631   8.294  18.836  0.00  0.00    +0.043 C 
ATOM     10  C   UNL     1      12.152   8.360  19.191  0.00  0.00    +0.145 C 
ENDROOT
BRANCH   7  11
ATOM     11  C   UNL     1      15.638   7.431  20.151  0.00  0.00    -0.042 A 
ATOM     13  C   UNL     1      16.574   7.582  21.174  0.00  0.00    +0.007 A 
ATOM     14  C   UNL     1      15.908   6.580  19.079  0.00  0.00    +0.007 A 
ATOM     16  C   UNL     1      17.781   6.884  21.125  0.00  0.00    +0.046 A 
ATOM     17  C   UNL     1      17.114   5.881  19.030  0.00  0.00    +0.046 A 
ATOM     18  C   UNL     1      18.051   6.033  20.053  0.00  0.00    +0.120 A 
BRANCH  18   3
ATOM      3  O   UNL     1      19.228   5.352  20.004  0.00  0.00    -0.495 OA
ATOM     24  C   UNL     1      20.330   5.908  20.719  0.00  0.00    +0.277 C 
ENDBRANCH  18   3
ENDBRANCH   7  11
BRANCH   8   1
ATOM      1  O   UNL     1      12.086   6.005  19.787  0.00  0.00    -0.388 OA
ATOM     27  H   UNL     1      11.568   5.992  18.965  0.00  0.00    +0.210 HD
ENDBRANCH   8   1
BRANCH  10   2
ATOM      2  O   UNL     1      11.339   8.054  18.076  0.00  0.00    -0.389 OA
ATOM     28  H   UNL     1      11.349   7.088  17.963  0.00  0.00    +0.210 HD
ENDBRANCH  10   2
BRANCH   6   5
ATOM      5  N   UNL     1      12.969   8.523  22.242  0.00  0.00    -0.306 NA
ATOM     26  H   UNL     1      13.503   9.379  22.090  0.00  0.00    +0.123 HD
BRANCH   5  12
ATOM     12  C   UNL     1      11.552   8.854  22.250  0.00  0.00    +0.116 C 
BRANCH  12  15
ATOM     15  C   UNL     1      11.318  10.308  22.566  0.00  0.00    -0.030 A 
ATOM     19  C   UNL     1      10.986  10.697  23.863  0.00  0.00    +0.050 A 
ATOM     20  C   UNL     1      11.434  11.267  21.558  0.00  0.00    +0.005 A 
ATOM     21  C   UNL     1      10.769  12.044  24.155  0.00  0.00    +0.120 A 
ATOM     22  C   UNL     1      11.218  12.614  21.850  0.00  0.00    +0.004 A 
ATOM     23  C   UNL     1      10.885  13.002  23.148  0.00  0.00    +0.045 A 
BRANCH  21   4
ATOM      4  O   UNL     1      10.445  12.422  25.421  0.00  0.00    -0.495 OA
ATOM     25  C   UNL     1      10.519  13.815  25.722  0.00  0.00    +0.277 C 
ENDBRANCH  21   4
ENDBRANCH  12  15
ENDBRANCH   5  12
ENDBRANCH   6   5
TORSDOF 8
ENDMDL
MODEL 3
REMARK VINA RESULT:      -6.7      2.957      6.554
REMARK  Name = 75536104
REMARK  10 active torsions:
REMARK  status: ('A' for Active; 'I' for Inactive)
REMARK    1  A    between atoms: O_1  and  C_8
REMARK    2  A    between atoms: O_2  and  C_10
REMARK    3  A    between atoms: O_3  and  C_18
REMARK    4  A    between atoms: O_3  and  C_24
REMARK    5  A    between atoms: O_4  and  C_21
REMARK    6  A    between atoms: O_4  and  C_25
REMARK    7  A    between atoms: N_5  and  C_6
REMARK    8  A    between atoms: N_5  and  C_12
REMARK    9  A    between atoms: C_7  and  C_11
REMARK   10  A    between atoms: C_12  and  C_15
REMARK                            x       y       z     vdW  Elec       q    Type
REMARK                         _______ _______ _______ _____ _____    ______ ____
ROOT
ATOM      6  C   UNL     1      13.068   7.663  21.205  0.00  0.00    +0.092 C 
ATOM      7  C   UNL     1      14.101   8.354  20.262  0.00  0.00    +0.041 C 
ATOM      8  C   UNL     1      11.843   7.377  20.321  0.00  0.00    +0.160 C 
ATOM      9  C   UNL     1      13.415   8.448  18.885  0.00  0.00    +0.043 C 
ATOM     10  C   UNL     1      11.930   8.431  19.222  0.00  0.00    +0.145 C 
ENDROOT
BRANCH   7  11
ATOM     11  C   UNL     1      15.447   7.666  20.211  0.00  0.00    -0.042 A 
ATOM     13  C   UNL     1      15.683   6.663  19.271  0.00  0.00    +0.007 A 
ATOM     14  C   UNL     1      16.454   8.035  21.104  0.00  0.00    +0.007 A 
ATOM     16  C   UNL     1      16.924   6.028  19.224  0.00  0.00    +0.046 A 
ATOM     17  C   UNL     1      17.695   7.400  21.057  0.00  0.00    +0.046 A 
ATOM     18  C   UNL     1      17.930   6.397  20.117  0.00  0.00    +0.120 A 
BRANCH  18   3
ATOM      3  O   UNL     1      19.141   5.777  20.071  0.00  0.00    -0.495 OA
ATOM     24  C   UNL     1      20.217   6.402  20.770  0.00  0.00    +0.277 C 
ENDBRANCH  18   3
ENDBRANCH   7  11
BRANCH   8   1
ATOM      1  O   UNL     1      11.979   6.066  19.776  0.00  0.00    -0.388 OA
ATOM     27  H   UNL     1      12.886   5.768  19.956  0.00  0.00    +0.210 HD
ENDBRANCH   8   1
BRANCH  10   2
ATOM      2  O   UNL     1      11.148   8.104  18.091  0.00  0.00    -0.389 OA
ATOM     28  H   UNL     1      11.705   8.229  17.304  0.00  0.00    +0.210 HD
ENDBRANCH  10   2
BRANCH   6   5
ATOM      5  N   UNL     1      12.700   8.581  22.285  0.00  0.00    -0.306 NA
ATOM     26  H   UNL     1      12.938   8.157  23.183  0.00  0.00    +0.123 HD
BRANCH   5  12
ATOM     12  C   UNL     1      13.417   9.841  22.163  0.00  0.00    +0.116 C 
BRANCH  12  15
ATOM     15  C   UNL     1      12.492  11.026  22.269  0.00  0.00    -0.030 A 
ATOM     19  C   UNL     1      12.374  11.917  21.203  0.00  0.00    +0.050 A 
ATOM     20  C   UNL     1      11.753  11.229  23.435  0.00  0.00    +0.005 A 
ATOM     21  C   UNL     1      11.517  13.013  21.302  0.00  0.00    +0.120 A 
ATOM     22  C   UNL     1      10.896  12.326  23.533  0.00  0.00    +0.004 A 
ATOM     23  C   UNL     1      10.779  13.218  22.468  0.00  0.00    +0.045 A 
BRANCH  21   4
ATOM      4  O   UNL     1      11.403  13.883  20.261  0.00  0.00    -0.495 OA
ATOM     25  C   UNL     1      11.340  15.272  20.581  0.00  0.00    +0.277 C 
ENDBRANCH  21   4
ENDBRANCH  12  15
ENDBRANCH   5  12
ENDBRANCH   6   5
TORSDOF 8
ENDMDL
MODEL 4
REMARK VINA RESULT:      -6.6      1.555      5.812
REMARK  Name = 75536104
REMARK  10 active torsions:
REMARK  status: ('A' for Active; 'I' for Inactive)
REMARK    1  A    between atoms: O_1  and  C_8
REMARK    2  A    between atoms: O_2  and  C_10
REMARK    3  A    between atoms: O_3  and  C_18
REMARK    4  A    between atoms: O_3  and  C_24
REMARK    5  A    between atoms: O_4  and  C_21
REMARK    6  A    between atoms: O_4  and  C_25
REMARK    7  A    between atoms: N_5  and  C_6
REMARK    8  A    between atoms: N_5  and  C_12
REMARK    9  A    between atoms: C_7  and  C_11
REMARK   10  A    between atoms: C_12  and  C_15
REMARK                            x       y       z     vdW  Elec       q    Type
REMARK                         _______ _______ _______ _____ _____    ______ ____
ROOT
ATOM      6  C   UNL     1      13.010   9.389  20.743  0.00  0.00    +0.092 C 
ATOM      7  C   UNL     1      13.279   8.121  19.875  0.00  0.00    +0.041 C 
ATOM      8  C   UNL     1      11.722   9.077  21.523  0.00  0.00    +0.160 C 
ATOM      9  C   UNL     1      12.125   7.147  20.185  0.00  0.00    +0.043 C 
ATOM     10  C   UNL     1      10.998   8.061  20.645  0.00  0.00    +0.145 C 
ENDROOT
BRANCH   7  11
ATOM     11  C   UNL     1      14.647   7.510  20.084  0.00  0.00    -0.042 A 
ATOM     13  C   UNL     1      15.223   7.506  21.355  0.00  0.00    +0.007 A 
ATOM     14  C   UNL     1      15.333   6.949  19.006  0.00  0.00    +0.007 A 
ATOM     16  C   UNL     1      16.484   6.943  21.548  0.00  0.00    +0.046 A 
ATOM     17  C   UNL     1      16.595   6.386  19.200  0.00  0.00    +0.046 A 
ATOM     18  C   UNL     1      17.170   6.383  20.471  0.00  0.00    +0.120 A 
BRANCH  18   3
ATOM      3  O   UNL     1      18.401   5.833  20.659  0.00  0.00    -0.495 OA
ATOM     24  C   UNL     1      19.512   6.727  20.698  0.00  0.00    +0.277 C 
ENDBRANCH  18   3
ENDBRANCH   7  11
BRANCH   8   1
ATOM      1  O   UNL     1      12.085   8.497  22.775  0.00  0.00    -0.388 OA
ATOM     27  H   UNL     1      12.035   9.197  23.446  0.00  0.00    +0.210 HD
ENDBRANCH   8   1
BRANCH  10   2
ATOM      2  O   UNL     1      10.006   7.342  21.350  0.00  0.00    -0.389 OA
ATOM     28  H   UNL     1      10.354   7.158  22.240  0.00  0.00    +0.210 HD
ENDBRANCH  10   2
BRANCH   6   5
ATOM      5  N   UNL     1      12.795  10.545  19.869  0.00  0.00    -0.306 NA
ATOM     26  H   UNL     1      12.329  11.283  20.398  0.00  0.00    +0.123 HD
BRANCH   5  12
ATOM     12  C   UNL     1      14.061  11.060  19.369  0.00  0.00    +0.116 C 
BRANCH  12  15
ATOM     15  C   UNL     1      14.174  10.917  17.874  0.00  0.00    -0.030 A 
ATOM     19  C   UNL     1      13.272  10.111  17.180  0.00  0.00    +0.050 A 
ATOM     20  C   UNL     1      15.181  11.592  17.184  0.00  0.00    +0.005 A 
ATOM     21  C   UNL     1      13.378   9.979  15.795  0.00  0.00    +0.120 A 
ATOM     22  C   UNL     1      15.286  11.460  15.800  0.00  0.00    +0.004 A 
ATOM     23  C   UNL     1      14.385  10.653  15.105  0.00  0.00    +0.045 A 
BRANCH  21   4
ATOM      4  O   UNL     1      12.498   9.191  15.118  0.00  0.00    -0.495 OA
ATOM     25  C   UNL     1      11.142   9.201  15.564  0.00  0.00    +0.277 C 
ENDBRANCH  21   4
ENDBRANCH  12  15
ENDBRANCH   5  12
ENDBRANCH   6   5
TORSDOF 8
ENDMDL
MODEL 5
REMARK VINA RESULT:      -6.5     26.125     28.463
REMARK  Name = 75536104
REMARK  10 active torsions:
REMARK  status: ('A' for Active; 'I' for Inactive)
REMARK    1  A    between atoms: O_1  and  C_8
REMARK    2  A    between atoms: O_2  and  C_10
REMARK    3  A    between atoms: O_3  and  C_18
REMARK    4  A    between atoms: O_3  and  C_24
REMARK    5  A    between atoms: O_4  and  C_21
REMARK    6  A    between atoms: O_4  and  C_25
REMARK    7  A    between atoms: N_5  and  C_6
REMARK    8  A    between atoms: N_5  and  C_12
REMARK    9  A    between atoms: C_7  and  C_11
REMARK   10  A    between atoms: C_12  and  C_15
REMARK                            x       y       z     vdW  Elec       q    Type
REMARK                         _______ _______ _______ _____ _____    ______ ____
ROOT
ATOM      6  C   UNL     1     -14.498   6.710  23.114  0.00  0.00    +0.092 C 
ATOM      7  C   UNL     1     -14.822   6.588  21.593  0.00  0.00    +0.041 C 
ATOM      8  C   UNL     1     -14.699   5.296  23.683  0.00  0.00    +0.160 C 
ATOM      9  C   UNL     1     -15.210   5.115  21.362  0.00  0.00    +0.043 C 
ATOM     10  C   UNL     1     -15.702   4.655  22.728  0.00  0.00    +0.145 C 
ENDROOT
BRANCH   7  11
ATOM     11  C   UNL     1     -13.707   7.061  20.685  0.00  0.00    -0.042 A 
ATOM     13  C   UNL     1     -12.378   6.920  21.083  0.00  0.00    +0.007 A 
ATOM     14  C   UNL     1     -14.009   7.635  19.450  0.00  0.00    +0.007 A 
ATOM     16  C   UNL     1     -11.349   7.355  20.247  0.00  0.00    +0.046 A 
ATOM     17  C   UNL     1     -12.981   8.070  18.614  0.00  0.00    +0.046 A 
ATOM     18  C   UNL     1     -11.651   7.930  19.012  0.00  0.00    +0.120 A 
BRANCH  18   3
ATOM      3  O   UNL     1     -10.648   8.354  18.196  0.00  0.00    -0.495 OA
ATOM     24  C   UNL     1     -10.902   8.337  16.792  0.00  0.00    +0.277 C 
ENDBRANCH  18   3
ENDBRANCH   7  11
BRANCH   8   1
ATOM      1  O   UNL     1     -13.449   4.610  23.637  0.00  0.00    -0.388 OA
ATOM     27  H   UNL     1     -13.078   4.740  22.748  0.00  0.00    +0.210 HD
ENDBRANCH   8   1
BRANCH  10   2
ATOM      2  O   UNL     1     -15.720   3.245  22.822  0.00  0.00    -0.389 OA
ATOM     28  H   UNL     1     -15.843   2.893  21.924  0.00  0.00    +0.210 HD
ENDBRANCH  10   2
BRANCH   6   5
ATOM      5  N   UNL     1     -15.439   7.639  23.744  0.00  0.00    -0.306 NA
ATOM     26  H   UNL     1     -15.141   7.820  24.703  0.00  0.00    +0.123 HD
BRANCH   5  12
ATOM     12  C   UNL     1     -15.480   8.903  23.024  0.00  0.00    +0.116 C 
BRANCH  12  15
ATOM     15  C   UNL     1     -14.261   9.744  23.297  0.00  0.00    -0.030 A 
ATOM     19  C   UNL     1     -13.878  10.014  24.610  0.00  0.00    +0.050 A 
ATOM     20  C   UNL     1     -13.514  10.252  22.233  0.00  0.00    +0.005 A 
ATOM     21  C   UNL     1     -12.749  10.794  24.861  0.00  0.00    +0.120 A 
ATOM     22  C   UNL     1     -12.385  11.032  22.485  0.00  0.00    +0.004 A 
ATOM     23  C   UNL     1     -12.002  11.303  23.798  0.00  0.00    +0.045 A 
BRANCH  21   4
ATOM      4  O   UNL     1     -12.376  11.057  26.144  0.00  0.00    -0.495 OA
ATOM     25  C   UNL     1     -11.197  10.412  26.622  0.00  0.00    +0.277 C 
ENDBRANCH  21   4
ENDBRANCH  12  15
ENDBRANCH   5  12
ENDBRANCH   6   5
TORSDOF 8
ENDMDL
MODEL 6
REMARK VINA RESULT:      -6.5      2.555      4.548
REMARK  Name = 75536104
REMARK  10 active torsions:
REMARK  status: ('A' for Active; 'I' for Inactive)
REMARK    1  A    between atoms: O_1  and  C_8
REMARK    2  A    between atoms: O_2  and  C_10
REMARK    3  A    between atoms: O_3  and  C_18
REMARK    4  A    between atoms: O_3  and  C_24
REMARK    5  A    between atoms: O_4  and  C_21
REMARK    6  A    between atoms: O_4  and  C_25
REMARK    7  A    between atoms: N_5  and  C_6
REMARK    8  A    between atoms: N_5  and  C_12
REMARK    9  A    between atoms: C_7  and  C_11
REMARK   10  A    between atoms: C_12  and  C_15
REMARK                            x       y       z     vdW  Elec       q    Type
REMARK                         _______ _______ _______ _____ _____    ______ ____
ROOT
ATOM      6  C   UNL     1      13.369   8.906  19.110  0.00  0.00    +0.092 C 
ATOM      7  C   UNL     1      12.093   8.657  19.973  0.00  0.00    +0.041 C 
ATOM      8  C   UNL     1      12.890   8.821  17.652  0.00  0.00    +0.160 C 
ATOM      9  C   UNL     1      10.946   8.424  18.971  0.00  0.00    +0.043 C 
ATOM     10  C   UNL     1      11.657   7.925  17.721  0.00  0.00    +0.145 C 
ENDROOT
BRANCH   7  11
ATOM     11  C   UNL     1      11.799   9.756  20.971  0.00  0.00    -0.042 A 
ATOM     13  C   UNL     1      12.272  11.048  20.744  0.00  0.00    +0.007 A 
ATOM     14  C   UNL     1      11.055   9.476  22.118  0.00  0.00    +0.007 A 
ATOM     16  C   UNL     1      12.001  12.062  21.664  0.00  0.00    +0.046 A 
ATOM     17  C   UNL     1      10.785  10.490  23.037  0.00  0.00    +0.046 A 
ATOM     18  C   UNL     1      11.257  11.782  22.810  0.00  0.00    +0.120 A 
BRANCH  18   3
ATOM      3  O   UNL     1      10.993  12.771  23.707  0.00  0.00    -0.495 OA
ATOM     24  C   UNL     1      11.020  12.418  25.089  0.00  0.00    +0.277 C 
ENDBRANCH  18   3
ENDBRANCH   7  11
BRANCH   8   1
ATOM      1  O   UNL     1      12.537  10.133  17.217  0.00  0.00    -0.388 OA
ATOM     27  H   UNL     1      11.703  10.062  16.723  0.00  0.00    +0.210 HD
ENDBRANCH   8   1
BRANCH  10   2
ATOM      2  O   UNL     1      10.835   8.041  16.578  0.00  0.00    -0.389 OA
ATOM     28  H   UNL     1       9.923   7.839  16.851  0.00  0.00    +0.210 HD
ENDBRANCH  10   2
BRANCH   6   5
ATOM      5  N   UNL     1      14.353   7.855  19.374  0.00  0.00    -0.306 NA
ATOM     26  H   UNL     1      14.826   7.611  18.502  0.00  0.00    +0.123 HD
BRANCH   5  12
ATOM     12  C   UNL     1      15.350   8.305  20.333  0.00  0.00    +0.116 C 
BRANCH  12  15
ATOM     15  C   UNL     1      16.587   7.447  20.302  0.00  0.00    -0.030 A 
ATOM     19  C   UNL     1      17.600   7.646  21.240  0.00  0.00    +0.050 A 
ATOM     20  C   UNL     1      16.719   6.450  19.335  0.00  0.00    +0.005 A 
ATOM     21  C   UNL     1      18.745   6.850  21.211  0.00  0.00    +0.120 A 
ATOM     22  C   UNL     1      17.864   5.654  19.306  0.00  0.00    +0.004 A 
ATOM     23  C   UNL     1      18.877   5.854  20.243  0.00  0.00    +0.045 A 
BRANCH  21   4
ATOM      4  O   UNL     1      19.733   7.046  22.126  0.00  0.00    -0.495 OA
ATOM     25  C   UNL     1      20.992   7.504  21.635  0.00  0.00    +0.277 C 
ENDBRANCH  21   4
ENDBRANCH  12  15
ENDBRANCH   5  12
ENDBRANCH   6   5
TORSDOF 8
ENDMDL
MODEL 7
REMARK VINA RESULT:      -6.4     13.372     17.279
REMARK  Name = 75536104
REMARK  10 active torsions:
REMARK  status: ('A' for Active; 'I' for Inactive)
REMARK    1  A    between atoms: O_1  and  C_8
REMARK    2  A    between atoms: O_2  and  C_10
REMARK    3  A    between atoms: O_3  and  C_18
REMARK    4  A    between atoms: O_3  and  C_24
REMARK    5  A    between atoms: O_4  and  C_21
REMARK    6  A    between atoms: O_4  and  C_25
REMARK    7  A    between atoms: N_5  and  C_6
REMARK    8  A    between atoms: N_5  and  C_12
REMARK    9  A    between atoms: C_7  and  C_11
REMARK   10  A    between atoms: C_12  and  C_15
REMARK                            x       y       z     vdW  Elec       q    Type
REMARK                         _______ _______ _______ _____ _____    ______ ____
ROOT
ATOM      6  C   UNL     1      10.408   6.584   6.158  0.00  0.00    +0.092 C 
ATOM      7  C   UNL     1      10.042   5.365   5.256  0.00  0.00    +0.041 C 
ATOM      8  C   UNL     1      10.657   5.990   7.554  0.00  0.00    +0.160 C 
ATOM      9  C   UNL     1      10.081   4.132   6.178  0.00  0.00    +0.043 C 
ATOM     10  C   UNL     1       9.826   4.710   7.563  0.00  0.00    +0.145 C 
ENDROOT
BRANCH   7  11
ATOM     11  C   UNL     1      10.916   5.221   4.029  0.00  0.00    -0.042 A 
ATOM     13  C   UNL     1      11.790   6.248   3.672  0.00  0.00    +0.007 A 
ATOM     14  C   UNL     1      10.850   4.061   3.257  0.00  0.00    +0.007 A 
ATOM     16  C   UNL     1      12.597   6.116   2.541  0.00  0.00    +0.046 A 
ATOM     17  C   UNL     1      11.657   3.929   2.127  0.00  0.00    +0.046 A 
ATOM     18  C   UNL     1      12.530   4.956   1.769  0.00  0.00    +0.120 A 
BRANCH  18   3
ATOM      3  O   UNL     1      13.317   4.827   0.666  0.00  0.00    -0.495 OA
ATOM     24  C   UNL     1      13.474   3.515   0.130  0.00  0.00    +0.277 C 
ENDBRANCH  18   3
ENDBRANCH   7  11
BRANCH   8   1
ATOM      1  O   UNL     1      12.047   5.690   7.674  0.00  0.00    -0.388 OA
ATOM     27  H   UNL     1      12.374   5.466   6.787  0.00  0.00    +0.210 HD
ENDBRANCH   8   1
BRANCH  10   2
ATOM      2  O   UNL     1      10.221   3.811   8.579  0.00  0.00    -0.389 OA
ATOM     28  H   UNL     1      11.182   3.903   8.694  0.00  0.00    +0.210 HD
ENDBRANCH  10   2
BRANCH   6   5
ATOM      5  N   UNL     1       9.279   7.515   6.208  0.00  0.00    -0.306 NA
ATOM     26  H   UNL     1       9.600   8.446   5.941  0.00  0.00    +0.123 HD
BRANCH   5  12
ATOM     12  C   UNL     1       8.227   7.105   5.289  0.00  0.00    +0.116 C 
BRANCH  12  15
ATOM     15  C   UNL     1       8.030   8.105   4.180  0.00  0.00    -0.030 A 
ATOM     19  C   UNL     1       7.281   9.259   4.406  0.00  0.00    +0.050 A 
ATOM     20  C   UNL     1       8.598   7.875   2.926  0.00  0.00    +0.005 A 
ATOM     21  C   UNL     1       7.099  10.185   3.378  0.00  0.00    +0.120 A 
ATOM     22  C   UNL     1       8.415   8.801   1.899  0.00  0.00    +0.004 A 
ATOM     23  C   UNL     1       7.666   9.955   2.124  0.00  0.00    +0.045 A 
BRANCH  21   4
ATOM      4  O   UNL     1       6.367  11.311   3.599  0.00  0.00    -0.495 OA
ATOM     25  C   UNL     1       4.952  11.157   3.698  0.00  0.00    +0.277 C 
ENDBRANCH  21   4
ENDBRANCH  12  15
ENDBRANCH   5  12
ENDBRANCH   6   5
TORSDOF 8
ENDMDL
MODEL 8
REMARK VINA RESULT:      -6.3     25.997     28.488
REMARK  Name = 75536104
REMARK  10 active torsions:
REMARK  status: ('A' for Active; 'I' for Inactive)
REMARK    1  A    between atoms: O_1  and  C_8
REMARK    2  A    between atoms: O_2  and  C_10
REMARK    3  A    between atoms: O_3  and  C_18
REMARK    4  A    between atoms: O_3  and  C_24
REMARK    5  A    between atoms: O_4  and  C_21
REMARK    6  A    between atoms: O_4  and  C_25
REMARK    7  A    between atoms: N_5  and  C_6
REMARK    8  A    between atoms: N_5  and  C_12
REMARK    9  A    between atoms: C_7  and  C_11
REMARK   10  A    between atoms: C_12  and  C_15
REMARK                            x       y       z     vdW  Elec       q    Type
REMARK                         _______ _______ _______ _____ _____    ______ ____
ROOT
ATOM      6  C   UNL     1      -5.015 -11.113  15.167  0.00  0.00    +0.092 C 
ATOM      7  C   UNL     1      -4.982 -10.174  16.412  0.00  0.00    +0.041 C 
ATOM      8  C   UNL     1      -3.623 -11.764  15.117  0.00  0.00    +0.160 C 
ATOM      9  C   UNL     1      -3.568 -10.316  17.008  0.00  0.00    +0.043 C 
ATOM     10  C   UNL     1      -2.721 -10.756  15.823  0.00  0.00    +0.145 C 
ENDROOT
BRANCH   7  11
ATOM     11  C   UNL     1      -6.083 -10.441  17.415  0.00  0.00    -0.042 A 
ATOM     13  C   UNL     1      -7.381 -10.000  17.160  0.00  0.00    +0.007 A 
ATOM     14  C   UNL     1      -5.799 -11.129  18.596  0.00  0.00    +0.007 A 
ATOM     16  C   UNL     1      -8.397 -10.246  18.084  0.00  0.00    +0.046 A 
ATOM     17  C   UNL     1      -6.814 -11.374  19.520  0.00  0.00    +0.046 A 
ATOM     18  C   UNL     1      -8.113 -10.934  19.264  0.00  0.00    +0.120 A 
BRANCH  18   3
ATOM      3  O   UNL     1      -9.103 -11.174  20.167  0.00  0.00    -0.495 OA
ATOM     24  C   UNL     1     -10.358 -10.535  19.939  0.00  0.00    +0.277 C 
ENDBRANCH  18   3
ENDBRANCH   7  11
BRANCH   8   1
ATOM      1  O   UNL     1      -3.674 -12.991  15.842  0.00  0.00    -0.388 OA
ATOM     27  H   UNL     1      -3.642 -12.773  16.788  0.00  0.00    +0.210 HD
ENDBRANCH   8   1
BRANCH  10   2
ATOM      2  O   UNL     1      -1.497 -11.323  16.245  0.00  0.00    -0.389 OA
ATOM     28  H   UNL     1      -1.482 -11.296  17.217  0.00  0.00    +0.210 HD
ENDBRANCH  10   2
BRANCH   6   5
ATOM      5  N   UNL     1      -5.237 -10.318  13.957  0.00  0.00    -0.306 NA
ATOM     26  H   UNL     1      -4.562  -9.553  13.929  0.00  0.00    +0.123 HD
BRANCH   5  12
ATOM     12  C   UNL     1      -5.067 -11.131  12.762  0.00  0.00    +0.116 C 
BRANCH  12  15
ATOM     15  C   UNL     1      -4.762 -10.291  11.550  0.00  0.00    -0.030 A 
ATOM     19  C   UNL     1      -5.803  -9.754  10.793  0.00  0.00    +0.050 A 
ATOM     20  C   UNL     1      -3.437 -10.050  11.186  0.00  0.00    +0.005 A 
ATOM     21  C   UNL     1      -5.519  -8.976   9.670  0.00  0.00    +0.120 A 
ATOM     22  C   UNL     1      -3.154  -9.271  10.063  0.00  0.00    +0.004 A 
ATOM     23  C   UNL     1      -4.195  -8.735   9.305  0.00  0.00    +0.045 A 
BRANCH  21   4
ATOM      4  O   UNL     1      -6.536  -8.453   8.931  0.00  0.00    -0.495 OA
ATOM     25  C   UNL     1      -7.846  -8.519   9.491  0.00  0.00    +0.277 C 
ENDBRANCH  21   4
ENDBRANCH  12  15
ENDBRANCH   5  12
ENDBRANCH   6   5
TORSDOF 8
ENDMDL
MODEL 9
REMARK VINA RESULT:      -6.3     15.549     19.160
REMARK  Name = 75536104
REMARK  10 active torsions:
REMARK  status: ('A' for Active; 'I' for Inactive)
REMARK    1  A    between atoms: O_1  and  C_8
REMARK    2  A    between atoms: O_2  and  C_10
REMARK    3  A    between atoms: O_3  and  C_18
REMARK    4  A    between atoms: O_3  and  C_24
REMARK    5  A    between atoms: O_4  and  C_21
REMARK    6  A    between atoms: O_4  and  C_25
REMARK    7  A    between atoms: N_5  and  C_6
REMARK    8  A    between atoms: N_5  and  C_12
REMARK    9  A    between atoms: C_7  and  C_11
REMARK   10  A    between atoms: C_12  and  C_15
REMARK                            x       y       z     vdW  Elec       q    Type
REMARK                         _______ _______ _______ _____ _____    ______ ____
ROOT
ATOM      6  C   UNL     1      12.857   5.468   1.666  0.00  0.00    +0.092 C 
ATOM      7  C   UNL     1      12.208   4.153   1.135  0.00  0.00    +0.041 C 
ATOM      8  C   UNL     1      14.365   5.177   1.728  0.00  0.00    +0.160 C 
ATOM      9  C   UNL     1      13.371   3.162   0.933  0.00  0.00    +0.043 C 
ATOM     10  C   UNL     1      14.439   3.662   1.895  0.00  0.00    +0.145 C 
ENDROOT
BRANCH   7  11
ATOM     11  C   UNL     1      11.361   4.340  -0.105  0.00  0.00    -0.042 A 
ATOM     13  C   UNL     1      11.610   3.570  -1.242  0.00  0.00    +0.007 A 
ATOM     14  C   UNL     1      10.332   5.281  -0.112  0.00  0.00    +0.007 A 
ATOM     16  C   UNL     1      10.830   3.741  -2.385  0.00  0.00    +0.046 A 
ATOM     17  C   UNL     1       9.552   5.452  -1.256  0.00  0.00    +0.046 A 
ATOM     18  C   UNL     1       9.800   4.682  -2.392  0.00  0.00    +0.120 A 
BRANCH  18   3
ATOM      3  O   UNL     1       9.039   4.850  -3.507  0.00  0.00    -0.495 OA
ATOM     24  C   UNL     1       9.306   3.987  -4.612  0.00  0.00    +0.277 C 
ENDBRANCH  18   3
ENDBRANCH   7  11
BRANCH   8   1
ATOM      1  O   UNL     1      14.952   5.578   0.492  0.00  0.00    -0.388 OA
ATOM     27  H   UNL     1      15.916   5.504   0.589  0.00  0.00    +0.210 HD
ENDBRANCH   8   1
BRANCH  10   2
ATOM      2  O   UNL     1      15.712   3.140   1.570  0.00  0.00    -0.389 OA
ATOM     28  H   UNL     1      15.620   2.638   0.742  0.00  0.00    +0.210 HD
ENDBRANCH  10   2
BRANCH   6   5
ATOM      5  N   UNL     1      12.350   5.758   3.009  0.00  0.00    -0.306 NA
ATOM     26  H   UNL     1      12.045   6.731   3.051  0.00  0.00    +0.123 HD
BRANCH   5  12
ATOM     12  C   UNL     1      11.217   4.903   3.332  0.00  0.00    +0.116 C 
BRANCH  12  15
ATOM     15  C   UNL     1      10.216   5.606   4.211  0.00  0.00    -0.030 A 
ATOM     19  C   UNL     1      10.144   5.300   5.570  0.00  0.00    +0.050 A 
ATOM     20  C   UNL     1       9.362   6.564   3.665  0.00  0.00    +0.005 A 
ATOM     21  C   UNL     1       9.217   5.952   6.383  0.00  0.00    +0.120 A 
ATOM     22  C   UNL     1       8.434   7.215   4.478  0.00  0.00    +0.004 A 
ATOM     23  C   UNL     1       8.361   6.909   5.837  0.00  0.00    +0.045 A 
BRANCH  21   4
ATOM      4  O   UNL     1       9.146   5.653   7.709  0.00  0.00    -0.495 OA
ATOM     25  C   UNL     1      10.376   5.609   8.431  0.00  0.00    +0.277 C 
ENDBRANCH  21   4
ENDBRANCH  12  15
ENDBRANCH   5  12
ENDBRANCH   6   5
TORSDOF 8
ENDMDL
MODEL 10
REMARK VINA RESULT:      -6.3     12.858     16.294
REMARK  Name = 75536104
REMARK  10 active torsions:
REMARK  status: ('A' for Active; 'I' for Inactive)
REMARK    1  A    between atoms: O_1  and  C_8
REMARK    2  A    between atoms: O_2  and  C_10
REMARK    3  A    between atoms: O_3  and  C_18
REMARK    4  A    between atoms: O_3  and  C_24
REMARK    5  A    between atoms: O_4  and  C_21
REMARK    6  A    between atoms: O_4  and  C_25
REMARK    7  A    between atoms: N_5  and  C_6
REMARK    8  A    between atoms: N_5  and  C_12
REMARK    9  A    between atoms: C_7  and  C_11
REMARK   10  A    between atoms: C_12  and  C_15
REMARK                            x       y       z     vdW  Elec       q    Type
REMARK                         _______ _______ _______ _____ _____    ______ ____
ROOT
ATOM      6  C   UNL     1      10.119   7.015   7.130  0.00  0.00    +0.092 C 
ATOM      7  C   UNL     1       9.577   6.137   5.960  0.00  0.00    +0.041 C 
ATOM      8  C   UNL     1      10.613   6.015   8.188  0.00  0.00    +0.160 C 
ATOM      9  C   UNL     1       9.769   4.675   6.408  0.00  0.00    +0.043 C 
ATOM     10  C   UNL     1       9.780   4.763   7.927  0.00  0.00    +0.145 C 
ENDROOT
BRANCH   7  11
ATOM     11  C   UNL     1      10.210   6.438   4.619  0.00  0.00    -0.042 A 
ATOM     13  C   UNL     1       9.409   6.568   3.484  0.00  0.00    +0.007 A 
ATOM     14  C   UNL     1      11.593   6.588   4.518  0.00  0.00    +0.007 A 
ATOM     16  C   UNL     1       9.992   6.845   2.247  0.00  0.00    +0.046 A 
ATOM     17  C   UNL     1      12.176   6.865   3.281  0.00  0.00    +0.046 A 
ATOM     18  C   UNL     1      11.375   6.995   2.146  0.00  0.00    +0.120 A 
BRANCH  18   3
ATOM      3  O   UNL     1      11.943   7.266   0.939  0.00  0.00    -0.495 OA
ATOM     24  C   UNL     1      13.218   6.682   0.676  0.00  0.00    +0.277 C 
ENDBRANCH  18   3
ENDBRANCH   7  11
BRANCH   8   1
ATOM      1  O   UNL     1      11.996   5.759   7.955  0.00  0.00    -0.388 OA
ATOM     27  H   UNL     1      12.352   6.514   7.456  0.00  0.00    +0.210 HD
ENDBRANCH   8   1
BRANCH  10   2
ATOM      2  O   UNL     1      10.343   3.604   8.508  0.00  0.00    -0.389 OA
ATOM     28  H   UNL     1      10.697   3.855   9.378  0.00  0.00    +0.210 HD
ENDBRANCH  10   2
BRANCH   6   5
ATOM      5  N   UNL     1       9.031   7.826   7.680  0.00  0.00    -0.306 NA
ATOM     26  H   UNL     1       8.974   7.673   8.688  0.00  0.00    +0.123 HD
BRANCH   5  12
ATOM     12  C   UNL     1       9.264   9.242   7.438  0.00  0.00    +0.116 C 
BRANCH  12  15
ATOM     15  C   UNL     1       9.094   9.598   5.985  0.00  0.00    -0.030 A 
ATOM     19  C   UNL     1       7.853   9.437   5.368  0.00  0.00    +0.050 A 
ATOM     20  C   UNL     1      10.177  10.090   5.256  0.00  0.00    +0.005 A 
ATOM     21  C   UNL     1       7.696   9.768   4.021  0.00  0.00    +0.120 A 
ATOM     22  C   UNL     1      10.019  10.421   3.910  0.00  0.00    +0.004 A 
ATOM     23  C   UNL     1       8.779  10.259   3.293  0.00  0.00    +0.045 A 
BRANCH  21   4
ATOM      4  O   UNL     1       6.485   9.611   3.419  0.00  0.00    -0.495 OA
ATOM     25  C   UNL     1       5.457  10.532   3.779  0.00  0.00    +0.277 C 
ENDBRANCH  21   4
ENDBRANCH  12  15
ENDBRANCH   5  12
ENDBRANCH   6   5
TORSDOF 8
ENDMDL
