MODEL 1
REMARK VINA RESULT:      -7.1      0.000      0.000
REMARK  Name = 25338560
REMARK  11 active torsions:
REMARK  status: ('A' for Active; 'I' for Inactive)
REMARK    1  A    between atoms: O_3  and  C_19
REMARK    2  A    between atoms: O_3  and  C_23
REMARK    3  A    between atoms: O_4  and  C_26
REMARK    4  A    between atoms: O_4  and  C_28
REMARK    5  A    between atoms: O_5  and  C_27
REMARK    6  A    between atoms: N_7  and  C_16
REMARK    7  A    between atoms: N_8  and  C_11
REMARK    8  A    between atoms: C_12  and  C_15
REMARK    9  A    between atoms: C_17  and  C_19
REMARK   10  A    between atoms: C_18  and  C_20
REMARK   11  A    between atoms: C_23  and  C_27
REMARK                            x       y       z     vdW  Elec       q    Type
REMARK                         _______ _______ _______ _____ _____    ______ ____
ROOT
ATOM      7  N   UNL     1      11.489   7.007  21.674  0.00  0.00    -0.293 NA
ATOM     11  C   UNL     1      10.763   9.214  21.862  0.00  0.00    +0.089 C 
ATOM     12  C   UNL     1      11.837   7.604  20.369  0.00  0.00    +0.147 C 
ATOM     13  C   UNL     1      11.503   9.100  20.528  0.00  0.00    +0.052 C 
ATOM     14  C   UNL     1      10.355   7.784  22.181  0.00  0.00    +0.107 C 
ATOM     16  C   UNL     1      11.181   5.584  21.589  0.00  0.00    +0.105 C 
ENDROOT
BRANCH  12  15
ATOM      1  O   UNL     1      13.533   7.361  18.628  0.00  0.00    -0.336 OA
ATOM      9  N   UNL     1      14.329   7.167  20.712  0.00  0.00    -0.190 NA
ATOM     10  N   UNL     1      14.908   7.129  18.500  0.00  0.00    -0.056 NA
ATOM     15  C   UNL     1      13.275   7.369  19.962  0.00  0.00    +0.245 A 
ATOM     18  C   UNL     1      15.306   7.025  19.771  0.00  0.00    +0.202 A 
BRANCH  18  20
ATOM     20  C   UNL     1      16.672   6.782  20.135  0.00  0.00    +0.023 A 
ATOM     21  C   UNL     1      17.414   5.815  19.458  0.00  0.00    +0.015 A 
ATOM     22  C   UNL     1      17.259   7.515  21.167  0.00  0.00    +0.015 A 
ATOM     24  C   UNL     1      18.742   5.579  19.813  0.00  0.00    +0.046 A 
ATOM     25  C   UNL     1      18.587   7.280  21.522  0.00  0.00    +0.046 A 
ATOM     26  C   UNL     1      19.328   6.312  20.845  0.00  0.00    +0.120 A 
BRANCH  26   4
ATOM      4  O   UNL     1      20.624   6.082  21.191  0.00  0.00    -0.495 OA
ATOM     28  C   UNL     1      21.336   5.105  20.434  0.00  0.00    +0.277 C 
ENDBRANCH  26   4
ENDBRANCH  18  20
ENDBRANCH  12  15
BRANCH  11   8
ATOM      2  O   UNL     1      11.015  11.994  22.618  0.00  0.00    -0.273 OA
ATOM      8  N   UNL     1      11.610   9.763  22.894  0.00  0.00    -0.309 N 
ATOM     17  C   UNL     1      11.662  11.117  23.184  0.00  0.00    +0.239 C 
ATOM     29  H   UNL     1      12.233   9.129  23.388  0.00  0.00    +0.149 HD
BRANCH  17  19
ATOM     19  C   UNL     1      12.631  11.411  24.310  0.00  0.00    +0.256 C 
BRANCH  19   3
ATOM      3  O   UNL     1      11.939  11.842  25.463  0.00  0.00    -0.359 OA
BRANCH   3  23
ATOM     23  C   UNL     1      12.230  13.200  25.781  0.00  0.00    +0.280 C 
BRANCH  23  27
ATOM      6  O   UNL     1      10.163  14.173  24.952  0.00  0.00    -0.248 OA
ATOM     27  C   UNL     1      10.952  13.988  25.867  0.00  0.00    +0.331 C 
BRANCH  27   5
ATOM      5  O   UNL     1      10.786  14.477  27.121  0.00  0.00    -0.479 OA
ATOM     30  H   UNL     1      11.495  15.109  27.365  0.00  0.00    +0.295 HD
ENDBRANCH  27   5
ENDBRANCH  23  27
ENDBRANCH   3  23
ENDBRANCH  19   3
ENDBRANCH  17  19
ENDBRANCH  11   8
TORSDOF 9
ENDMDL
MODEL 2
REMARK VINA RESULT:      -6.9      4.124      5.611
REMARK  Name = 25338560
REMARK  11 active torsions:
REMARK  status: ('A' for Active; 'I' for Inactive)
REMARK    1  A    between atoms: O_3  and  C_19
REMARK    2  A    between atoms: O_3  and  C_23
REMARK    3  A    between atoms: O_4  and  C_26
REMARK    4  A    between atoms: O_4  and  C_28
REMARK    5  A    between atoms: O_5  and  C_27
REMARK    6  A    between atoms: N_7  and  C_16
REMARK    7  A    between atoms: N_8  and  C_11
REMARK    8  A    between atoms: C_12  and  C_15
REMARK    9  A    between atoms: C_17  and  C_19
REMARK   10  A    between atoms: C_18  and  C_20
REMARK   11  A    between atoms: C_23  and  C_27
REMARK                            x       y       z     vdW  Elec       q    Type
REMARK                         _______ _______ _______ _____ _____    ______ ____
ROOT
ATOM      7  N   UNL     1      13.372   8.823  20.646  0.00  0.00    -0.293 NA
ATOM     11  C   UNL     1      11.672   8.197  19.179  0.00  0.00    +0.089 C 
ATOM     12  C   UNL     1      13.501   7.355  20.564  0.00  0.00    +0.147 C 
ATOM     13  C   UNL     1      12.486   6.938  19.483  0.00  0.00    +0.052 C 
ATOM     14  C   UNL     1      11.967   9.119  20.351  0.00  0.00    +0.107 C 
ATOM     16  C   UNL     1      13.784   9.365  21.936  0.00  0.00    +0.105 C 
ENDROOT
BRANCH  12  15
ATOM      1  O   UNL     1      15.115   6.383  19.009  0.00  0.00    -0.336 OA
ATOM      9  N   UNL     1      15.974   6.902  21.011  0.00  0.00    -0.190 NA
ATOM     10  N   UNL     1      16.469   6.026  18.956  0.00  0.00    -0.056 NA
ATOM     15  C   UNL     1      14.907   6.890  20.252  0.00  0.00    +0.245 A 
ATOM     18  C   UNL     1      16.906   6.362  20.174  0.00  0.00    +0.202 A 
BRANCH  18  20
ATOM     20  C   UNL     1      18.267   6.174  20.584  0.00  0.00    +0.023 A 
ATOM     21  C   UNL     1      18.798   6.944  21.619  0.00  0.00    +0.015 A 
ATOM     22  C   UNL     1      19.062   5.220  19.947  0.00  0.00    +0.015 A 
ATOM     24  C   UNL     1      20.122   6.761  22.016  0.00  0.00    +0.046 A 
ATOM     25  C   UNL     1      20.386   5.037  20.344  0.00  0.00    +0.046 A 
ATOM     26  C   UNL     1      20.916   5.807  21.379  0.00  0.00    +0.120 A 
BRANCH  26   4
ATOM      4  O   UNL     1      22.208   5.628  21.766  0.00  0.00    -0.495 OA
ATOM     28  C   UNL     1      22.428   4.991  23.024  0.00  0.00    +0.277 C 
ENDBRANCH  26   4
ENDBRANCH  18  20
ENDBRANCH  12  15
BRANCH  11   8
ATOM      2  O   UNL     1      10.278   8.034  16.651  0.00  0.00    -0.273 OA
ATOM      8  N   UNL     1      12.067   8.795  17.926  0.00  0.00    -0.309 N 
ATOM     17  C   UNL     1      11.329   8.660  16.761  0.00  0.00    +0.239 C 
ATOM     29  H   UNL     1      12.955   9.289  17.892  0.00  0.00    +0.149 HD
BRANCH  17  19
ATOM     19  C   UNL     1      11.974   9.390  15.602  0.00  0.00    +0.256 C 
BRANCH  19   3
ATOM      3  O   UNL     1      13.334   9.029  15.481  0.00  0.00    -0.359 OA
BRANCH   3  23
ATOM     23  C   UNL     1      14.176  10.171  15.347  0.00  0.00    +0.280 C 
BRANCH  23  27
ATOM      6  O   UNL     1      14.734  10.342  17.706  0.00  0.00    -0.248 OA
ATOM     27  C   UNL     1      14.321  10.856  16.677  0.00  0.00    +0.331 C 
BRANCH  27   5
ATOM      5  O   UNL     1      13.924  12.150  16.583  0.00  0.00    -0.479 OA
ATOM     30  H   UNL     1      14.123  12.531  15.702  0.00  0.00    +0.295 HD
ENDBRANCH  27   5
ENDBRANCH  23  27
ENDBRANCH   3  23
ENDBRANCH  19   3
ENDBRANCH  17  19
ENDBRANCH  11   8
TORSDOF 9
ENDMDL
MODEL 3
REMARK VINA RESULT:      -6.3      2.444      4.900
REMARK  Name = 25338560
REMARK  11 active torsions:
REMARK  status: ('A' for Active; 'I' for Inactive)
REMARK    1  A    between atoms: O_3  and  C_19
REMARK    2  A    between atoms: O_3  and  C_23
REMARK    3  A    between atoms: O_4  and  C_26
REMARK    4  A    between atoms: O_4  and  C_28
REMARK    5  A    between atoms: O_5  and  C_27
REMARK    6  A    between atoms: N_7  and  C_16
REMARK    7  A    between atoms: N_8  and  C_11
REMARK    8  A    between atoms: C_12  and  C_15
REMARK    9  A    between atoms: C_17  and  C_19
REMARK   10  A    between atoms: C_18  and  C_20
REMARK   11  A    between atoms: C_23  and  C_27
REMARK                            x       y       z     vdW  Elec       q    Type
REMARK                         _______ _______ _______ _____ _____    ______ ____
ROOT
ATOM      7  N   UNL     1      14.906  10.645  20.550  0.00  0.00    -0.293 NA
ATOM     11  C   UNL     1      13.782  11.162  22.526  0.00  0.00    +0.089 C 
ATOM     12  C   UNL     1      15.931  10.461  21.596  0.00  0.00    +0.147 C 
ATOM     13  C   UNL     1      15.168  10.650  22.921  0.00  0.00    +0.052 C 
ATOM     14  C   UNL     1      13.955  11.623  21.088  0.00  0.00    +0.107 C 
ATOM     16  C   UNL     1      15.461  11.072  19.270  0.00  0.00    +0.105 C 
ENDROOT
BRANCH  12  15
ATOM      1  O   UNL     1      15.864   8.044  21.251  0.00  0.00    -0.336 OA
ATOM      9  N   UNL     1      17.910   8.850  21.670  0.00  0.00    -0.190 NA
ATOM     10  N   UNL     1      16.728   6.942  21.227  0.00  0.00    -0.056 NA
ATOM     15  C   UNL     1      16.640   9.126  21.517  0.00  0.00    +0.245 A 
ATOM     18  C   UNL     1      17.916   7.499  21.484  0.00  0.00    +0.202 A 
BRANCH  18  20
ATOM     20  C   UNL     1      19.127   6.734  21.558  0.00  0.00    +0.023 A 
ATOM     21  C   UNL     1      19.946   6.830  22.683  0.00  0.00    +0.015 A 
ATOM     22  C   UNL     1      19.486   5.893  20.504  0.00  0.00    +0.015 A 
ATOM     24  C   UNL     1      21.124   6.086  22.753  0.00  0.00    +0.046 A 
ATOM     25  C   UNL     1      20.663   5.149  20.575  0.00  0.00    +0.046 A 
ATOM     26  C   UNL     1      21.482   5.245  21.699  0.00  0.00    +0.120 A 
BRANCH  26   4
ATOM      4  O   UNL     1      22.631   4.519  21.768  0.00  0.00    -0.495 OA
ATOM     28  C   UNL     1      22.503   3.123  22.032  0.00  0.00    +0.277 C 
ENDBRANCH  26   4
ENDBRANCH  18  20
ENDBRANCH  12  15
BRANCH  11   8
ATOM      2  O   UNL     1      10.925  11.511  22.804  0.00  0.00    -0.273 OA
ATOM      8  N   UNL     1      12.784  10.124  22.630  0.00  0.00    -0.309 N 
ATOM     17  C   UNL     1      11.430  10.392  22.761  0.00  0.00    +0.239 C 
ATOM     29  H   UNL     1      13.100   9.159  22.664  0.00  0.00    +0.149 HD
BRANCH  17  19
ATOM     19  C   UNL     1      10.614   9.120  22.846  0.00  0.00    +0.256 C 
BRANCH  19   3
ATOM      3  O   UNL     1      11.354   8.019  22.362  0.00  0.00    -0.359 OA
BRANCH   3  23
ATOM     23  C   UNL     1      10.906   7.603  21.075  0.00  0.00    +0.280 C 
BRANCH  23  27
ATOM      6  O   UNL     1      12.142   6.483  19.307  0.00  0.00    -0.248 OA
ATOM     27  C   UNL     1      12.090   7.327  20.190  0.00  0.00    +0.331 C 
BRANCH  27   5
ATOM      5  O   UNL     1      13.115   8.157  20.506  0.00  0.00    -0.479 OA
ATOM     30  H   UNL     1      13.467   8.621  19.717  0.00  0.00    +0.295 HD
ENDBRANCH  27   5
ENDBRANCH  23  27
ENDBRANCH   3  23
ENDBRANCH  19   3
ENDBRANCH  17  19
ENDBRANCH  11   8
TORSDOF 9
ENDMDL
MODEL 4
REMARK VINA RESULT:      -6.2     26.996     29.109
REMARK  Name = 25338560
REMARK  11 active torsions:
REMARK  status: ('A' for Active; 'I' for Inactive)
REMARK    1  A    between atoms: O_3  and  C_19
REMARK    2  A    between atoms: O_3  and  C_23
REMARK    3  A    between atoms: O_4  and  C_26
REMARK    4  A    between atoms: O_4  and  C_28
REMARK    5  A    between atoms: O_5  and  C_27
REMARK    6  A    between atoms: N_7  and  C_16
REMARK    7  A    between atoms: N_8  and  C_11
REMARK    8  A    between atoms: C_12  and  C_15
REMARK    9  A    between atoms: C_17  and  C_19
REMARK   10  A    between atoms: C_18  and  C_20
REMARK   11  A    between atoms: C_23  and  C_27
REMARK                            x       y       z     vdW  Elec       q    Type
REMARK                         _______ _______ _______ _____ _____    ______ ____
ROOT
ATOM      7  N   UNL     1      -3.447 -12.131  11.758  0.00  0.00    -0.293 NA
ATOM     11  C   UNL     1      -3.357 -10.250  10.383  0.00  0.00    +0.089 C 
ATOM     12  C   UNL     1      -2.494 -11.238  12.445  0.00  0.00    +0.147 C 
ATOM     13  C   UNL     1      -2.537  -9.929  11.633  0.00  0.00    +0.052 C 
ATOM     14  C   UNL     1      -3.383 -11.770  10.339  0.00  0.00    +0.107 C 
ATOM     16  C   UNL     1      -3.166 -13.546  11.974  0.00  0.00    +0.105 C 
ENDROOT
BRANCH  12  15
ATOM      1  O   UNL     1      -1.776 -10.674  14.711  0.00  0.00    -0.336 OA
ATOM      9  N   UNL     1      -3.962 -11.129  14.532  0.00  0.00    -0.190 NA
ATOM     10  N   UNL     1      -2.310 -10.535  15.999  0.00  0.00    -0.056 NA
ATOM     15  C   UNL     1      -2.815 -11.025  13.909  0.00  0.00    +0.245 A 
ATOM     18  C   UNL     1      -3.602 -10.821  15.811  0.00  0.00    +0.202 A 
BRANCH  18  20
ATOM     20  C   UNL     1      -4.559 -10.803  16.879  0.00  0.00    +0.023 A 
ATOM     21  C   UNL     1      -5.782 -10.154  16.710  0.00  0.00    +0.015 A 
ATOM     22  C   UNL     1      -4.267 -11.436  18.087  0.00  0.00    +0.015 A 
ATOM     24  C   UNL     1      -6.712 -10.137  17.750  0.00  0.00    +0.046 A 
ATOM     25  C   UNL     1      -5.197 -11.419  19.126  0.00  0.00    +0.046 A 
ATOM     26  C   UNL     1      -6.419 -10.770  18.958  0.00  0.00    +0.120 A 
BRANCH  26   4
ATOM      4  O   UNL     1      -7.327 -10.754  19.972  0.00  0.00    -0.495 OA
ATOM     28  C   UNL     1      -8.654 -11.176  19.663  0.00  0.00    +0.277 C 
ENDBRANCH  26   4
ENDBRANCH  18  20
ENDBRANCH  12  15
BRANCH  11   8
ATOM      2  O   UNL     1      -5.079  -9.499   8.185  0.00  0.00    -0.273 OA
ATOM      8  N   UNL     1      -4.691  -9.704  10.468  0.00  0.00    -0.309 N 
ATOM     17  C   UNL     1      -5.442  -9.373   9.351  0.00  0.00    +0.239 C 
ATOM     29  H   UNL     1      -5.066  -9.504  11.391  0.00  0.00    +0.149 HD
BRANCH  17  19
ATOM     19  C   UNL     1      -6.800  -8.824   9.733  0.00  0.00    +0.256 C 
BRANCH  19   3
ATOM      3  O   UNL     1      -6.937  -8.765  11.137  0.00  0.00    -0.359 OA
BRANCH   3  23
ATOM     23  C   UNL     1      -7.930  -9.670  11.612  0.00  0.00    +0.280 C 
BRANCH  23  27
ATOM      6  O   UNL     1      -7.989 -10.423  13.922  0.00  0.00    -0.248 OA
ATOM     27  C   UNL     1      -7.426 -10.380  12.838  0.00  0.00    +0.331 C 
BRANCH  27   5
ATOM      5  O   UNL     1      -6.238 -10.981  12.576  0.00  0.00    -0.479 OA
ATOM     30  H   UNL     1      -5.570 -10.787  13.267  0.00  0.00    +0.295 HD
ENDBRANCH  27   5
ENDBRANCH  23  27
ENDBRANCH   3  23
ENDBRANCH  19   3
ENDBRANCH  17  19
ENDBRANCH  11   8
TORSDOF 9
ENDMDL
MODEL 5
REMARK VINA RESULT:      -6.2      4.285      6.085
REMARK  Name = 25338560
REMARK  11 active torsions:
REMARK  status: ('A' for Active; 'I' for Inactive)
REMARK    1  A    between atoms: O_3  and  C_19
REMARK    2  A    between atoms: O_3  and  C_23
REMARK    3  A    between atoms: O_4  and  C_26
REMARK    4  A    between atoms: O_4  and  C_28
REMARK    5  A    between atoms: O_5  and  C_27
REMARK    6  A    between atoms: N_7  and  C_16
REMARK    7  A    between atoms: N_8  and  C_11
REMARK    8  A    between atoms: C_12  and  C_15
REMARK    9  A    between atoms: C_17  and  C_19
REMARK   10  A    between atoms: C_18  and  C_20
REMARK   11  A    between atoms: C_23  and  C_27
REMARK                            x       y       z     vdW  Elec       q    Type
REMARK                         _______ _______ _______ _____ _____    ______ ____
ROOT
ATOM      7  N   UNL     1      15.690   9.741  20.874  0.00  0.00    -0.293 NA
ATOM     11  C   UNL     1      13.575   8.765  20.966  0.00  0.00    +0.089 C 
ATOM     12  C   UNL     1      15.920   8.470  21.588  0.00  0.00    +0.147 C 
ATOM     13  C   UNL     1      14.563   7.741  21.526  0.00  0.00    +0.052 C 
ATOM     14  C   UNL     1      14.291  10.097  21.128  0.00  0.00    +0.107 C 
ATOM     16  C   UNL     1      16.605  10.801  21.280  0.00  0.00    +0.105 C 
ENDROOT
BRANCH  12  15
ATOM      1  O   UNL     1      16.758   6.914  19.903  0.00  0.00    -0.336 OA
ATOM      9  N   UNL     1      18.288   7.532  21.417  0.00  0.00    -0.190 NA
ATOM     10  N   UNL     1      17.941   6.249  19.555  0.00  0.00    -0.056 NA
ATOM     15  C   UNL     1      17.049   7.647  21.008  0.00  0.00    +0.245 A 
ATOM     18  C   UNL     1      18.796   6.663  20.495  0.00  0.00    +0.202 A 
BRANCH  18  20
ATOM     20  C   UNL     1      20.162   6.232  20.540  0.00  0.00    +0.023 A 
ATOM     21  C   UNL     1      20.464   4.872  20.603  0.00  0.00    +0.015 A 
ATOM     22  C   UNL     1      21.192   7.174  20.521  0.00  0.00    +0.015 A 
ATOM     24  C   UNL     1      21.794   4.453  20.647  0.00  0.00    +0.046 A 
ATOM     25  C   UNL     1      22.521   6.756  20.565  0.00  0.00    +0.046 A 
ATOM     26  C   UNL     1      22.823   5.396  20.628  0.00  0.00    +0.120 A 
BRANCH  26   4
ATOM      4  O   UNL     1      24.120   4.988  20.671  0.00  0.00    -0.495 OA
ATOM     28  C   UNL     1      24.438   3.760  20.017  0.00  0.00    +0.277 C 
ENDBRANCH  26   4
ENDBRANCH  18  20
ENDBRANCH  12  15
BRANCH  11   8
ATOM      2  O   UNL     1      11.943   6.617  19.925  0.00  0.00    -0.273 OA
ATOM      8  N   UNL     1      13.263   8.500  19.582  0.00  0.00    -0.309 N 
ATOM     17  C   UNL     1      12.467   7.440  19.178  0.00  0.00    +0.239 C 
ATOM     29  H   UNL     1      13.695   9.089  18.874  0.00  0.00    +0.149 HD
BRANCH  17  19
ATOM     19  C   UNL     1      12.305   7.402  17.674  0.00  0.00    +0.256 C 
BRANCH  19   3
ATOM      3  O   UNL     1      11.082   7.994  17.289  0.00  0.00    -0.359 OA
BRANCH   3  23
ATOM     23  C   UNL     1      11.226   8.800  16.123  0.00  0.00    +0.280 C 
BRANCH  23  27
ATOM      6  O   UNL     1      13.503   8.906  15.282  0.00  0.00    -0.248 OA
ATOM     27  C   UNL     1      12.634   9.320  16.034  0.00  0.00    +0.331 C 
BRANCH  27   5
ATOM      5  O   UNL     1      12.815  10.332  16.919  0.00  0.00    -0.479 OA
ATOM     30  H   UNL     1      13.764  10.553  17.034  0.00  0.00    +0.295 HD
ENDBRANCH  27   5
ENDBRANCH  23  27
ENDBRANCH   3  23
ENDBRANCH  19   3
ENDBRANCH  17  19
ENDBRANCH  11   8
TORSDOF 9
ENDMDL
MODEL 6
REMARK VINA RESULT:      -6.2     26.983     29.330
REMARK  Name = 25338560
REMARK  11 active torsions:
REMARK  status: ('A' for Active; 'I' for Inactive)
REMARK    1  A    between atoms: O_3  and  C_19
REMARK    2  A    between atoms: O_3  and  C_23
REMARK    3  A    between atoms: O_4  and  C_26
REMARK    4  A    between atoms: O_4  and  C_28
REMARK    5  A    between atoms: O_5  and  C_27
REMARK    6  A    between atoms: N_7  and  C_16
REMARK    7  A    between atoms: N_8  and  C_11
REMARK    8  A    between atoms: C_12  and  C_15
REMARK    9  A    between atoms: C_17  and  C_19
REMARK   10  A    between atoms: C_18  and  C_20
REMARK   11  A    between atoms: C_23  and  C_27
REMARK                            x       y       z     vdW  Elec       q    Type
REMARK                         _______ _______ _______ _____ _____    ______ ____
ROOT
ATOM      7  N   UNL     1      -3.436 -12.104  11.683  0.00  0.00    -0.293 NA
ATOM     11  C   UNL     1      -3.329 -10.225  10.309  0.00  0.00    +0.089 C 
ATOM     12  C   UNL     1      -2.469 -11.223  12.367  0.00  0.00    +0.147 C 
ATOM     13  C   UNL     1      -2.499  -9.913  11.555  0.00  0.00    +0.052 C 
ATOM     14  C   UNL     1      -3.373 -11.744  10.264  0.00  0.00    +0.107 C 
ATOM     16  C   UNL     1      -3.171 -13.523  11.898  0.00  0.00    +0.105 C 
ENDROOT
BRANCH  12  15
ATOM      1  O   UNL     1      -1.734 -10.674  14.631  0.00  0.00    -0.336 OA
ATOM      9  N   UNL     1      -3.927 -11.095  14.459  0.00  0.00    -0.190 NA
ATOM     10  N   UNL     1      -2.260 -10.528  15.921  0.00  0.00    -0.056 NA
ATOM     15  C   UNL     1      -2.781 -11.007  13.832  0.00  0.00    +0.245 A 
ATOM     18  C   UNL     1      -3.557 -10.793  15.738  0.00  0.00    +0.202 A 
BRANCH  18  20
ATOM     20  C   UNL     1      -4.510 -10.762  16.809  0.00  0.00    +0.023 A 
ATOM     21  C   UNL     1      -4.235 -11.420  18.007  0.00  0.00    +0.015 A 
ATOM     22  C   UNL     1      -5.713 -10.073  16.652  0.00  0.00    +0.015 A 
ATOM     24  C   UNL     1      -5.163 -11.390  19.049  0.00  0.00    +0.046 A 
ATOM     25  C   UNL     1      -6.641 -10.043  17.693  0.00  0.00    +0.046 A 
ATOM     26  C   UNL     1      -6.366 -10.701  18.891  0.00  0.00    +0.120 A 
BRANCH  26   4
ATOM      4  O   UNL     1      -7.271 -10.671  19.907  0.00  0.00    -0.495 OA
ATOM     28  C   UNL     1      -8.489 -11.389  19.714  0.00  0.00    +0.277 C 
ENDBRANCH  26   4
ENDBRANCH  18  20
ENDBRANCH  12  15
BRANCH  11   8
ATOM      2  O   UNL     1      -5.067  -9.488   8.118  0.00  0.00    -0.273 OA
ATOM      8  N   UNL     1      -4.655  -9.662  10.400  0.00  0.00    -0.309 N 
ATOM     17  C   UNL     1      -5.415  -9.340   9.286  0.00  0.00    +0.239 C 
ATOM     29  H   UNL     1      -5.019  -9.444  11.324  0.00  0.00    +0.149 HD
BRANCH  17  19
ATOM     19  C   UNL     1      -6.763  -8.770   9.674  0.00  0.00    +0.256 C 
BRANCH  19   3
ATOM      3  O   UNL     1      -7.096  -7.674   8.849  0.00  0.00    -0.359 OA
BRANCH   3  23
ATOM     23  C   UNL     1      -8.358  -7.852   8.212  0.00  0.00    +0.280 C 
BRANCH  23  27
ATOM      6  O   UNL     1      -9.044  -6.921   6.075  0.00  0.00    -0.248 OA
ATOM     27  C   UNL     1      -8.235  -7.545   6.745  0.00  0.00    +0.331 C 
BRANCH  27   5
ATOM      5  O   UNL     1      -7.082  -8.063   6.253  0.00  0.00    -0.479 OA
ATOM     30  H   UNL     1      -6.313  -7.484   6.436  0.00  0.00    +0.295 HD
ENDBRANCH  27   5
ENDBRANCH  23  27
ENDBRANCH   3  23
ENDBRANCH  19   3
ENDBRANCH  17  19
ENDBRANCH  11   8
TORSDOF 9
ENDMDL
MODEL 7
REMARK VINA RESULT:      -6.1     27.259     29.224
REMARK  Name = 25338560
REMARK  11 active torsions:
REMARK  status: ('A' for Active; 'I' for Inactive)
REMARK    1  A    between atoms: O_3  and  C_19
REMARK    2  A    between atoms: O_3  and  C_23
REMARK    3  A    between atoms: O_4  and  C_26
REMARK    4  A    between atoms: O_4  and  C_28
REMARK    5  A    between atoms: O_5  and  C_27
REMARK    6  A    between atoms: N_7  and  C_16
REMARK    7  A    between atoms: N_8  and  C_11
REMARK    8  A    between atoms: C_12  and  C_15
REMARK    9  A    between atoms: C_17  and  C_19
REMARK   10  A    between atoms: C_18  and  C_20
REMARK   11  A    between atoms: C_23  and  C_27
REMARK                            x       y       z     vdW  Elec       q    Type
REMARK                         _______ _______ _______ _____ _____    ______ ____
ROOT
ATOM      7  N   UNL     1      -4.285 -11.356  10.007  0.00  0.00    -0.293 NA
ATOM     11  C   UNL     1      -4.478  -9.316   8.896  0.00  0.00    +0.089 C 
ATOM     12  C   UNL     1      -3.174 -10.553  10.553  0.00  0.00    +0.147 C 
ATOM     13  C   UNL     1      -3.376  -9.151   9.944  0.00  0.00    +0.052 C 
ATOM     14  C   UNL     1      -4.551 -10.818   8.670  0.00  0.00    +0.107 C 
ATOM     16  C   UNL     1      -3.997 -12.786   9.972  0.00  0.00    +0.105 C 
ENDROOT
BRANCH  12  15
ATOM      1  O   UNL     1      -1.905 -10.413  12.635  0.00  0.00    -0.336 OA
ATOM      9  N   UNL     1      -4.117 -10.606  12.925  0.00  0.00    -0.190 NA
ATOM     10  N   UNL     1      -2.117 -10.414  14.020  0.00  0.00    -0.056 NA
ATOM     15  C   UNL     1      -3.132 -10.529  12.065  0.00  0.00    +0.245 A 
ATOM     18  C   UNL     1      -3.445 -10.532  14.110  0.00  0.00    +0.202 A 
BRANCH  18  20
ATOM     20  C   UNL     1      -4.132 -10.575  15.368  0.00  0.00    +0.023 A 
ATOM     21  C   UNL     1      -3.489 -11.079  16.498  0.00  0.00    +0.015 A 
ATOM     22  C   UNL     1      -5.445 -10.111  15.463  0.00  0.00    +0.015 A 
ATOM     24  C   UNL     1      -4.158 -11.121  17.722  0.00  0.00    +0.046 A 
ATOM     25  C   UNL     1      -6.114 -10.153  16.685  0.00  0.00    +0.046 A 
ATOM     26  C   UNL     1      -5.470 -10.658  17.815  0.00  0.00    +0.120 A 
BRANCH  26   4
ATOM      4  O   UNL     1      -6.123 -10.699  19.008  0.00  0.00    -0.495 OA
ATOM     28  C   UNL     1      -7.546 -10.601  18.974  0.00  0.00    +0.277 C 
ENDBRANCH  26   4
ENDBRANCH  18  20
ENDBRANCH  12  15
BRANCH  11   8
ATOM      2  O   UNL     1      -6.926  -9.044   7.382  0.00  0.00    -0.273 OA
ATOM      8  N   UNL     1      -5.739  -8.792   9.365  0.00  0.00    -0.309 N 
ATOM     17  C   UNL     1      -6.863  -8.701   8.560  0.00  0.00    +0.239 C 
ATOM     29  H   UNL     1      -5.780  -8.424  10.312  0.00  0.00    +0.149 HD
BRANCH  17  19
ATOM     19  C   UNL     1      -8.042  -8.118   9.308  0.00  0.00    +0.256 C 
BRANCH  19   3
ATOM      3  O   UNL     1      -8.927  -7.472   8.417  0.00  0.00    -0.359 OA
BRANCH   3  23
ATOM     23  C   UNL     1      -8.573  -6.106   8.214  0.00  0.00    +0.280 C 
BRANCH  23  27
ATOM      6  O   UNL     1     -10.940  -5.561   8.293  0.00  0.00    -0.248 OA
ATOM     27  C   UNL     1      -9.774  -5.230   8.442  0.00  0.00    +0.331 C 
BRANCH  27   5
ATOM      5  O   UNL     1      -9.382  -3.996   8.847  0.00  0.00    -0.479 OA
ATOM     30  H   UNL     1      -8.423  -3.849   8.701  0.00  0.00    +0.295 HD
ENDBRANCH  27   5
ENDBRANCH  23  27
ENDBRANCH   3  23
ENDBRANCH  19   3
ENDBRANCH  17  19
ENDBRANCH  11   8
TORSDOF 9
ENDMDL
MODEL 8
REMARK VINA RESULT:      -6.0     17.166     20.782
REMARK  Name = 25338560
REMARK  11 active torsions:
REMARK  status: ('A' for Active; 'I' for Inactive)
REMARK    1  A    between atoms: O_3  and  C_19
REMARK    2  A    between atoms: O_3  and  C_23
REMARK    3  A    between atoms: O_4  and  C_26
REMARK    4  A    between atoms: O_4  and  C_28
REMARK    5  A    between atoms: O_5  and  C_27
REMARK    6  A    between atoms: N_7  and  C_16
REMARK    7  A    between atoms: N_8  and  C_11
REMARK    8  A    between atoms: C_12  and  C_15
REMARK    9  A    between atoms: C_17  and  C_19
REMARK   10  A    between atoms: C_18  and  C_20
REMARK   11  A    between atoms: C_23  and  C_27
REMARK                            x       y       z     vdW  Elec       q    Type
REMARK                         _______ _______ _______ _____ _____    ______ ____
ROOT
ATOM      7  N   UNL     1      11.363   8.181   0.887  0.00  0.00    -0.293 NA
ATOM     11  C   UNL     1      11.116   6.527  -0.736  0.00  0.00    +0.089 C 
ATOM     12  C   UNL     1       9.934   7.822   0.966  0.00  0.00    +0.147 C 
ATOM     13  C   UNL     1       9.783   6.625   0.007  0.00  0.00    +0.052 C 
ATOM     14  C   UNL     1      11.780   7.871  -0.483  0.00  0.00    +0.107 C 
ATOM     16  C   UNL     1      11.625   9.573   1.236  0.00  0.00    +0.105 C 
ENDROOT
BRANCH  12  15
ATOM      1  O   UNL     1       8.288   8.058   2.756  0.00  0.00    -0.336 OA
ATOM      9  N   UNL     1      10.038   6.765   3.288  0.00  0.00    -0.190 NA
ATOM     10  N   UNL     1       8.069   7.628   4.071  0.00  0.00    -0.056 NA
ATOM     15  C   UNL     1       9.468   7.504   2.370  0.00  0.00    +0.245 A 
ATOM     18  C   UNL     1       9.144   6.871   4.313  0.00  0.00    +0.202 A 
BRANCH  18  20
ATOM     20  C   UNL     1       9.353   6.206   5.566  0.00  0.00    +0.023 A 
ATOM     21  C   UNL     1       9.692   4.854   5.591  0.00  0.00    +0.015 A 
ATOM     22  C   UNL     1       9.217   6.912   6.762  0.00  0.00    +0.015 A 
ATOM     24  C   UNL     1       9.894   4.207   6.810  0.00  0.00    +0.046 A 
ATOM     25  C   UNL     1       9.419   6.266   7.981  0.00  0.00    +0.046 A 
ATOM     26  C   UNL     1       9.758   4.914   8.005  0.00  0.00    +0.120 A 
BRANCH  26   4
ATOM      4  O   UNL     1       9.956   4.283   9.195  0.00  0.00    -0.495 OA
ATOM     28  C   UNL     1       9.011   4.542  10.232  0.00  0.00    +0.277 C 
ENDBRANCH  26   4
ENDBRANCH  18  20
ENDBRANCH  12  15
BRANCH  11   8
ATOM      2  O   UNL     1      10.785   3.709  -1.296  0.00  0.00    -0.273 OA
ATOM      8  N   UNL     1      11.924   5.439  -0.238  0.00  0.00    -0.309 N 
ATOM     17  C   UNL     1      11.685   4.113  -0.564  0.00  0.00    +0.239 C 
ATOM     29  H   UNL     1      12.663   5.658   0.425  0.00  0.00    +0.149 HD
BRANCH  17  19
ATOM     19  C   UNL     1      12.684   3.186   0.095  0.00  0.00    +0.256 C 
BRANCH  19   3
ATOM      3  O   UNL     1      12.932   3.587   1.426  0.00  0.00    -0.359 OA
BRANCH   3  23
ATOM     23  C   UNL     1      14.326   3.612   1.722  0.00  0.00    +0.280 C 
BRANCH  23  27
ATOM      6  O   UNL     1      14.926   5.693   0.620  0.00  0.00    -0.248 OA
ATOM     27  C   UNL     1      14.839   5.023   1.638  0.00  0.00    +0.331 C 
BRANCH  27   5
ATOM      5  O   UNL     1      15.198   5.465   2.870  0.00  0.00    -0.479 OA
ATOM     30  H   UNL     1      14.567   5.175   3.562  0.00  0.00    +0.295 HD
ENDBRANCH  27   5
ENDBRANCH  23  27
ENDBRANCH   3  23
ENDBRANCH  19   3
ENDBRANCH  17  19
ENDBRANCH  11   8
TORSDOF 9
ENDMDL
MODEL 9
REMARK VINA RESULT:      -5.9     26.704     29.331
REMARK  Name = 25338560
REMARK  11 active torsions:
REMARK  status: ('A' for Active; 'I' for Inactive)
REMARK    1  A    between atoms: O_3  and  C_19
REMARK    2  A    between atoms: O_3  and  C_23
REMARK    3  A    between atoms: O_4  and  C_26
REMARK    4  A    between atoms: O_4  and  C_28
REMARK    5  A    between atoms: O_5  and  C_27
REMARK    6  A    between atoms: N_7  and  C_16
REMARK    7  A    between atoms: N_8  and  C_11
REMARK    8  A    between atoms: C_12  and  C_15
REMARK    9  A    between atoms: C_17  and  C_19
REMARK   10  A    between atoms: C_18  and  C_20
REMARK   11  A    between atoms: C_23  and  C_27
REMARK                            x       y       z     vdW  Elec       q    Type
REMARK                         _______ _______ _______ _____ _____    ______ ____
ROOT
ATOM      7  N   UNL     1      -3.095 -12.626  13.910  0.00  0.00    -0.293 NA
ATOM     11  C   UNL     1      -1.721 -11.144  12.748  0.00  0.00    +0.089 C 
ATOM     12  C   UNL     1      -2.753 -11.601  14.916  0.00  0.00    +0.147 C 
ATOM     13  C   UNL     1      -1.971 -10.533  14.128  0.00  0.00    +0.052 C 
ATOM     14  C   UNL     1      -1.990 -12.627  12.947  0.00  0.00    +0.107 C 
ATOM     16  C   UNL     1      -3.315 -13.947  14.489  0.00  0.00    +0.105 C 
ENDROOT
BRANCH  12  15
ATOM      1  O   UNL     1      -3.829 -10.821  16.965  0.00  0.00    -0.336 OA
ATOM      9  N   UNL     1      -5.132 -10.704  15.148  0.00  0.00    -0.190 NA
ATOM     10  N   UNL     1      -5.054 -10.297  17.398  0.00  0.00    -0.056 NA
ATOM     15  C   UNL     1      -3.959 -11.031  15.630  0.00  0.00    +0.245 A 
ATOM     18  C   UNL     1      -5.769 -10.260  16.270  0.00  0.00    +0.202 A 
BRANCH  18  20
ATOM     20  C   UNL     1      -7.121  -9.782  16.228  0.00  0.00    +0.023 A 
ATOM     21  C   UNL     1      -7.877  -9.926  15.066  0.00  0.00    +0.015 A 
ATOM     22  C   UNL     1      -7.679  -9.172  17.352  0.00  0.00    +0.015 A 
ATOM     24  C   UNL     1      -9.191  -9.459  15.026  0.00  0.00    +0.046 A 
ATOM     25  C   UNL     1      -8.992  -8.706  17.313  0.00  0.00    +0.046 A 
ATOM     26  C   UNL     1      -9.749  -8.850  16.150  0.00  0.00    +0.120 A 
BRANCH  26   4
ATOM      4  O   UNL     1     -11.031  -8.395  16.112  0.00  0.00    -0.495 OA
ATOM     28  C   UNL     1     -11.524  -7.946  14.850  0.00  0.00    +0.277 C 
ENDBRANCH  26   4
ENDBRANCH  18  20
ENDBRANCH  12  15
BRANCH  11   8
ATOM      2  O   UNL     1      -1.119  -8.996  10.908  0.00  0.00    -0.273 OA
ATOM      8  N   UNL     1      -2.599 -10.580  11.751  0.00  0.00    -0.309 N 
ATOM     17  C   UNL     1      -2.218  -9.546  10.910  0.00  0.00    +0.239 C 
ATOM     29  H   UNL     1      -3.555 -10.923  11.706  0.00  0.00    +0.149 HD
BRANCH  17  19
ATOM     19  C   UNL     1      -3.332  -9.153   9.964  0.00  0.00    +0.256 C 
BRANCH  19   3
ATOM      3  O   UNL     1      -4.515  -8.864  10.680  0.00  0.00    -0.359 OA
BRANCH   3  23
ATOM     23  C   UNL     1      -5.610  -9.663  10.241  0.00  0.00    +0.280 C 
BRANCH  23  27
ATOM      6  O   UNL     1      -7.485 -10.280  11.659  0.00  0.00    -0.248 OA
ATOM     27  C   UNL     1      -6.286 -10.296  11.426  0.00  0.00    +0.331 C 
BRANCH  27   5
ATOM      5  O   UNL     1      -5.367 -10.900  12.221  0.00  0.00    -0.479 OA
ATOM     30  H   UNL     1      -5.192 -10.384  13.037  0.00  0.00    +0.295 HD
ENDBRANCH  27   5
ENDBRANCH  23  27
ENDBRANCH   3  23
ENDBRANCH  19   3
ENDBRANCH  17  19
ENDBRANCH  11   8
TORSDOF 9
ENDMDL
MODEL 10
REMARK VINA RESULT:      -5.7     15.693     18.144
REMARK  Name = 25338560
REMARK  11 active torsions:
REMARK  status: ('A' for Active; 'I' for Inactive)
REMARK    1  A    between atoms: O_3  and  C_19
REMARK    2  A    between atoms: O_3  and  C_23
REMARK    3  A    between atoms: O_4  and  C_26
REMARK    4  A    between atoms: O_4  and  C_28
REMARK    5  A    between atoms: O_5  and  C_27
REMARK    6  A    between atoms: N_7  and  C_16
REMARK    7  A    between atoms: N_8  and  C_11
REMARK    8  A    between atoms: C_12  and  C_15
REMARK    9  A    between atoms: C_17  and  C_19
REMARK   10  A    between atoms: C_18  and  C_20
REMARK   11  A    between atoms: C_23  and  C_27
REMARK                            x       y       z     vdW  Elec       q    Type
REMARK                         _______ _______ _______ _____ _____    ______ ____
ROOT
ATOM      7  N   UNL     1       9.896   6.143   7.291  0.00  0.00    -0.293 NA
ATOM     11  C   UNL     1       8.783   8.190   7.336  0.00  0.00    +0.089 C 
ATOM     12  C   UNL     1       9.261   6.226   5.962  0.00  0.00    +0.147 C 
ATOM     13  C   UNL     1       8.647   7.639   5.916  0.00  0.00    +0.052 C 
ATOM     14  C   UNL     1       9.070   6.961   8.183  0.00  0.00    +0.107 C 
ATOM     16  C   UNL     1      10.033   4.774   7.777  0.00  0.00    +0.105 C 
ENDROOT
BRANCH  12  15
ATOM      1  O   UNL     1      11.382   6.671   4.835  0.00  0.00    -0.336 OA
ATOM      9  N   UNL     1      10.095   5.162   3.796  0.00  0.00    -0.190 NA
ATOM     10  N   UNL     1      12.093   6.272   3.696  0.00  0.00    -0.056 NA
ATOM     15  C   UNL     1      10.218   5.970   4.818  0.00  0.00    +0.245 A 
ATOM     18  C   UNL     1      11.268   5.382   3.135  0.00  0.00    +0.202 A 
BRANCH  18  20
ATOM     20  C   UNL     1      11.587   4.694   1.918  0.00  0.00    +0.023 A 
ATOM     21  C   UNL     1      12.746   3.922   1.836  0.00  0.00    +0.015 A 
ATOM     22  C   UNL     1      10.738   4.796   0.816  0.00  0.00    +0.015 A 
ATOM     24  C   UNL     1      13.056   3.253   0.652  0.00  0.00    +0.046 A 
ATOM     25  C   UNL     1      11.048   4.128  -0.368  0.00  0.00    +0.046 A 
ATOM     26  C   UNL     1      12.207   3.356  -0.450  0.00  0.00    +0.120 A 
BRANCH  26   4
ATOM      4  O   UNL     1      12.509   2.704  -1.605  0.00  0.00    -0.495 OA
ATOM     28  C   UNL     1      12.977   3.496  -2.696  0.00  0.00    +0.277 C 
ENDBRANCH  26   4
ENDBRANCH  18  20
ENDBRANCH  12  15
BRANCH  11   8
ATOM      2  O   UNL     1       9.039  10.327   9.267  0.00  0.00    -0.273 OA
ATOM      8  N   UNL     1       9.852   9.156   7.430  0.00  0.00    -0.309 N 
ATOM     17  C   UNL     1       9.887  10.149   8.396  0.00  0.00    +0.239 C 
ATOM     29  H   UNL     1      10.579   9.134   6.720  0.00  0.00    +0.149 HD
BRANCH  17  19
ATOM     19  C   UNL     1      11.119  11.017   8.263  0.00  0.00    +0.256 C 
BRANCH  19   3
ATOM      3  O   UNL     1      11.799  10.735   7.057  0.00  0.00    -0.359 OA
BRANCH   3  23
ATOM     23  C   UNL     1      13.139  10.311   7.290  0.00  0.00    +0.280 C 
BRANCH  23  27
ATOM      6  O   UNL     1      14.249   8.762   5.782  0.00  0.00    -0.248 OA
ATOM     27  C   UNL     1      13.381   8.992   6.611  0.00  0.00    +0.331 C 
BRANCH  27   5
ATOM      5  O   UNL     1      12.488   8.069   7.050  0.00  0.00    -0.479 OA
ATOM     30  H   UNL     1      11.908   7.748   6.328  0.00  0.00    +0.295 HD
ENDBRANCH  27   5
ENDBRANCH  23  27
ENDBRANCH   3  23
ENDBRANCH  19   3
ENDBRANCH  17  19
ENDBRANCH  11   8
TORSDOF 9
ENDMDL
