MODEL 1
REMARK VINA RESULT:      -7.3      0.000      0.000
REMARK  Name = 11882025
REMARK  10 active torsions:
REMARK  status: ('A' for Active; 'I' for Inactive)
REMARK    1  A    between atoms: S_1  and  C_21
REMARK    2  A    between atoms: S_1  and  C_32
REMARK    3  A    between atoms: N_9  and  C_14
REMARK    4  A    between atoms: N_10  and  C_20
REMARK    5  A    between atoms: N_11  and  C_29
REMARK    6  A    between atoms: C_15  and  C_18
REMARK    7  A    between atoms: C_19  and  C_21
REMARK    8  A    between atoms: C_20  and  C_23
REMARK    9  A    between atoms: C_20  and  C_25
REMARK   10  A    between atoms: C_23  and  C_24
REMARK                            x       y       z     vdW  Elec       q    Type
REMARK                         _______ _______ _______ _____ _____    ______ ____
ROOT
ATOM      5  O   UNL     1      14.182  14.412  26.037  0.00  0.00    -0.275 OA
ATOM      8  N   UNL     1      15.820  13.738  24.547  0.00  0.00    -0.287 N 
ATOM     14  C   UNL     1      17.174  12.867  22.800  0.00  0.00    +0.094 C 
ATOM     15  C   UNL     1      14.926  13.498  23.424  0.00  0.00    +0.164 C 
ATOM     16  C   UNL     1      15.843  13.345  22.212  0.00  0.00    +0.055 C 
ATOM     17  C   UNL     1      17.219  13.540  24.168  0.00  0.00    +0.131 C 
ATOM     19  C   UNL     1      15.371  14.259  25.751  0.00  0.00    +0.226 C 
ENDROOT
BRANCH  14   9
ATOM      6  O   UNL     1      17.780  11.015  20.701  0.00  0.00    -0.252 OA
ATOM      9  N   UNL     1      17.229  11.431  22.907  0.00  0.00    -0.295 N 
ATOM     11  N   UNL     1      17.513   9.254  22.229  0.00  0.00    -0.267 N 
ATOM     22  C   UNL     1      17.534  10.593  21.828  0.00  0.00    +0.304 C 
ATOM     40  H   UNL     1      16.972  11.002  23.791  0.00  0.00    +0.151 HD
ATOM     42  H   UNL     1      17.287   9.070  23.203  0.00  0.00    +0.156 HD
BRANCH  11  29
ATOM      2  F   UNL     1      15.541   8.132  20.610  0.00  0.00    -0.203 F 
ATOM      3  F   UNL     1      18.519   4.763  19.140  0.00  0.00    -0.205 F 
ATOM     29  C   UNL     1      17.766   8.107  21.440  0.00  0.00    +0.070 A 
ATOM     35  C   UNL     1      16.758   7.570  20.639  0.00  0.00    +0.147 A 
ATOM     36  C   UNL     1      19.029   7.514  21.464  0.00  0.00    +0.029 A 
ATOM     37  C   UNL     1      17.013   6.440  19.863  0.00  0.00    +0.078 A 
ATOM     38  C   UNL     1      19.283   6.384  20.687  0.00  0.00    +0.040 A 
ATOM     39  C   UNL     1      18.274   5.847  19.886  0.00  0.00    +0.126 A 
ENDBRANCH  11  29
ENDBRANCH  14   9
BRANCH  15  18
ATOM      4  O   UNL     1      14.594  11.339  24.388  0.00  0.00    -0.274 OA
ATOM     10  N   UNL     1      12.924  12.241  23.040  0.00  0.00    -0.302 N 
ATOM     18  C   UNL     1      14.148  12.243  23.688  0.00  0.00    +0.234 C 
ATOM     41  H   UNL     1      12.622  13.082  22.557  0.00  0.00    +0.150 HD
BRANCH  10  20
ATOM     20  C   UNL     1      11.993  11.137  23.114  0.00  0.00    +0.163 C 
BRANCH  20  25
ATOM      7  O   UNL     1      11.269  10.988  25.429  0.00  0.00    -0.274 OA
ATOM     13  N   UNL     1      10.007  12.224  23.960  0.00  0.00    -0.328 N 
ATOM     25  C   UNL     1      11.069  11.409  24.292  0.00  0.00    +0.231 C 
ATOM     44  H   UNL     1       9.868  12.585  23.021  0.00  0.00    +0.145 HD
ATOM     45  H   UNL     1       9.322  12.495  24.657  0.00  0.00    +0.145 HD
ENDBRANCH  20  25
BRANCH  20  23
ATOM     23  C   UNL     1      11.183  10.975  21.822  0.00  0.00    +0.069 C 
BRANCH  23  24
ATOM     12  N   UNL     1      11.196   7.464  20.734  0.00  0.00    -0.360 N 
ATOM     24  C   UNL     1      11.369   9.633  21.174  0.00  0.00    -0.020 A 
ATOM     26  C   UNL     1      12.183   9.341  20.045  0.00  0.00    +0.003 A 
ATOM     27  C   UNL     1      10.775   8.457  21.575  0.00  0.00    +0.087 A 
ATOM     28  C   UNL     1      12.057   7.975  19.789  0.00  0.00    +0.047 A 
ATOM     30  C   UNL     1      13.019  10.113  19.212  0.00  0.00    +0.010 A 
ATOM     31  C   UNL     1      12.727   7.338  18.739  0.00  0.00    +0.026 A 
ATOM     33  C   UNL     1      13.695   9.490  18.158  0.00  0.00    +0.001 A 
ATOM     34  C   UNL     1      13.550   8.123  17.925  0.00  0.00    +0.002 A 
ATOM     43  H   UNL     1      10.916   6.495  20.797  0.00  0.00    +0.165 HD
ENDBRANCH  23  24
ENDBRANCH  20  23
ENDBRANCH  10  20
ENDBRANCH  15  18
BRANCH  19  21
ATOM     21  C   UNL     1      16.446  14.634  26.740  0.00  0.00    +0.164 C 
BRANCH  21   1
ATOM      1  S   UNL     1      16.368  13.462  28.102  0.00  0.00    -0.155 S 
ATOM     32  C   UNL     1      18.087  12.894  28.082  0.00  0.00    +0.085 C 
ENDBRANCH  21   1
ENDBRANCH  19  21
TORSDOF 9
ENDMDL
MODEL 2
REMARK VINA RESULT:      -7.0     30.513     32.383
REMARK  Name = 11882025
REMARK  10 active torsions:
REMARK  status: ('A' for Active; 'I' for Inactive)
REMARK    1  A    between atoms: S_1  and  C_21
REMARK    2  A    between atoms: S_1  and  C_32
REMARK    3  A    between atoms: N_9  and  C_14
REMARK    4  A    between atoms: N_10  and  C_20
REMARK    5  A    between atoms: N_11  and  C_29
REMARK    6  A    between atoms: C_15  and  C_18
REMARK    7  A    between atoms: C_19  and  C_21
REMARK    8  A    between atoms: C_20  and  C_23
REMARK    9  A    between atoms: C_20  and  C_25
REMARK   10  A    between atoms: C_23  and  C_24
REMARK                            x       y       z     vdW  Elec       q    Type
REMARK                         _______ _______ _______ _____ _____    ______ ____
ROOT
ATOM      5  O   UNL     1     -14.562  10.037  33.252  0.00  0.00    -0.275 OA
ATOM      8  N   UNL     1     -16.044   8.899  31.886  0.00  0.00    -0.287 N 
ATOM     14  C   UNL     1     -17.482   7.394  30.741  0.00  0.00    +0.094 C 
ATOM     15  C   UNL     1     -16.327   7.819  32.820  0.00  0.00    +0.164 C 
ATOM     16  C   UNL     1     -17.546   7.103  32.244  0.00  0.00    +0.055 C 
ATOM     17  C   UNL     1     -16.857   8.784  30.675  0.00  0.00    +0.131 C 
ATOM     19  C   UNL     1     -15.234   9.974  32.221  0.00  0.00    +0.226 C 
ENDROOT
BRANCH  14   9
ATOM      6  O   UNL     1     -18.460   5.213  29.162  0.00  0.00    -0.252 OA
ATOM      9  N   UNL     1     -16.690   6.416  30.038  0.00  0.00    -0.295 N 
ATOM     11  N   UNL     1     -16.241   4.588  28.720  0.00  0.00    -0.267 N 
ATOM     22  C   UNL     1     -17.248   5.376  29.285  0.00  0.00    +0.304 C 
ATOM     40  H   UNL     1     -15.680   6.444  30.146  0.00  0.00    +0.151 HD
ATOM     42  H   UNL     1     -15.281   4.857  28.922  0.00  0.00    +0.156 HD
BRANCH  11  29
ATOM      2  F   UNL     1     -16.850   2.086  29.786  0.00  0.00    -0.203 F 
ATOM      3  F   UNL     1     -16.824   0.130  25.479  0.00  0.00    -0.205 F 
ATOM     29  C   UNL     1     -16.389   3.448  27.896  0.00  0.00    +0.070 A 
ATOM     35  C   UNL     1     -16.695   2.209  28.460  0.00  0.00    +0.147 A 
ATOM     36  C   UNL     1     -16.230   3.566  26.515  0.00  0.00    +0.029 A 
ATOM     37  C   UNL     1     -16.841   1.089  27.643  0.00  0.00    +0.078 A 
ATOM     38  C   UNL     1     -16.376   2.444  25.699  0.00  0.00    +0.040 A 
ATOM     39  C   UNL     1     -16.682   1.205  26.263  0.00  0.00    +0.126 A 
ENDBRANCH  11  29
ENDBRANCH  14   9
BRANCH  15  18
ATOM      4  O   UNL     1     -14.190   7.029  32.107  0.00  0.00    -0.274 OA
ATOM     10  N   UNL     1     -15.255   5.956  33.878  0.00  0.00    -0.302 N 
ATOM     18  C   UNL     1     -15.134   6.913  32.883  0.00  0.00    +0.234 C 
ATOM     41  H   UNL     1     -16.043   6.010  34.517  0.00  0.00    +0.150 HD
BRANCH  10  20
ATOM     20  C   UNL     1     -14.251   4.948  34.130  0.00  0.00    +0.163 C 
BRANCH  20  25
ATOM      7  O   UNL     1     -13.336   5.940  36.152  0.00  0.00    -0.274 OA
ATOM     13  N   UNL     1     -14.407   3.913  36.309  0.00  0.00    -0.328 N 
ATOM     25  C   UNL     1     -13.925   5.004  35.615  0.00  0.00    +0.231 C 
ATOM     44  H   UNL     1     -14.914   3.159  35.856  0.00  0.00    +0.145 HD
ATOM     45  H   UNL     1     -14.270   3.832  37.311  0.00  0.00    +0.145 HD
ENDBRANCH  20  25
BRANCH  20  23
ATOM     23  C   UNL     1     -14.727   3.544  33.737  0.00  0.00    +0.069 C 
BRANCH  23  24
ATOM     12  N   UNL     1     -12.974   2.995  30.554  0.00  0.00    -0.360 N 
ATOM     24  C   UNL     1     -14.136   3.061  32.444  0.00  0.00    -0.020 A 
ATOM     26  C   UNL     1     -14.346   1.793  31.837  0.00  0.00    +0.003 A 
ATOM     27  C   UNL     1     -13.287   3.778  31.632  0.00  0.00    +0.087 A 
ATOM     28  C   UNL     1     -13.606   1.777  30.653  0.00  0.00    +0.047 A 
ATOM     30  C   UNL     1     -15.098   0.651  32.182  0.00  0.00    +0.010 A 
ATOM     31  C   UNL     1     -13.580   0.673  29.793  0.00  0.00    +0.026 A 
ATOM     33  C   UNL     1     -15.081  -0.460  31.332  0.00  0.00    +0.001 A 
ATOM     34  C   UNL     1     -14.333  -0.448  30.156  0.00  0.00    +0.002 A 
ATOM     43  H   UNL     1     -12.366   3.271  29.795  0.00  0.00    +0.165 HD
ENDBRANCH  23  24
ENDBRANCH  20  23
ENDBRANCH  10  20
ENDBRANCH  15  18
BRANCH  19  21
ATOM     21  C   UNL     1     -15.202  11.101  31.220  0.00  0.00    +0.164 C 
BRANCH  21   1
ATOM      1  S   UNL     1     -13.767  10.852  30.164  0.00  0.00    -0.155 S 
ATOM     32  C   UNL     1     -14.426  11.549  28.629  0.00  0.00    +0.085 C 
ENDBRANCH  21   1
ENDBRANCH  19  21
TORSDOF 9
ENDMDL
MODEL 3
REMARK VINA RESULT:      -6.7     28.519     31.687
REMARK  Name = 11882025
REMARK  10 active torsions:
REMARK  status: ('A' for Active; 'I' for Inactive)
REMARK    1  A    between atoms: S_1  and  C_21
REMARK    2  A    between atoms: S_1  and  C_32
REMARK    3  A    between atoms: N_9  and  C_14
REMARK    4  A    between atoms: N_10  and  C_20
REMARK    5  A    between atoms: N_11  and  C_29
REMARK    6  A    between atoms: C_15  and  C_18
REMARK    7  A    between atoms: C_19  and  C_21
REMARK    8  A    between atoms: C_20  and  C_23
REMARK    9  A    between atoms: C_20  and  C_25
REMARK   10  A    between atoms: C_23  and  C_24
REMARK                            x       y       z     vdW  Elec       q    Type
REMARK                         _______ _______ _______ _____ _____    ______ ____
ROOT
ATOM      5  O   UNL     1      -6.078 -10.122  17.243  0.00  0.00    -0.275 OA
ATOM      8  N   UNL     1      -7.255 -10.570  15.301  0.00  0.00    -0.287 N 
ATOM     14  C   UNL     1      -8.085 -11.173  13.158  0.00  0.00    +0.094 C 
ATOM     15  C   UNL     1      -6.302 -11.522  14.751  0.00  0.00    +0.164 C 
ATOM     16  C   UNL     1      -7.037 -12.201  13.598  0.00  0.00    +0.055 C 
ATOM     17  C   UNL     1      -8.444 -10.455  14.455  0.00  0.00    +0.131 C 
ATOM     19  C   UNL     1      -7.096 -10.004  16.557  0.00  0.00    +0.226 C 
ENDROOT
BRANCH  14   9
ATOM      6  O   UNL     1      -9.269 -10.526  10.631  0.00  0.00    -0.252 OA
ATOM      9  N   UNL     1      -7.562 -10.264  12.169  0.00  0.00    -0.295 N 
ATOM     11  N   UNL     1      -7.469  -9.084  10.199  0.00  0.00    -0.267 N 
ATOM     22  C   UNL     1      -8.205 -10.001  10.953  0.00  0.00    +0.304 C 
ATOM     40  H   UNL     1      -6.653  -9.842  12.332  0.00  0.00    +0.151 HD
ATOM     42  H   UNL     1      -6.602  -8.744  10.610  0.00  0.00    +0.156 HD
BRANCH  11  29
ATOM      2  F   UNL     1      -7.346 -10.668   7.910  0.00  0.00    -0.203 F 
ATOM      3  F   UNL     1      -8.686  -7.031   5.196  0.00  0.00    -0.205 F 
ATOM     29  C   UNL     1      -7.778  -8.562   8.921  0.00  0.00    +0.070 A 
ATOM     35  C   UNL     1      -7.707  -9.382   7.794  0.00  0.00    +0.147 A 
ATOM     36  C   UNL     1      -8.154  -7.226   8.790  0.00  0.00    +0.029 A 
ATOM     37  C   UNL     1      -8.014  -8.864   6.536  0.00  0.00    +0.078 A 
ATOM     38  C   UNL     1      -8.461  -6.709   7.531  0.00  0.00    +0.040 A 
ATOM     39  C   UNL     1      -8.391  -7.528   6.404  0.00  0.00    +0.126 A 
ENDBRANCH  11  29
ENDBRANCH  14   9
BRANCH  15  18
ATOM      4  O   UNL     1      -5.193  -9.749  13.601  0.00  0.00    -0.274 OA
ATOM     10  N   UNL     1      -3.913 -11.384  14.651  0.00  0.00    -0.302 N 
ATOM     18  C   UNL     1      -5.096 -10.773  14.270  0.00  0.00    +0.234 C 
ATOM     41  H   UNL     1      -3.953 -12.182  15.279  0.00  0.00    +0.150 HD
BRANCH  10  20
ATOM     20  C   UNL     1      -2.609 -10.874  14.295  0.00  0.00    +0.163 C 
BRANCH  20  25
ATOM      7  O   UNL     1      -0.700 -10.218  15.648  0.00  0.00    -0.274 OA
ATOM     13  N   UNL     1      -2.519 -11.156  16.694  0.00  0.00    -0.328 N 
ATOM     25  C   UNL     1      -1.820 -10.720  15.586  0.00  0.00    +0.231 C 
ATOM     44  H   UNL     1      -3.454 -11.545  16.630  0.00  0.00    +0.145 HD
ATOM     45  H   UNL     1      -2.112 -11.097  17.621  0.00  0.00    +0.145 HD
ENDBRANCH  20  25
BRANCH  20  23
ATOM     23  C   UNL     1      -1.869 -11.800  13.321  0.00  0.00    +0.069 C 
BRANCH  23  24
ATOM     12  N   UNL     1      -3.759 -13.176  10.485  0.00  0.00    -0.360 N 
ATOM     24  C   UNL     1      -2.652 -12.090  12.073  0.00  0.00    -0.020 A 
ATOM     26  C   UNL     1      -3.078 -11.144  11.100  0.00  0.00    +0.003 A 
ATOM     27  C   UNL     1      -3.086 -13.331  11.667  0.00  0.00    +0.087 A 
ATOM     28  C   UNL     1      -3.770 -11.851  10.116  0.00  0.00    +0.047 A 
ATOM     30  C   UNL     1      -2.941  -9.747  10.963  0.00  0.00    +0.010 A 
ATOM     31  C   UNL     1      -4.334 -11.230   8.995  0.00  0.00    +0.026 A 
ATOM     33  C   UNL     1      -3.500  -9.113   9.848  0.00  0.00    +0.001 A 
ATOM     34  C   UNL     1      -4.186  -9.844   8.880  0.00  0.00    +0.002 A 
ATOM     43  H   UNL     1      -4.186 -13.927   9.960  0.00  0.00    +0.165 HD
ENDBRANCH  23  24
ENDBRANCH  20  23
ENDBRANCH  10  20
ENDBRANCH  15  18
BRANCH  19  21
ATOM     21  C   UNL     1      -8.264  -9.195  17.060  0.00  0.00    +0.164 C 
BRANCH  21   1
ATOM      1  S   UNL     1      -9.218 -10.243  18.167  0.00  0.00    -0.155 S 
ATOM     32  C   UNL     1     -10.870  -9.929  17.495  0.00  0.00    +0.085 C 
ENDBRANCH  21   1
ENDBRANCH  19  21
TORSDOF 9
ENDMDL
MODEL 4
REMARK VINA RESULT:      -6.4     29.500     31.692
REMARK  Name = 11882025
REMARK  10 active torsions:
REMARK  status: ('A' for Active; 'I' for Inactive)
REMARK    1  A    between atoms: S_1  and  C_21
REMARK    2  A    between atoms: S_1  and  C_32
REMARK    3  A    between atoms: N_9  and  C_14
REMARK    4  A    between atoms: N_10  and  C_20
REMARK    5  A    between atoms: N_11  and  C_29
REMARK    6  A    between atoms: C_15  and  C_18
REMARK    7  A    between atoms: C_19  and  C_21
REMARK    8  A    between atoms: C_20  and  C_23
REMARK    9  A    between atoms: C_20  and  C_25
REMARK   10  A    between atoms: C_23  and  C_24
REMARK                            x       y       z     vdW  Elec       q    Type
REMARK                         _______ _______ _______ _____ _____    ______ ____
ROOT
ATOM      5  O   UNL     1      -9.344 -11.180  19.844  0.00  0.00    -0.275 OA
ATOM      8  N   UNL     1      -7.209 -11.686  19.107  0.00  0.00    -0.287 N 
ATOM     14  C   UNL     1      -5.028 -11.811  18.172  0.00  0.00    +0.094 C 
ATOM     15  C   UNL     1      -6.797 -10.313  18.853  0.00  0.00    +0.164 C 
ATOM     16  C   UNL     1      -5.285 -10.381  18.656  0.00  0.00    +0.055 C 
ATOM     17  C   UNL     1      -6.109 -12.624  18.878  0.00  0.00    +0.131 C 
ATOM     19  C   UNL     1      -8.439 -11.998  19.665  0.00  0.00    +0.226 C 
ENDROOT
BRANCH  14   9
ATOM      6  O   UNL     1      -3.549 -10.306  16.236  0.00  0.00    -0.252 OA
ATOM      9  N   UNL     1      -5.128 -11.919  16.738  0.00  0.00    -0.295 N 
ATOM     11  N   UNL     1      -4.675 -11.464  14.532  0.00  0.00    -0.267 N 
ATOM     22  C   UNL     1      -4.366 -11.143  15.856  0.00  0.00    +0.304 C 
ATOM     40  H   UNL     1      -5.829 -12.541  16.347  0.00  0.00    +0.151 HD
ATOM     42  H   UNL     1      -5.380 -12.182  14.387  0.00  0.00    +0.156 HD
BRANCH  11  29
ATOM      2  F   UNL     1      -1.997 -11.833  13.854  0.00  0.00    -0.203 F 
ATOM      3  F   UNL     1      -2.537  -9.284   9.905  0.00  0.00    -0.205 F 
ATOM     29  C   UNL     1      -4.126 -10.908  13.352  0.00  0.00    +0.070 A 
ATOM     35  C   UNL     1      -2.781 -11.111  13.041  0.00  0.00    +0.147 A 
ATOM     36  C   UNL     1      -4.934 -10.155  12.500  0.00  0.00    +0.029 A 
ATOM     37  C   UNL     1      -2.245 -10.563  11.877  0.00  0.00    +0.078 A 
ATOM     38  C   UNL     1      -4.397  -9.607  11.335  0.00  0.00    +0.040 A 
ATOM     39  C   UNL     1      -3.052  -9.810  11.023  0.00  0.00    +0.126 A 
ENDBRANCH  11  29
ENDBRANCH  14   9
BRANCH  15  18
ATOM      4  O   UNL     1      -6.943  -9.827  16.521  0.00  0.00    -0.274 OA
ATOM     10  N   UNL     1      -8.772  -9.365  17.884  0.00  0.00    -0.302 N 
ATOM     18  C   UNL     1      -7.492  -9.823  17.618  0.00  0.00    +0.234 C 
ATOM     41  H   UNL     1      -9.154  -9.491  18.818  0.00  0.00    +0.150 HD
BRANCH  10  20
ATOM     20  C   UNL     1      -9.644  -8.820  16.869  0.00  0.00    +0.163 C 
BRANCH  20  25
ATOM      7  O   UNL     1     -10.654 -10.218  15.157  0.00  0.00    -0.274 OA
ATOM     13  N   UNL     1     -11.040 -10.730  17.363  0.00  0.00    -0.328 N 
ATOM     25  C   UNL     1     -10.498  -9.967  16.350  0.00  0.00    +0.231 C 
ATOM     44  H   UNL     1     -10.883 -10.525  18.344  0.00  0.00    +0.145 HD
ATOM     45  H   UNL     1     -11.621 -11.535  17.154  0.00  0.00    +0.145 HD
ENDBRANCH  20  25
BRANCH  20  23
ATOM     23  C   UNL     1     -10.531  -7.692  17.410  0.00  0.00    +0.069 C 
BRANCH  23  24
ATOM     12  N   UNL     1     -11.585  -5.495  14.659  0.00  0.00    -0.360 N 
ATOM     24  C   UNL     1     -11.220  -6.913  16.327  0.00  0.00    -0.020 A 
ATOM     26  C   UNL     1     -12.591  -7.001  15.959  0.00  0.00    +0.003 A 
ATOM     27  C   UNL     1     -10.627  -5.978  15.509  0.00  0.00    +0.087 A 
ATOM     28  C   UNL     1     -12.794  -6.102  14.911  0.00  0.00    +0.047 A 
ATOM     30  C   UNL     1     -13.683  -7.764  16.420  0.00  0.00    +0.010 A 
ATOM     31  C   UNL     1     -14.039  -5.926  14.297  0.00  0.00    +0.026 A 
ATOM     33  C   UNL     1     -14.935  -7.598  15.816  0.00  0.00    +0.001 A 
ATOM     34  C   UNL     1     -15.108  -6.693  14.770  0.00  0.00    +0.002 A 
ATOM     43  H   UNL     1     -11.427  -4.793  13.948  0.00  0.00    +0.165 HD
ENDBRANCH  23  24
ENDBRANCH  20  23
ENDBRANCH  10  20
ENDBRANCH  15  18
BRANCH  19  21
ATOM     21  C   UNL     1      -8.633 -13.444  20.047  0.00  0.00    +0.164 C 
BRANCH  21   1
ATOM      1  S   UNL     1     -10.337 -13.643  20.585  0.00  0.00    -0.155 S 
ATOM     32  C   UNL     1     -11.040 -14.296  19.050  0.00  0.00    +0.085 C 
ENDBRANCH  21   1
ENDBRANCH  19  21
TORSDOF 9
ENDMDL
MODEL 5
REMARK VINA RESULT:      -6.3     28.261     32.171
REMARK  Name = 11882025
REMARK  10 active torsions:
REMARK  status: ('A' for Active; 'I' for Inactive)
REMARK    1  A    between atoms: S_1  and  C_21
REMARK    2  A    between atoms: S_1  and  C_32
REMARK    3  A    between atoms: N_9  and  C_14
REMARK    4  A    between atoms: N_10  and  C_20
REMARK    5  A    between atoms: N_11  and  C_29
REMARK    6  A    between atoms: C_15  and  C_18
REMARK    7  A    between atoms: C_19  and  C_21
REMARK    8  A    between atoms: C_20  and  C_23
REMARK    9  A    between atoms: C_20  and  C_25
REMARK   10  A    between atoms: C_23  and  C_24
REMARK                            x       y       z     vdW  Elec       q    Type
REMARK                         _______ _______ _______ _____ _____    ______ ____
ROOT
ATOM      5  O   UNL     1      -3.946 -12.143   9.719  0.00  0.00    -0.275 OA
ATOM      8  N   UNL     1      -5.621 -10.949  10.781  0.00  0.00    -0.287 N 
ATOM     14  C   UNL     1      -7.040  -9.644  12.169  0.00  0.00    +0.094 C 
ATOM     15  C   UNL     1      -4.742 -10.151  11.621  0.00  0.00    +0.164 C 
ATOM     16  C   UNL     1      -5.630  -9.047  12.190  0.00  0.00    +0.055 C 
ATOM     17  C   UNL     1      -7.021 -10.556  10.946  0.00  0.00    +0.131 C 
ATOM     19  C   UNL     1      -5.134 -11.834   9.830  0.00  0.00    +0.226 C 
ENDROOT
BRANCH  14   9
ATOM      6  O   UNL     1      -9.099  -9.056  14.071  0.00  0.00    -0.252 OA
ATOM      9  N   UNL     1      -7.331 -10.375  13.377  0.00  0.00    -0.295 N 
ATOM     11  N   UNL     1      -8.405 -10.907  15.338  0.00  0.00    -0.267 N 
ATOM     22  C   UNL     1      -8.360 -10.021  14.258  0.00  0.00    +0.304 C 
ATOM     40  H   UNL     1      -6.722 -11.146  13.635  0.00  0.00    +0.151 HD
ATOM     42  H   UNL     1      -7.717 -11.656  15.345  0.00  0.00    +0.156 HD
BRANCH  11  29
ATOM      2  F   UNL     1      -8.311  -8.897  17.266  0.00  0.00    -0.203 F 
ATOM      3  F   UNL     1     -11.903 -10.860  19.637  0.00  0.00    -0.205 F 
ATOM     29  C   UNL     1      -9.296 -10.893  16.437  0.00  0.00    +0.070 A 
ATOM     35  C   UNL     1      -9.223  -9.872  17.385  0.00  0.00    +0.147 A 
ATOM     36  C   UNL     1     -10.248 -11.903  16.570  0.00  0.00    +0.029 A 
ATOM     37  C   UNL     1     -10.104  -9.861  18.466  0.00  0.00    +0.078 A 
ATOM     38  C   UNL     1     -11.130 -11.891  17.652  0.00  0.00    +0.040 A 
ATOM     39  C   UNL     1     -11.057 -10.870  18.600  0.00  0.00    +0.126 A 
ENDBRANCH  11  29
ENDBRANCH  14   9
BRANCH  15  18
ATOM      4  O   UNL     1      -4.232 -12.250  12.637  0.00  0.00    -0.274 OA
ATOM     10  N   UNL     1      -3.664 -10.290  13.756  0.00  0.00    -0.302 N 
ATOM     18  C   UNL     1      -4.187 -11.025  12.705  0.00  0.00    +0.234 C 
ATOM     41  H   UNL     1      -3.602  -9.279  13.664  0.00  0.00    +0.150 HD
BRANCH  10  20
ATOM     20  C   UNL     1      -3.089 -10.894  14.935  0.00  0.00    +0.163 C 
BRANCH  20  25
ATOM      7  O   UNL     1      -1.160  -9.570  14.280  0.00  0.00    -0.274 OA
ATOM     13  N   UNL     1      -0.959 -10.991  16.074  0.00  0.00    -0.328 N 
ATOM     25  C   UNL     1      -1.648 -10.414  15.027  0.00  0.00    +0.231 C 
ATOM     44  H   UNL     1      -1.383 -11.669  16.698  0.00  0.00    +0.145 HD
ATOM     45  H   UNL     1       0.008 -10.747  16.256  0.00  0.00    +0.145 HD
ENDBRANCH  20  25
BRANCH  20  23
ATOM     23  C   UNL     1      -3.859 -10.528  16.210  0.00  0.00    +0.069 C 
BRANCH  23  24
ATOM     12  N   UNL     1      -6.074 -13.430  16.637  0.00  0.00    -0.360 N 
ATOM     24  C   UNL     1      -4.849 -11.579  16.623  0.00  0.00    -0.020 A 
ATOM     26  C   UNL     1      -5.674 -11.559  17.782  0.00  0.00    +0.003 A 
ATOM     27  C   UNL     1      -5.118 -12.743  15.939  0.00  0.00    +0.087 A 
ATOM     28  C   UNL     1      -6.433 -12.730  17.766  0.00  0.00    +0.047 A 
ATOM     30  C   UNL     1      -5.848 -10.651  18.846  0.00  0.00    +0.010 A 
ATOM     31  C   UNL     1      -7.361 -13.042  18.766  0.00  0.00    +0.026 A 
ATOM     33  C   UNL     1      -6.774 -10.950  19.853  0.00  0.00    +0.001 A 
ATOM     34  C   UNL     1      -7.518 -12.128  19.812  0.00  0.00    +0.002 A 
ATOM     43  H   UNL     1      -6.462 -14.322  16.362  0.00  0.00    +0.165 HD
ENDBRANCH  23  24
ENDBRANCH  20  23
ENDBRANCH  10  20
ENDBRANCH  15  18
BRANCH  19  21
ATOM     21  C   UNL     1      -6.166 -12.434   8.909  0.00  0.00    +0.164 C 
BRANCH  21   1
ATOM      1  S   UNL     1      -5.712 -12.002   7.223  0.00  0.00    -0.155 S 
ATOM     32  C   UNL     1      -6.245 -10.273   7.224  0.00  0.00    +0.085 C 
ENDBRANCH  21   1
ENDBRANCH  19  21
TORSDOF 9
ENDMDL
MODEL 6
REMARK VINA RESULT:      -6.2     16.374     19.386
REMARK  Name = 11882025
REMARK  10 active torsions:
REMARK  status: ('A' for Active; 'I' for Inactive)
REMARK    1  A    between atoms: S_1  and  C_21
REMARK    2  A    between atoms: S_1  and  C_32
REMARK    3  A    between atoms: N_9  and  C_14
REMARK    4  A    between atoms: N_10  and  C_20
REMARK    5  A    between atoms: N_11  and  C_29
REMARK    6  A    between atoms: C_15  and  C_18
REMARK    7  A    between atoms: C_19  and  C_21
REMARK    8  A    between atoms: C_20  and  C_23
REMARK    9  A    between atoms: C_20  and  C_25
REMARK   10  A    between atoms: C_23  and  C_24
REMARK                            x       y       z     vdW  Elec       q    Type
REMARK                         _______ _______ _______ _____ _____    ______ ____
ROOT
ATOM      5  O   UNL     1      11.334  10.768   7.044  0.00  0.00    -0.275 OA
ATOM      8  N   UNL     1      11.102   8.544   6.447  0.00  0.00    -0.287 N 
ATOM     14  C   UNL     1      11.293   6.246   5.874  0.00  0.00    +0.094 C 
ATOM     15  C   UNL     1      12.389   8.103   6.963  0.00  0.00    +0.164 C 
ATOM     16  C   UNL     1      12.318   6.578   6.963  0.00  0.00    +0.055 C 
ATOM     17  C   UNL     1      10.319   7.419   5.933  0.00  0.00    +0.131 C 
ATOM     19  C   UNL     1      10.645   9.844   6.607  0.00  0.00    +0.226 C 
ENDROOT
BRANCH  14   9
ATOM      6  O   UNL     1      10.453   4.539   3.733  0.00  0.00    -0.252 OA
ATOM      9  N   UNL     1      11.908   6.126   4.576  0.00  0.00    -0.295 N 
ATOM     11  N   UNL     1      12.227   5.360   2.433  0.00  0.00    -0.267 N 
ATOM     22  C   UNL     1      11.434   5.263   3.580  0.00  0.00    +0.304 C 
ATOM     40  H   UNL     1      12.763   6.643   4.397  0.00  0.00    +0.151 HD
ATOM     42  H   UNL     1      13.009   6.010   2.470  0.00  0.00    +0.156 HD
BRANCH  11  29
ATOM      2  F   UNL     1      13.916   3.251   1.752  0.00  0.00    -0.203 F 
ATOM      3  F   UNL     1      11.639   2.613  -2.345  0.00  0.00    -0.205 F 
ATOM     29  C   UNL     1      12.080   4.658   1.214  0.00  0.00    +0.070 A 
ATOM     35  C   UNL     1      12.942   3.605   0.903  0.00  0.00    +0.147 A 
ATOM     36  C   UNL     1      11.070   5.019   0.323  0.00  0.00    +0.029 A 
ATOM     37  C   UNL     1      12.793   2.915  -0.300  0.00  0.00    +0.078 A 
ATOM     38  C   UNL     1      10.921   4.328  -0.880  0.00  0.00    +0.040 A 
ATOM     39  C   UNL     1      11.783   3.276  -1.191  0.00  0.00    +0.126 A 
ENDBRANCH  11  29
ENDBRANCH  14   9
BRANCH  15  18
ATOM      4  O   UNL     1      13.629   8.148   4.923  0.00  0.00    -0.274 OA
ATOM     10  N   UNL     1      14.239   9.592   6.644  0.00  0.00    -0.302 N 
ATOM     18  C   UNL     1      13.469   8.604   6.051  0.00  0.00    +0.234 C 
ATOM     41  H   UNL     1      13.959   9.952   7.552  0.00  0.00    +0.150 HD
BRANCH  10  20
ATOM     20  C   UNL     1      15.358  10.224   5.985  0.00  0.00    +0.163 C 
BRANCH  20  25
ATOM      7  O   UNL     1      15.859  12.565   5.568  0.00  0.00    -0.274 OA
ATOM     13  N   UNL     1      14.207  12.047   7.078  0.00  0.00    -0.328 N 
ATOM     25  C   UNL     1      15.202  11.725   6.179  0.00  0.00    +0.231 C 
ATOM     44  H   UNL     1      13.656  11.341   7.557  0.00  0.00    +0.145 HD
ATOM     45  H   UNL     1      13.990  13.014   7.290  0.00  0.00    +0.145 HD
ENDBRANCH  20  25
BRANCH  20  23
ATOM     23  C   UNL     1      16.705   9.747   6.543  0.00  0.00    +0.069 C 
BRANCH  23  24
ATOM     12  N   UNL     1      18.093   7.855   3.714  0.00  0.00    -0.360 N 
ATOM     24  C   UNL     1      17.506   8.954   5.551  0.00  0.00    -0.020 A 
ATOM     26  C   UNL     1      18.838   8.483   5.719  0.00  0.00    +0.003 A 
ATOM     27  C   UNL     1      17.075   8.552   4.307  0.00  0.00    +0.087 A 
ATOM     28  C   UNL     1      19.181   7.797   4.553  0.00  0.00    +0.047 A 
ATOM     30  C   UNL     1      19.788   8.576   6.757  0.00  0.00    +0.010 A 
ATOM     31  C   UNL     1      20.432   7.196   4.370  0.00  0.00    +0.026 A 
ATOM     33  C   UNL     1      21.043   7.979   6.589  0.00  0.00    +0.001 A 
ATOM     34  C   UNL     1      21.359   7.300   5.412  0.00  0.00    +0.002 A 
ATOM     43  H   UNL     1      18.050   7.442   2.792  0.00  0.00    +0.165 HD
ENDBRANCH  23  24
ENDBRANCH  20  23
ENDBRANCH  10  20
ENDBRANCH  15  18
BRANCH  19  21
ATOM     21  C   UNL     1       9.216  10.088   6.194  0.00  0.00    +0.164 C 
BRANCH  21   1
ATOM      1  S   UNL     1       9.216  11.421   4.986  0.00  0.00    -0.155 S 
ATOM     32  C   UNL     1      10.156  10.606   3.671  0.00  0.00    +0.085 C 
ENDBRANCH  21   1
ENDBRANCH  19  21
TORSDOF 9
ENDMDL
MODEL 7
REMARK VINA RESULT:      -6.2     28.992     31.457
REMARK  Name = 11882025
REMARK  10 active torsions:
REMARK  status: ('A' for Active; 'I' for Inactive)
REMARK    1  A    between atoms: S_1  and  C_21
REMARK    2  A    between atoms: S_1  and  C_32
REMARK    3  A    between atoms: N_9  and  C_14
REMARK    4  A    between atoms: N_10  and  C_20
REMARK    5  A    between atoms: N_11  and  C_29
REMARK    6  A    between atoms: C_15  and  C_18
REMARK    7  A    between atoms: C_19  and  C_21
REMARK    8  A    between atoms: C_20  and  C_23
REMARK    9  A    between atoms: C_20  and  C_25
REMARK   10  A    between atoms: C_23  and  C_24
REMARK                            x       y       z     vdW  Elec       q    Type
REMARK                         _______ _______ _______ _____ _____    ______ ____
ROOT
ATOM      5  O   UNL     1      -2.438 -14.895  14.802  0.00  0.00    -0.275 OA
ATOM      8  N   UNL     1      -2.305 -12.925  13.594  0.00  0.00    -0.287 N 
ATOM     14  C   UNL     1      -2.311 -10.717  12.717  0.00  0.00    +0.094 C 
ATOM     15  C   UNL     1      -2.293 -12.033  14.744  0.00  0.00    +0.164 C 
ATOM     16  C   UNL     1      -1.882 -10.672  14.186  0.00  0.00    +0.055 C 
ATOM     17  C   UNL     1      -2.139 -12.186  12.342  0.00  0.00    +0.131 C 
ATOM     19  C   UNL     1      -2.296 -14.305  13.729  0.00  0.00    +0.226 C 
ENDROOT
BRANCH  14   9
ATOM      6  O   UNL     1      -3.703 -10.405  10.233  0.00  0.00    -0.252 OA
ATOM      9  N   UNL     1      -3.673 -10.276  12.541  0.00  0.00    -0.295 N 
ATOM     11  N   UNL     1      -5.599  -9.704  11.426  0.00  0.00    -0.267 N 
ATOM     22  C   UNL     1      -4.281 -10.149  11.287  0.00  0.00    +0.304 C 
ATOM     40  H   UNL     1      -4.195  -9.982  13.361  0.00  0.00    +0.151 HD
ATOM     42  H   UNL     1      -5.927  -9.535  12.374  0.00  0.00    +0.156 HD
BRANCH  11  29
ATOM      2  F   UNL     1      -5.352  -7.516   9.718  0.00  0.00    -0.203 F 
ATOM      3  F   UNL     1      -9.306  -8.731   7.422  0.00  0.00    -0.205 F 
ATOM     29  C   UNL     1      -6.544  -9.452  10.404  0.00  0.00    +0.070 A 
ATOM     35  C   UNL     1      -6.391  -8.348   9.565  0.00  0.00    +0.147 A 
ATOM     36  C   UNL     1      -7.629 -10.312  10.237  0.00  0.00    +0.029 A 
ATOM     37  C   UNL     1      -7.325  -8.105   8.558  0.00  0.00    +0.078 A 
ATOM     38  C   UNL     1      -8.562 -10.068   9.229  0.00  0.00    +0.040 A 
ATOM     39  C   UNL     1      -8.410  -8.964   8.389  0.00  0.00    +0.126 A 
ENDBRANCH  11  29
ENDBRANCH  14   9
BRANCH  15  18
ATOM      4  O   UNL     1      -4.671 -12.214  14.663  0.00  0.00    -0.274 OA
ATOM     10  N   UNL     1      -3.651 -11.664  16.681  0.00  0.00    -0.302 N 
ATOM     18  C   UNL     1      -3.669 -11.993  15.336  0.00  0.00    +0.234 C 
ATOM     41  H   UNL     1      -2.756 -11.587  17.156  0.00  0.00    +0.150 HD
BRANCH  10  20
ATOM     20  C   UNL     1      -4.849 -11.537  17.480  0.00  0.00    +0.163 C 
BRANCH  20  25
ATOM      7  O   UNL     1      -5.234 -11.731  19.872  0.00  0.00    -0.274 OA
ATOM     13  N   UNL     1      -3.124 -12.142  19.061  0.00  0.00    -0.328 N 
ATOM     25  C   UNL     1      -4.451 -11.789  18.926  0.00  0.00    +0.231 C 
ATOM     44  H   UNL     1      -2.494 -12.210  18.268  0.00  0.00    +0.145 HD
ATOM     45  H   UNL     1      -2.731 -12.351  19.973  0.00  0.00    +0.145 HD
ENDBRANCH  20  25
BRANCH  20  23
ATOM     23  C   UNL     1      -5.499 -10.156  17.335  0.00  0.00    +0.069 C 
BRANCH  23  24
ATOM     12  N   UNL     1      -9.146 -10.381  17.732  0.00  0.00    -0.360 N 
ATOM     24  C   UNL     1      -6.995 -10.218  17.212  0.00  0.00    -0.020 A 
ATOM     26  C   UNL     1      -7.751 -10.132  16.011  0.00  0.00    +0.003 A 
ATOM     27  C   UNL     1      -7.881 -10.371  18.254  0.00  0.00    +0.087 A 
ATOM     28  C   UNL     1      -9.097 -10.237  16.365  0.00  0.00    +0.047 A 
ATOM     30  C   UNL     1      -7.418  -9.974  14.650  0.00  0.00    +0.010 A 
ATOM     31  C   UNL     1     -10.132 -10.192  15.423  0.00  0.00    +0.026 A 
ATOM     33  C   UNL     1      -8.442  -9.928  13.697  0.00  0.00    +0.001 A 
ATOM     34  C   UNL     1      -9.778 -10.035  14.080  0.00  0.00    +0.002 A 
ATOM     43  H   UNL     1      -9.995 -10.480  18.274  0.00  0.00    +0.165 HD
ENDBRANCH  23  24
ENDBRANCH  20  23
ENDBRANCH  10  20
ENDBRANCH  15  18
BRANCH  19  21
ATOM     21  C   UNL     1      -2.109 -15.083  12.450  0.00  0.00    +0.164 C 
BRANCH  21   1
ATOM      1  S   UNL     1      -0.660 -16.130  12.655  0.00  0.00    -0.155 S 
ATOM     32  C   UNL     1      -0.595 -16.843  10.992  0.00  0.00    +0.085 C 
ENDBRANCH  21   1
ENDBRANCH  19  21
TORSDOF 9
ENDMDL
MODEL 8
REMARK VINA RESULT:      -6.2     22.055     24.172
REMARK  Name = 11882025
REMARK  10 active torsions:
REMARK  status: ('A' for Active; 'I' for Inactive)
REMARK    1  A    between atoms: S_1  and  C_21
REMARK    2  A    between atoms: S_1  and  C_32
REMARK    3  A    between atoms: N_9  and  C_14
REMARK    4  A    between atoms: N_10  and  C_20
REMARK    5  A    between atoms: N_11  and  C_29
REMARK    6  A    between atoms: C_15  and  C_18
REMARK    7  A    between atoms: C_19  and  C_21
REMARK    8  A    between atoms: C_20  and  C_23
REMARK    9  A    between atoms: C_20  and  C_25
REMARK   10  A    between atoms: C_23  and  C_24
REMARK                            x       y       z     vdW  Elec       q    Type
REMARK                         _______ _______ _______ _____ _____    ______ ____
ROOT
ATOM      5  O   UNL     1       7.554  -2.148  38.420  0.00  0.00    -0.275 OA
ATOM      8  N   UNL     1       6.801  -4.268  38.965  0.00  0.00    -0.287 N 
ATOM     14  C   UNL     1       6.268  -6.572  39.189  0.00  0.00    +0.094 C 
ATOM     15  C   UNL     1       7.846  -4.996  38.261  0.00  0.00    +0.164 C 
ATOM     16  C   UNL     1       7.730  -6.436  38.754  0.00  0.00    +0.055 C 
ATOM     17  C   UNL     1       5.916  -5.177  39.695  0.00  0.00    +0.131 C 
ATOM     19  C   UNL     1       6.792  -2.884  39.051  0.00  0.00    +0.226 C 
ENDROOT
BRANCH  14   9
ATOM      6  O   UNL     1       5.756  -9.252  38.317  0.00  0.00    -0.252 OA
ATOM      9  N   UNL     1       5.418  -6.976  38.097  0.00  0.00    -0.295 N 
ATOM     11  N   UNL     1       4.350  -8.399  36.643  0.00  0.00    -0.267 N 
ATOM     22  C   UNL     1       5.220  -8.313  37.733  0.00  0.00    +0.304 C 
ATOM     40  H   UNL     1       4.992  -6.253  37.523  0.00  0.00    +0.151 HD
ATOM     42  H   UNL     1       3.993  -7.521  36.271  0.00  0.00    +0.156 HD
BRANCH  11  29
ATOM      2  F   UNL     1       5.975  -9.776  34.846  0.00  0.00    -0.203 F 
ATOM      3  F   UNL     1       2.574 -12.968  34.056  0.00  0.00    -0.205 F 
ATOM     29  C   UNL     1       3.899  -9.564  35.980  0.00  0.00    +0.070 A 
ATOM     35  C   UNL     1       4.738 -10.232  35.086  0.00  0.00    +0.147 A 
ATOM     36  C   UNL     1       2.613 -10.047  36.224  0.00  0.00    +0.029 A 
ATOM     37  C   UNL     1       4.290 -11.381  34.437  0.00  0.00    +0.078 A 
ATOM     38  C   UNL     1       2.166 -11.197  35.573  0.00  0.00    +0.040 A 
ATOM     39  C   UNL     1       3.004 -11.864  34.680  0.00  0.00    +0.126 A 
ENDBRANCH  11  29
ENDBRANCH  14   9
BRANCH  15  18
ATOM      4  O   UNL     1       6.616  -4.302  36.336  0.00  0.00    -0.274 OA
ATOM     10  N   UNL     1       8.552  -5.561  36.043  0.00  0.00    -0.302 N 
ATOM     18  C   UNL     1       7.590  -4.897  36.787  0.00  0.00    +0.234 C 
ATOM     41  H   UNL     1       9.362  -5.945  36.520  0.00  0.00    +0.150 HD
BRANCH  10  20
ATOM     20  C   UNL     1       8.523  -5.635  34.600  0.00  0.00    +0.163 C 
BRANCH  20  25
ATOM      7  O   UNL     1      10.768  -4.769  34.257  0.00  0.00    -0.274 OA
ATOM     13  N   UNL     1       8.996  -3.626  33.343  0.00  0.00    -0.328 N 
ATOM     25  C   UNL     1       9.557  -4.648  34.080  0.00  0.00    +0.231 C 
ATOM     44  H   UNL     1       7.996  -3.552  33.185  0.00  0.00    +0.145 HD
ATOM     45  H   UNL     1       9.576  -2.905  32.927  0.00  0.00    +0.145 HD
ENDBRANCH  20  25
BRANCH  20  23
ATOM     23  C   UNL     1       8.824  -7.048  34.086  0.00  0.00    +0.069 C 
BRANCH  23  24
ATOM     12  N   UNL     1       5.982  -7.690  31.845  0.00  0.00    -0.360 N 
ATOM     24  C   UNL     1       7.813  -7.542  33.091  0.00  0.00    -0.020 A 
ATOM     26  C   UNL     1       7.916  -8.709  32.284  0.00  0.00    +0.003 A 
ATOM     27  C   UNL     1       6.612  -6.936  32.798  0.00  0.00    +0.087 A 
ATOM     28  C   UNL     1       6.755  -8.778  31.513  0.00  0.00    +0.047 A 
ATOM     30  C   UNL     1       8.891  -9.717  32.136  0.00  0.00    +0.010 A 
ATOM     31  C   UNL     1       6.517  -9.809  30.596  0.00  0.00    +0.026 A 
ATOM     33  C   UNL     1       8.667 -10.754  31.224  0.00  0.00    +0.001 A 
ATOM     34  C   UNL     1       7.498 -10.798  30.466  0.00  0.00    +0.002 A 
ATOM     43  H   UNL     1       5.078  -7.478  31.444  0.00  0.00    +0.165 HD
ENDBRANCH  23  24
ENDBRANCH  20  23
ENDBRANCH  10  20
ENDBRANCH  15  18
BRANCH  19  21
ATOM     21  C   UNL     1       5.759  -2.295  39.979  0.00  0.00    +0.164 C 
BRANCH  21   1
ATOM      1  S   UNL     1       6.623  -1.636  41.412  0.00  0.00    -0.155 S 
ATOM     32  C   UNL     1       6.123  -2.875  42.633  0.00  0.00    +0.085 C 
ENDBRANCH  21   1
ENDBRANCH  19  21
TORSDOF 9
ENDMDL
MODEL 9
REMARK VINA RESULT:      -6.1     14.642     17.249
REMARK  Name = 11882025
REMARK  10 active torsions:
REMARK  status: ('A' for Active; 'I' for Inactive)
REMARK    1  A    between atoms: S_1  and  C_21
REMARK    2  A    between atoms: S_1  and  C_32
REMARK    3  A    between atoms: N_9  and  C_14
REMARK    4  A    between atoms: N_10  and  C_20
REMARK    5  A    between atoms: N_11  and  C_29
REMARK    6  A    between atoms: C_15  and  C_18
REMARK    7  A    between atoms: C_19  and  C_21
REMARK    8  A    between atoms: C_20  and  C_23
REMARK    9  A    between atoms: C_20  and  C_25
REMARK   10  A    between atoms: C_23  and  C_24
REMARK                            x       y       z     vdW  Elec       q    Type
REMARK                         _______ _______ _______ _____ _____    ______ ____
ROOT
ATOM      5  O   UNL     1       9.916   9.613   8.518  0.00  0.00    -0.275 OA
ATOM      8  N   UNL     1      11.796  10.354   7.388  0.00  0.00    -0.287 N 
ATOM     14  C   UNL     1      13.655  10.776   5.972  0.00  0.00    +0.094 C 
ATOM     15  C   UNL     1      11.530   9.640   6.149  0.00  0.00    +0.164 C 
ATOM     16  C   UNL     1      12.494  10.242   5.128  0.00  0.00    +0.055 C 
ATOM     17  C   UNL     1      12.983  11.201   7.273  0.00  0.00    +0.131 C 
ATOM     19  C   UNL     1      10.909  10.341   8.455  0.00  0.00    +0.226 C 
ENDROOT
BRANCH  14   9
ATOM      6  O   UNL     1      16.375  10.851   5.074  0.00  0.00    -0.252 OA
ATOM      9  N   UNL     1      14.664   9.770   6.194  0.00  0.00    -0.295 N 
ATOM     11  N   UNL     1      16.726   8.762   6.085  0.00  0.00    -0.267 N 
ATOM     22  C   UNL     1      15.977   9.883   5.719  0.00  0.00    +0.304 C 
ATOM     40  H   UNL     1      14.394   8.910   6.661  0.00  0.00    +0.151 HD
ATOM     42  H   UNL     1      16.244   8.043   6.620  0.00  0.00    +0.156 HD
BRANCH  11  29
ATOM      2  F   UNL     1      17.545   7.889   3.568  0.00  0.00    -0.203 F 
ATOM      3  F   UNL     1      22.058   7.723   4.980  0.00  0.00    -0.205 F 
ATOM     29  C   UNL     1      18.086   8.494   5.800  0.00  0.00    +0.070 A 
ATOM     35  C   UNL     1      18.464   8.059   4.529  0.00  0.00    +0.147 A 
ATOM     36  C   UNL     1      19.049   8.669   6.794  0.00  0.00    +0.029 A 
ATOM     37  C   UNL     1      19.805   7.799   4.253  0.00  0.00    +0.078 A 
ATOM     38  C   UNL     1      20.391   8.408   6.516  0.00  0.00    +0.040 A 
ATOM     39  C   UNL     1      20.769   7.973   5.245  0.00  0.00    +0.126 A 
ENDBRANCH  11  29
ENDBRANCH  14   9
BRANCH  15  18
ATOM      4  O   UNL     1      12.942   7.737   6.443  0.00  0.00    -0.274 OA
ATOM     10  N   UNL     1      10.634   7.438   6.443  0.00  0.00    -0.302 N 
ATOM     18  C   UNL     1      11.800   8.181   6.367  0.00  0.00    +0.234 C 
ATOM     41  H   UNL     1       9.742   7.926   6.454  0.00  0.00    +0.150 HD
BRANCH  10  20
ATOM     20  C   UNL     1      10.620   6.005   6.628  0.00  0.00    +0.163 C 
BRANCH  20  25
ATOM      7  O   UNL     1      10.631   4.872   8.777  0.00  0.00    -0.274 OA
ATOM     13  N   UNL     1       9.172   6.619   8.463  0.00  0.00    -0.328 N 
ATOM     25  C   UNL     1      10.154   5.742   8.052  0.00  0.00    +0.231 C 
ATOM     44  H   UNL     1       8.805   7.349   7.860  0.00  0.00    +0.145 HD
ATOM     45  H   UNL     1       8.782   6.562   9.398  0.00  0.00    +0.145 HD
ENDBRANCH  20  25
BRANCH  20  23
ATOM     23  C   UNL     1       9.700   5.300   5.623  0.00  0.00    +0.069 C 
BRANCH  23  24
ATOM     12  N   UNL     1      10.997   5.454   2.187  0.00  0.00    -0.360 N 
ATOM     24  C   UNL     1      10.057   5.590   4.193  0.00  0.00    -0.020 A 
ATOM     26  C   UNL     1       9.539   6.641   3.386  0.00  0.00    +0.003 A 
ATOM     27  C   UNL     1      10.951   4.877   3.427  0.00  0.00    +0.087 A 
ATOM     28  C   UNL     1      10.145   6.533   2.134  0.00  0.00    +0.047 A 
ATOM     30  C   UNL     1       8.609   7.678   3.604  0.00  0.00    +0.010 A 
ATOM     31  C   UNL     1       9.867   7.413   1.082  0.00  0.00    +0.026 A 
ATOM     33  C   UNL     1       8.321   8.566   2.561  0.00  0.00    +0.001 A 
ATOM     34  C   UNL     1       8.941   8.434   1.319  0.00  0.00    +0.002 A 
ATOM     43  H   UNL     1      11.574   5.134   1.421  0.00  0.00    +0.165 HD
ENDBRANCH  23  24
ENDBRANCH  20  23
ENDBRANCH  10  20
ENDBRANCH  15  18
BRANCH  19  21
ATOM     21  C   UNL     1      11.233  11.286   9.584  0.00  0.00    +0.164 C 
BRANCH  21   1
ATOM      1  S   UNL     1       9.777  12.299   9.884  0.00  0.00    -0.155 S 
ATOM     32  C   UNL     1       9.946  13.449   8.497  0.00  0.00    +0.085 C 
ENDBRANCH  21   1
ENDBRANCH  19  21
TORSDOF 9
ENDMDL
MODEL 10
REMARK VINA RESULT:      -6.0     17.275     20.527
REMARK  Name = 11882025
REMARK  10 active torsions:
REMARK  status: ('A' for Active; 'I' for Inactive)
REMARK    1  A    between atoms: S_1  and  C_21
REMARK    2  A    between atoms: S_1  and  C_32
REMARK    3  A    between atoms: N_9  and  C_14
REMARK    4  A    between atoms: N_10  and  C_20
REMARK    5  A    between atoms: N_11  and  C_29
REMARK    6  A    between atoms: C_15  and  C_18
REMARK    7  A    between atoms: C_19  and  C_21
REMARK    8  A    between atoms: C_20  and  C_23
REMARK    9  A    between atoms: C_20  and  C_25
REMARK   10  A    between atoms: C_23  and  C_24
REMARK                            x       y       z     vdW  Elec       q    Type
REMARK                         _______ _______ _______ _____ _____    ______ ____
ROOT
ATOM      5  O   UNL     1       9.078   7.420   7.477  0.00  0.00    -0.275 OA
ATOM      8  N   UNL     1      11.227   7.376   6.617  0.00  0.00    -0.287 N 
ATOM     14  C   UNL     1      13.258   7.530   5.394  0.00  0.00    +0.094 C 
ATOM     15  C   UNL     1      11.029   8.431   5.634  0.00  0.00    +0.164 C 
ATOM     16  C   UNL     1      12.432   8.797   5.156  0.00  0.00    +0.055 C 
ATOM     17  C   UNL     1      12.616   6.915   6.634  0.00  0.00    +0.131 C 
ATOM     19  C   UNL     1      10.240   7.012   7.521  0.00  0.00    +0.226 C 
ENDROOT
BRANCH  14   9
ATOM      6  O   UNL     1      15.135   7.386   3.235  0.00  0.00    -0.252 OA
ATOM      9  N   UNL     1      13.206   6.635   4.264  0.00  0.00    -0.295 N 
ATOM     11  N   UNL     1      13.858   5.659   2.289  0.00  0.00    -0.267 N 
ATOM     22  C   UNL     1      14.168   6.628   3.247  0.00  0.00    +0.304 C 
ATOM     40  H   UNL     1      12.400   6.024   4.168  0.00  0.00    +0.151 HD
ATOM     42  H   UNL     1      13.014   5.113   2.445  0.00  0.00    +0.156 HD
BRANCH  11  29
ATOM      2  F   UNL     1      15.380   3.333   2.097  0.00  0.00    -0.203 F 
ATOM      3  F   UNL     1      16.663   4.413  -2.326  0.00  0.00    -0.205 F 
ATOM     29  C   UNL     1      14.576   5.339   1.113  0.00  0.00    +0.070 A 
ATOM     35  C   UNL     1      15.328   4.166   1.048  0.00  0.00    +0.147 A 
ATOM     36  C   UNL     1      14.529   6.200   0.016  0.00  0.00    +0.029 A 
ATOM     37  C   UNL     1      16.033   3.854  -0.114  0.00  0.00    +0.078 A 
ATOM     38  C   UNL     1      15.234   5.886  -1.146  0.00  0.00    +0.040 A 
ATOM     39  C   UNL     1      15.987   4.713  -1.211  0.00  0.00    +0.126 A 
ENDBRANCH  11  29
ENDBRANCH  14   9
BRANCH  15  18
ATOM      4  O   UNL     1      10.102   6.692   4.287  0.00  0.00    -0.274 OA
ATOM     10  N   UNL     1       9.570   8.904   3.795  0.00  0.00    -0.302 N 
ATOM     18  C   UNL     1      10.188   7.895   4.515  0.00  0.00    +0.234 C 
ATOM     41  H   UNL     1       9.644   9.861   4.129  0.00  0.00    +0.150 HD
BRANCH  10  20
ATOM     20  C   UNL     1       8.722   8.654   2.652  0.00  0.00    +0.163 C 
BRANCH  20  25
ATOM      7  O   UNL     1       6.535   9.585   2.147  0.00  0.00    -0.274 OA
ATOM     13  N   UNL     1       7.073   9.171   4.342  0.00  0.00    -0.328 N 
ATOM     25  C   UNL     1       7.343   9.200   2.990  0.00  0.00    +0.231 C 
ATOM     44  H   UNL     1       7.742   8.827   5.024  0.00  0.00    +0.145 HD
ATOM     45  H   UNL     1       6.182   9.494   4.702  0.00  0.00    +0.145 HD
ENDBRANCH  20  25
BRANCH  20  23
ATOM     23  C   UNL     1       9.262   9.310   1.375  0.00  0.00    +0.069 C 
BRANCH  23  24
ATOM     12  N   UNL     1       8.620   7.657  -1.845  0.00  0.00    -0.360 N 
ATOM     24  C   UNL     1       9.159   8.422   0.168  0.00  0.00    -0.020 A 
ATOM     26  C   UNL     1       9.747   7.137   0.008  0.00  0.00    +0.003 A 
ATOM     27  C   UNL     1       8.473   8.715  -0.989  0.00  0.00    +0.087 A 
ATOM     28  C   UNL     1       9.394   6.679  -1.263  0.00  0.00    +0.047 A 
ATOM     30  C   UNL     1      10.549   6.316   0.826  0.00  0.00    +0.010 A 
ATOM     31  C   UNL     1       9.803   5.436  -1.759  0.00  0.00    +0.026 A 
ATOM     33  C   UNL     1      10.966   5.070   0.343  0.00  0.00    +0.001 A 
ATOM     34  C   UNL     1      10.598   4.638  -0.930  0.00  0.00    +0.002 A 
ATOM     43  H   UNL     1       8.219   7.602  -2.771  0.00  0.00    +0.165 HD
ENDBRANCH  23  24
ENDBRANCH  20  23
ENDBRANCH  10  20
ENDBRANCH  15  18
BRANCH  19  21
ATOM     21  C   UNL     1      10.667   6.045   8.597  0.00  0.00    +0.164 C 
BRANCH  21   1
ATOM      1  S   UNL     1       9.651   4.569   8.439  0.00  0.00    -0.155 S 
ATOM     32  C   UNL     1       9.011   4.490  10.131  0.00  0.00    +0.085 C 
ENDBRANCH  21   1
ENDBRANCH  19  21
TORSDOF 9
ENDMDL
