MODEL 1
REMARK VINA RESULT:      -7.0      0.000      0.000
REMARK  Name = 26743700
REMARK  7 active torsions:
REMARK  status: ('A' for Active; 'I' for Inactive)
REMARK    1  A    between atoms: O_4  and  C_16
REMARK    2  A    between atoms: O_7  and  C_30
REMARK    3  A    between atoms: O_7  and  C_31
REMARK    4  A    between atoms: N_8  and  C_12
REMARK    5  A    between atoms: C_13  and  C_21
REMARK    6  A    between atoms: C_22  and  C_24
REMARK    7  A    between atoms: C_23  and  C_25
REMARK                            x       y       z     vdW  Elec       q    Type
REMARK                         _______ _______ _______ _____ _____    ______ ____
ROOT
ATOM      8  N   UNL     1      -8.888 -10.225  17.191  0.00  0.00    -0.286 NA
ATOM     13  C   UNL     1      -7.630  -9.904  17.896  0.00  0.00    +0.149 C 
ATOM     14  C   UNL     1      -9.919 -10.350  18.219  0.00  0.00    +0.116 C 
ATOM     15  C   UNL     1      -7.794 -10.526  19.296  0.00  0.00    +0.061 C 
ATOM     16  C   UNL     1      -9.193 -11.132  19.296  0.00  0.00    +0.130 C 
ENDROOT
BRANCH   8  12
ATOM      6  O   UNL     1     -12.782  -5.873  15.263  0.00  0.00    -0.276 OA
ATOM      9  N   UNL     1     -11.211  -7.544  14.892  0.00  0.00    -0.302 N 
ATOM     12  C   UNL     1      -9.244  -9.239  16.171  0.00  0.00    +0.060 C 
ATOM     17  C   UNL     1     -10.310  -9.816  15.231  0.00  0.00    +0.038 C 
ATOM     18  C   UNL     1      -9.752  -7.954  16.837  0.00  0.00    +0.038 C 
ATOM     19  C   UNL     1     -10.767  -8.769  14.214  0.00  0.00    +0.109 C 
ATOM     20  C   UNL     1     -10.220  -6.946  15.789  0.00  0.00    +0.109 C 
ATOM     22  C   UNL     1     -12.446  -6.923  14.709  0.00  0.00    +0.212 C 
ATOM     24  C   UNL     1     -13.412  -7.603  13.772  0.00  0.00    +0.109 C 
ENDBRANCH   8  12
BRANCH  13  21
ATOM      5  O   UNL     1      -5.803 -11.515  17.695  0.00  0.00    -0.336 OA
ATOM     10  N   UNL     1      -5.830  -9.957  16.086  0.00  0.00    -0.190 NA
ATOM     11  N   UNL     1      -4.713 -11.797  16.862  0.00  0.00    -0.056 NA
ATOM     21  C   UNL     1      -6.406 -10.417  17.167  0.00  0.00    +0.245 A 
ATOM     23  C   UNL     1      -4.795 -10.834  15.938  0.00  0.00    +0.202 A 
BRANCH  23  25
ATOM     25  C   UNL     1      -3.863 -10.724  14.854  0.00  0.00    +0.023 A 
ATOM     26  C   UNL     1      -2.492 -10.764  15.105  0.00  0.00    +0.015 A 
ATOM     27  C   UNL     1      -4.328 -10.575  13.547  0.00  0.00    +0.015 A 
ATOM     28  C   UNL     1      -1.586 -10.655  14.050  0.00  0.00    +0.046 A 
ATOM     29  C   UNL     1      -3.423 -10.467  12.491  0.00  0.00    +0.046 A 
ATOM     30  C   UNL     1      -2.051 -10.507  12.744  0.00  0.00    +0.130 A 
BRANCH  30   7
ATOM      7  O   UNL     1      -1.168 -10.400  11.713  0.00  0.00    -0.406 OA
BRANCH   7  31
ATOM      1  F   UNL     1       0.399  -9.205  10.615  0.00  0.00    -0.133 F 
ATOM      2  F   UNL     1      -1.674  -8.524  10.508  0.00  0.00    -0.133 F 
ATOM      3  F   UNL     1      -0.523  -8.310  12.381  0.00  0.00    -0.133 F 
ATOM     31  C   UNL     1      -0.754  -9.099  11.311  0.00  0.00    +0.575 C 
ENDBRANCH   7  31
ENDBRANCH  30   7
ENDBRANCH  23  25
ENDBRANCH  13  21
BRANCH  16   4
ATOM      4  O   UNL     1      -9.806 -10.977  20.561  0.00  0.00    -0.390 OA
ATOM     32  H   UNL     1     -10.173 -11.842  20.816  0.00  0.00    +0.210 HD
ENDBRANCH  16   4
TORSDOF 6
ENDMDL
MODEL 2
REMARK VINA RESULT:      -7.0     18.556     20.281
REMARK  Name = 26743700
REMARK  7 active torsions:
REMARK  status: ('A' for Active; 'I' for Inactive)
REMARK    1  A    between atoms: O_4  and  C_16
REMARK    2  A    between atoms: O_7  and  C_30
REMARK    3  A    between atoms: O_7  and  C_31
REMARK    4  A    between atoms: N_8  and  C_12
REMARK    5  A    between atoms: C_13  and  C_21
REMARK    6  A    between atoms: C_22  and  C_24
REMARK    7  A    between atoms: C_23  and  C_25
REMARK                            x       y       z     vdW  Elec       q    Type
REMARK                         _______ _______ _______ _____ _____    ______ ____
ROOT
ATOM      8  N   UNL     1     -16.806   4.512  20.901  0.00  0.00    -0.286 NA
ATOM     13  C   UNL     1     -17.927   4.234  21.822  0.00  0.00    +0.149 C 
ATOM     14  C   UNL     1     -17.395   4.693  19.575  0.00  0.00    +0.116 C 
ATOM     15  C   UNL     1     -19.008   3.580  20.941  0.00  0.00    +0.061 C 
ATOM     16  C   UNL     1     -18.421   3.576  19.534  0.00  0.00    +0.130 C 
ENDROOT
BRANCH   8  12
ATOM      6  O   UNL     1     -12.833   8.927  19.312  0.00  0.00    -0.276 OA
ATOM      9  N   UNL     1     -13.781   7.463  20.847  0.00  0.00    -0.302 N 
ATOM     12  C   UNL     1     -16.000   5.662  21.306  0.00  0.00    +0.060 C 
ATOM     17  C   UNL     1     -14.549   5.227  21.552  0.00  0.00    +0.038 C 
ATOM     18  C   UNL     1     -16.060   6.752  20.228  0.00  0.00    +0.038 C 
ATOM     19  C   UNL     1     -13.666   6.430  21.884  0.00  0.00    +0.109 C 
ATOM     20  C   UNL     1     -15.146   7.923  20.587  0.00  0.00    +0.109 C 
ATOM     22  C   UNL     1     -12.713   8.034  20.154  0.00  0.00    +0.212 C 
ATOM     24  C   UNL     1     -11.339   7.504  20.476  0.00  0.00    +0.109 C 
ENDBRANCH   8  12
BRANCH  13  21
ATOM      5  O   UNL     1     -17.301   2.049  22.720  0.00  0.00    -0.336 OA
ATOM     10  N   UNL     1     -17.337   3.688  24.246  0.00  0.00    -0.190 NA
ATOM     11  N   UNL     1     -16.940   1.456  23.937  0.00  0.00    -0.056 NA
ATOM     21  C   UNL     1     -17.518   3.363  22.991  0.00  0.00    +0.245 A 
ATOM     23  C   UNL     1     -16.985   2.486  24.788  0.00  0.00    +0.202 A 
BRANCH  23  25
ATOM     25  C   UNL     1     -16.680   2.349  26.182  0.00  0.00    +0.023 A 
ATOM     26  C   UNL     1     -16.922   1.140  26.834  0.00  0.00    +0.015 A 
ATOM     27  C   UNL     1     -16.142   3.425  26.888  0.00  0.00    +0.015 A 
ATOM     28  C   UNL     1     -16.628   1.007  28.191  0.00  0.00    +0.046 A 
ATOM     29  C   UNL     1     -15.847   3.293  28.245  0.00  0.00    +0.046 A 
ATOM     30  C   UNL     1     -16.090   2.084  28.896  0.00  0.00    +0.130 A 
BRANCH  30   7
ATOM      7  O   UNL     1     -15.802   1.956  30.220  0.00  0.00    -0.406 OA
BRANCH   7  31
ATOM      1  F   UNL     1     -15.050  -0.112  30.722  0.00  0.00    -0.133 F 
ATOM      2  F   UNL     1     -13.709   1.236  29.645  0.00  0.00    -0.133 F 
ATOM      3  F   UNL     1     -14.169   1.586  31.777  0.00  0.00    -0.133 F 
ATOM     31  C   UNL     1     -14.669   1.179  30.592  0.00  0.00    +0.575 C 
ENDBRANCH   7  31
ENDBRANCH  30   7
ENDBRANCH  23  25
ENDBRANCH  13  21
BRANCH  16   4
ATOM      4  O   UNL     1     -19.426   3.822  18.570  0.00  0.00    -0.390 OA
ATOM     32  H   UNL     1     -20.210   3.306  18.828  0.00  0.00    +0.210 HD
ENDBRANCH  16   4
TORSDOF 6
ENDMDL
MODEL 3
REMARK VINA RESULT:      -6.7     20.762     23.530
REMARK  Name = 26743700
REMARK  7 active torsions:
REMARK  status: ('A' for Active; 'I' for Inactive)
REMARK    1  A    between atoms: O_4  and  C_16
REMARK    2  A    between atoms: O_7  and  C_30
REMARK    3  A    between atoms: O_7  and  C_31
REMARK    4  A    between atoms: N_8  and  C_12
REMARK    5  A    between atoms: C_13  and  C_21
REMARK    6  A    between atoms: C_22  and  C_24
REMARK    7  A    between atoms: C_23  and  C_25
REMARK                            x       y       z     vdW  Elec       q    Type
REMARK                         _______ _______ _______ _____ _____    ______ ____
ROOT
ATOM      8  N   UNL     1     -15.114   1.644  29.765  0.00  0.00    -0.286 NA
ATOM     13  C   UNL     1     -15.347   1.153  31.139  0.00  0.00    +0.149 C 
ATOM     14  C   UNL     1     -14.805   0.470  28.952  0.00  0.00    +0.116 C 
ATOM     15  C   UNL     1     -14.508  -0.134  31.244  0.00  0.00    +0.061 C 
ATOM     16  C   UNL     1     -13.879  -0.309  29.867  0.00  0.00    +0.130 C 
ENDROOT
BRANCH   8  12
ATOM      6  O   UNL     1     -18.913   2.728  25.053  0.00  0.00    -0.276 OA
ATOM      9  N   UNL     1     -17.768   3.376  26.968  0.00  0.00    -0.302 N 
ATOM     12  C   UNL     1     -16.240   2.405  29.227  0.00  0.00    +0.060 C 
ATOM     17  C   UNL     1     -15.727   3.550  28.344  0.00  0.00    +0.038 C 
ATOM     18  C   UNL     1     -17.164   1.480  28.425  0.00  0.00    +0.038 C 
ATOM     19  C   UNL     1     -16.889   4.302  27.694  0.00  0.00    +0.109 C 
ATOM     20  C   UNL     1     -18.296   2.274  27.773  0.00  0.00    +0.109 C 
ATOM     22  C   UNL     1     -18.143   3.500  25.630  0.00  0.00    +0.212 C 
ATOM     24  C   UNL     1     -17.554   4.660  24.869  0.00  0.00    +0.109 C 
ENDBRANCH   8  12
BRANCH  13  21
ATOM      5  O   UNL     1     -14.961   1.740  33.479  0.00  0.00    -0.336 OA
ATOM     10  N   UNL     1     -14.679   3.443  32.052  0.00  0.00    -0.190 NA
ATOM     11  N   UNL     1     -14.604   2.847  34.260  0.00  0.00    -0.056 NA
ATOM     21  C   UNL     1     -14.983   2.177  32.193  0.00  0.00    +0.245 A 
ATOM     23  C   UNL     1     -14.455   3.812  33.346  0.00  0.00    +0.202 A 
BRANCH  23  25
ATOM     25  C   UNL     1     -14.082   5.152  33.693  0.00  0.00    +0.023 A 
ATOM     26  C   UNL     1     -13.924   6.114  32.695  0.00  0.00    +0.015 A 
ATOM     27  C   UNL     1     -13.876   5.495  35.030  0.00  0.00    +0.015 A 
ATOM     28  C   UNL     1     -13.559   7.417  33.033  0.00  0.00    +0.046 A 
ATOM     29  C   UNL     1     -13.512   6.798  35.368  0.00  0.00    +0.046 A 
ATOM     30  C   UNL     1     -13.354   7.759  34.369  0.00  0.00    +0.130 A 
BRANCH  30   7
ATOM      7  O   UNL     1     -12.998   9.031  34.701  0.00  0.00    -0.406 OA
BRANCH   7  31
ATOM      1  F   UNL     1     -11.486  10.600  35.283  0.00  0.00    -0.133 F 
ATOM      2  F   UNL     1     -11.035   8.515  35.754  0.00  0.00    -0.133 F 
ATOM      3  F   UNL     1     -10.969   9.227  33.664  0.00  0.00    -0.133 F 
ATOM     31  C   UNL     1     -11.614   9.328  34.845  0.00  0.00    +0.575 C 
ENDBRANCH   7  31
ENDBRANCH  30   7
ENDBRANCH  23  25
ENDBRANCH  13  21
BRANCH  16   4
ATOM      4  O   UNL     1     -13.818  -1.677  29.512  0.00  0.00    -0.390 OA
ATOM     32  H   UNL     1     -14.632  -1.888  29.024  0.00  0.00    +0.210 HD
ENDBRANCH  16   4
TORSDOF 6
ENDMDL
MODEL 4
REMARK VINA RESULT:      -6.6      4.071      8.514
REMARK  Name = 26743700
REMARK  7 active torsions:
REMARK  status: ('A' for Active; 'I' for Inactive)
REMARK    1  A    between atoms: O_4  and  C_16
REMARK    2  A    between atoms: O_7  and  C_30
REMARK    3  A    between atoms: O_7  and  C_31
REMARK    4  A    between atoms: N_8  and  C_12
REMARK    5  A    between atoms: C_13  and  C_21
REMARK    6  A    between atoms: C_22  and  C_24
REMARK    7  A    between atoms: C_23  and  C_25
REMARK                            x       y       z     vdW  Elec       q    Type
REMARK                         _______ _______ _______ _____ _____    ______ ____
ROOT
ATOM      8  N   UNL     1      -6.471 -10.708  17.469  0.00  0.00    -0.286 NA
ATOM     13  C   UNL     1      -7.734 -11.350  17.888  0.00  0.00    +0.149 C 
ATOM     14  C   UNL     1      -5.526 -10.900  18.566  0.00  0.00    +0.116 C 
ATOM     15  C   UNL     1      -7.722 -11.277  19.426  0.00  0.00    +0.061 C 
ATOM     16  C   UNL     1      -6.393 -10.620  19.779  0.00  0.00    +0.130 C 
ENDROOT
BRANCH   8  12
ATOM      6  O   UNL     1      -1.624 -12.523  14.150  0.00  0.00    -0.276 OA
ATOM      9  N   UNL     1      -3.759 -11.633  14.362  0.00  0.00    -0.302 N 
ATOM     12  C   UNL     1      -5.956 -11.222  16.202  0.00  0.00    +0.060 C 
ATOM     17  C   UNL     1      -5.391 -10.073  15.357  0.00  0.00    +0.038 C 
ATOM     18  C   UNL     1      -4.875 -12.279  16.464  0.00  0.00    +0.038 C 
ATOM     19  C   UNL     1      -4.761 -10.599  14.068  0.00  0.00    +0.109 C 
ATOM     20  C   UNL     1      -4.256 -12.760  15.153  0.00  0.00    +0.109 C 
ATOM     22  C   UNL     1      -2.436 -11.623  13.920  0.00  0.00    +0.212 C 
ATOM     24  C   UNL     1      -2.002 -10.426  13.115  0.00  0.00    +0.109 C 
ENDBRANCH   8  12
BRANCH  13  21
ATOM      5  O   UNL     1     -10.060 -11.466  17.146  0.00  0.00    -0.336 OA
ATOM     10  N   UNL     1      -9.108  -9.460  16.857  0.00  0.00    -0.190 NA
ATOM     11  N   UNL     1     -11.042 -10.649  16.570  0.00  0.00    -0.056 NA
ATOM     21  C   UNL     1      -8.954 -10.689  17.280  0.00  0.00    +0.245 A 
ATOM     23  C   UNL     1     -10.403  -9.483  16.429  0.00  0.00    +0.202 A 
BRANCH  23  25
ATOM     25  C   UNL     1     -11.032  -8.322  15.869  0.00  0.00    +0.023 A 
ATOM     26  C   UNL     1     -10.411  -7.077  15.964  0.00  0.00    +0.015 A 
ATOM     27  C   UNL     1     -12.267  -8.438  15.230  0.00  0.00    +0.015 A 
ATOM     28  C   UNL     1     -11.024  -5.948  15.421  0.00  0.00    +0.046 A 
ATOM     29  C   UNL     1     -12.880  -7.310  14.685  0.00  0.00    +0.046 A 
ATOM     30  C   UNL     1     -12.258  -6.065  14.781  0.00  0.00    +0.130 A 
BRANCH  30   7
ATOM      7  O   UNL     1     -12.857  -4.963  14.250  0.00  0.00    -0.406 OA
BRANCH   7  31
ATOM      1  F   UNL     1     -13.833  -4.513  12.266  0.00  0.00    -0.133 F 
ATOM      2  F   UNL     1     -11.939  -3.526  12.727  0.00  0.00    -0.133 F 
ATOM      3  F   UNL     1     -11.989  -5.685  12.262  0.00  0.00    -0.133 F 
ATOM     31  C   UNL     1     -12.636  -4.672  12.875  0.00  0.00    +0.575 C 
ENDBRANCH   7  31
ENDBRANCH  30   7
ENDBRANCH  23  25
ENDBRANCH  13  21
BRANCH  16   4
ATOM      4  O   UNL     1      -5.849 -11.188  20.955  0.00  0.00    -0.390 OA
ATOM     32  H   UNL     1      -5.156 -10.585  21.276  0.00  0.00    +0.210 HD
ENDBRANCH  16   4
TORSDOF 6
ENDMDL
MODEL 5
REMARK VINA RESULT:      -6.6      3.880      5.144
REMARK  Name = 26743700
REMARK  7 active torsions:
REMARK  status: ('A' for Active; 'I' for Inactive)
REMARK    1  A    between atoms: O_4  and  C_16
REMARK    2  A    between atoms: O_7  and  C_30
REMARK    3  A    between atoms: O_7  and  C_31
REMARK    4  A    between atoms: N_8  and  C_12
REMARK    5  A    between atoms: C_13  and  C_21
REMARK    6  A    between atoms: C_22  and  C_24
REMARK    7  A    between atoms: C_23  and  C_25
REMARK                            x       y       z     vdW  Elec       q    Type
REMARK                         _______ _______ _______ _____ _____    ______ ____
ROOT
ATOM      8  N   UNL     1      -6.154 -11.369  16.897  0.00  0.00    -0.286 NA
ATOM     13  C   UNL     1      -5.213 -10.335  16.419  0.00  0.00    +0.149 C 
ATOM     14  C   UNL     1      -5.625 -11.853  18.170  0.00  0.00    +0.116 C 
ATOM     15  C   UNL     1      -3.854 -10.727  17.029  0.00  0.00    +0.061 C 
ATOM     16  C   UNL     1      -4.142 -11.965  17.870  0.00  0.00    +0.130 C 
ENDROOT
BRANCH   8  12
ATOM      6  O   UNL     1     -10.969  -8.589  14.271  0.00  0.00    -0.276 OA
ATOM      9  N   UNL     1      -9.681  -9.176  16.113  0.00  0.00    -0.302 N 
ATOM     12  C   UNL     1      -7.527 -10.885  17.020  0.00  0.00    +0.060 C 
ATOM     17  C   UNL     1      -7.530  -9.377  17.306  0.00  0.00    +0.038 C 
ATOM     18  C   UNL     1      -8.309 -11.190  15.736  0.00  0.00    +0.038 C 
ATOM     19  C   UNL     1      -8.958  -8.830  17.344  0.00  0.00    +0.109 C 
ATOM     20  C   UNL     1      -9.720 -10.606  15.806  0.00  0.00    +0.109 C 
ATOM     22  C   UNL     1     -10.336  -8.269  15.281  0.00  0.00    +0.212 C 
ATOM     24  C   UNL     1     -10.246  -6.814  15.664  0.00  0.00    +0.109 C 
ENDBRANCH   8  12
BRANCH  13  21
ATOM      5  O   UNL     1      -4.175 -10.923  14.286  0.00  0.00    -0.336 OA
ATOM     10  N   UNL     1      -5.961  -9.586  14.095  0.00  0.00    -0.190 NA
ATOM     11  N   UNL     1      -4.339 -10.686  12.915  0.00  0.00    -0.056 NA
ATOM     21  C   UNL     1      -5.170 -10.239  14.909  0.00  0.00    +0.245 A 
ATOM     23  C   UNL     1      -5.412  -9.889  12.883  0.00  0.00    +0.202 A 
BRANCH  23  25
ATOM     25  C   UNL     1      -5.960  -9.382  11.660  0.00  0.00    +0.023 A 
ATOM     26  C   UNL     1      -5.145  -8.694  10.761  0.00  0.00    +0.015 A 
ATOM     27  C   UNL     1      -7.310  -9.577  11.367  0.00  0.00    +0.015 A 
ATOM     28  C   UNL     1      -5.680  -8.199   9.572  0.00  0.00    +0.046 A 
ATOM     29  C   UNL     1      -7.845  -9.083  10.177  0.00  0.00    +0.046 A 
ATOM     30  C   UNL     1      -7.029  -8.394   9.280  0.00  0.00    +0.130 A 
BRANCH  30   7
ATOM      7  O   UNL     1      -7.552  -7.912   8.119  0.00  0.00    -0.406 OA
BRANCH   7  31
ATOM      1  F   UNL     1      -8.744  -6.404   6.937  0.00  0.00    -0.133 F 
ATOM      2  F   UNL     1      -9.111  -6.548   9.087  0.00  0.00    -0.133 F 
ATOM      3  F   UNL     1      -7.236  -5.657   8.331  0.00  0.00    -0.133 F 
ATOM     31  C   UNL     1      -8.157  -6.624   8.135  0.00  0.00    +0.575 C 
ENDBRANCH   7  31
ENDBRANCH  30   7
ENDBRANCH  23  25
ENDBRANCH  13  21
BRANCH  16   4
ATOM      4  O   UNL     1      -3.366 -11.961  19.052  0.00  0.00    -0.390 OA
ATOM     32  H   UNL     1      -3.040 -12.867  19.191  0.00  0.00    +0.210 HD
ENDBRANCH  16   4
TORSDOF 6
ENDMDL
MODEL 6
REMARK VINA RESULT:      -6.6      4.328      8.461
REMARK  Name = 26743700
REMARK  7 active torsions:
REMARK  status: ('A' for Active; 'I' for Inactive)
REMARK    1  A    between atoms: O_4  and  C_16
REMARK    2  A    between atoms: O_7  and  C_30
REMARK    3  A    between atoms: O_7  and  C_31
REMARK    4  A    between atoms: N_8  and  C_12
REMARK    5  A    between atoms: C_13  and  C_21
REMARK    6  A    between atoms: C_22  and  C_24
REMARK    7  A    between atoms: C_23  and  C_25
REMARK                            x       y       z     vdW  Elec       q    Type
REMARK                         _______ _______ _______ _____ _____    ______ ____
ROOT
ATOM      8  N   UNL     1      -5.363 -11.170  16.906  0.00  0.00    -0.286 NA
ATOM     13  C   UNL     1      -6.333 -11.884  17.763  0.00  0.00    +0.149 C 
ATOM     14  C   UNL     1      -4.034 -11.550  17.379  0.00  0.00    +0.116 C 
ATOM     15  C   UNL     1      -5.599 -12.087  19.102  0.00  0.00    +0.061 C 
ATOM     16  C   UNL     1      -4.211 -11.497  18.885  0.00  0.00    +0.130 C 
ENDROOT
BRANCH   8  12
ATOM      6  O   UNL     1      -2.791 -11.973  11.380  0.00  0.00    -0.276 OA
ATOM      9  N   UNL     1      -4.554 -11.358  12.762  0.00  0.00    -0.302 N 
ATOM     12  C   UNL     1      -5.541 -11.446  15.482  0.00  0.00    +0.060 C 
ATOM     17  C   UNL     1      -5.505 -10.137  14.683  0.00  0.00    +0.038 C 
ATOM     18  C   UNL     1      -4.448 -12.405  14.993  0.00  0.00    +0.038 C 
ATOM     19  C   UNL     1      -5.594 -10.410  13.182  0.00  0.00    +0.109 C 
ATOM     20  C   UNL     1      -4.557 -12.631  13.485  0.00  0.00    +0.109 C 
ATOM     22  C   UNL     1      -3.632 -11.145  11.738  0.00  0.00    +0.212 C 
ATOM     24  C   UNL     1      -3.691  -9.808  11.044  0.00  0.00    +0.109 C 
ENDBRANCH   8  12
BRANCH  13  21
ATOM      5  O   UNL     1      -8.357 -11.391  19.041  0.00  0.00    -0.336 OA
ATOM     10  N   UNL     1      -8.188 -10.250  17.122  0.00  0.00    -0.190 NA
ATOM     11  N   UNL     1      -9.503 -10.590  18.963  0.00  0.00    -0.056 NA
ATOM     21  C   UNL     1      -7.637 -11.131  17.919  0.00  0.00    +0.245 A 
ATOM     23  C   UNL     1      -9.331  -9.947  17.803  0.00  0.00    +0.202 A 
BRANCH  23  25
ATOM     25  C   UNL     1     -10.279  -8.997  17.300  0.00  0.00    +0.023 A 
ATOM     26  C   UNL     1      -9.854  -7.729  16.905  0.00  0.00    +0.015 A 
ATOM     27  C   UNL     1     -11.628  -9.340  17.206  0.00  0.00    +0.015 A 
ATOM     28  C   UNL     1     -10.777  -6.804  16.417  0.00  0.00    +0.046 A 
ATOM     29  C   UNL     1     -12.551  -8.416  16.717  0.00  0.00    +0.046 A 
ATOM     30  C   UNL     1     -12.125  -7.147  16.323  0.00  0.00    +0.130 A 
BRANCH  30   7
ATOM      7  O   UNL     1     -13.027  -6.245  15.847  0.00  0.00    -0.406 OA
BRANCH   7  31
ATOM      1  F   UNL     1     -14.250  -5.575  14.074  0.00  0.00    -0.133 F 
ATOM      2  F   UNL     1     -12.172  -4.912  14.198  0.00  0.00    -0.133 F 
ATOM      3  F   UNL     1     -12.646  -7.018  13.729  0.00  0.00    -0.133 F 
ATOM     31  C   UNL     1     -13.007  -5.940  14.457  0.00  0.00    +0.575 C 
ENDBRANCH   7  31
ENDBRANCH  30   7
ENDBRANCH  23  25
ENDBRANCH  13  21
BRANCH  16   4
ATOM      4  O   UNL     1      -3.230 -12.263  19.556  0.00  0.00    -0.390 OA
ATOM     32  H   UNL     1      -3.694 -12.941  20.076  0.00  0.00    +0.210 HD
ENDBRANCH  16   4
TORSDOF 6
ENDMDL
MODEL 7
REMARK VINA RESULT:      -6.5     23.050     25.591
REMARK  Name = 26743700
REMARK  7 active torsions:
REMARK  status: ('A' for Active; 'I' for Inactive)
REMARK    1  A    between atoms: O_4  and  C_16
REMARK    2  A    between atoms: O_7  and  C_30
REMARK    3  A    between atoms: O_7  and  C_31
REMARK    4  A    between atoms: N_8  and  C_12
REMARK    5  A    between atoms: C_13  and  C_21
REMARK    6  A    between atoms: C_22  and  C_24
REMARK    7  A    between atoms: C_23  and  C_25
REMARK                            x       y       z     vdW  Elec       q    Type
REMARK                         _______ _______ _______ _____ _____    ______ ____
ROOT
ATOM      8  N   UNL     1     -15.211   5.140  32.740  0.00  0.00    -0.286 NA
ATOM     13  C   UNL     1     -15.560   6.520  32.343  0.00  0.00    +0.149 C 
ATOM     14  C   UNL     1     -16.442   4.526  33.230  0.00  0.00    +0.116 C 
ATOM     15  C   UNL     1     -16.761   6.893  33.233  0.00  0.00    +0.061 C 
ATOM     16  C   UNL     1     -17.041   5.645  34.062  0.00  0.00    +0.130 C 
ENDROOT
BRANCH   8  12
ATOM      6  O   UNL     1     -15.751   0.629  28.597  0.00  0.00    -0.276 OA
ATOM      9  N   UNL     1     -14.509   1.986  30.015  0.00  0.00    -0.302 N 
ATOM     12  C   UNL     1     -14.602   4.367  31.659  0.00  0.00    +0.060 C 
ATOM     17  C   UNL     1     -14.061   3.038  32.202  0.00  0.00    +0.038 C 
ATOM     18  C   UNL     1     -15.631   4.116  30.549  0.00  0.00    +0.038 C 
ATOM     19  C   UNL     1     -13.506   2.171  31.072  0.00  0.00    +0.109 C 
ATOM     20  C   UNL     1     -15.044   3.227  29.453  0.00  0.00    +0.109 C 
ATOM     22  C   UNL     1     -14.933   0.757  29.512  0.00  0.00    +0.212 C 
ATOM     24  C   UNL     1     -14.338  -0.474  30.145  0.00  0.00    +0.109 C 
ENDBRANCH   8  12
BRANCH  13  21
ATOM      5  O   UNL     1     -14.229   8.385  31.493  0.00  0.00    -0.336 OA
ATOM     10  N   UNL     1     -13.519   7.575  33.456  0.00  0.00    -0.190 NA
ATOM     11  N   UNL     1     -13.112   9.152  31.848  0.00  0.00    -0.056 NA
ATOM     21  C   UNL     1     -14.400   7.481  32.493  0.00  0.00    +0.245 A 
ATOM     23  C   UNL     1     -12.749   8.613  33.017  0.00  0.00    +0.202 A 
BRANCH  23  25
ATOM     25  C   UNL     1     -11.626   9.090  33.771  0.00  0.00    +0.023 A 
ATOM     26  C   UNL     1     -10.475   9.521  33.112  0.00  0.00    +0.015 A 
ATOM     27  C   UNL     1     -11.685   9.122  35.164  0.00  0.00    +0.015 A 
ATOM     28  C   UNL     1      -9.383   9.983  33.845  0.00  0.00    +0.046 A 
ATOM     29  C   UNL     1     -10.593   9.585  35.898  0.00  0.00    +0.046 A 
ATOM     30  C   UNL     1      -9.442  10.015  35.238  0.00  0.00    +0.130 A 
BRANCH  30   7
ATOM      7  O   UNL     1      -8.376  10.466  35.956  0.00  0.00    -0.406 OA
BRANCH   7  31
ATOM      1  F   UNL     1      -6.896   9.868  37.550  0.00  0.00    -0.133 F 
ATOM      2  F   UNL     1      -7.876   8.282  36.411  0.00  0.00    -0.133 F 
ATOM      3  F   UNL     1      -6.338   9.552  35.462  0.00  0.00    -0.133 F 
ATOM     31  C   UNL     1      -7.371   9.531  36.330  0.00  0.00    +0.575 C 
ENDBRANCH   7  31
ENDBRANCH  30   7
ENDBRANCH  23  25
ENDBRANCH  13  21
BRANCH  16   4
ATOM      4  O   UNL     1     -18.431   5.471  34.253  0.00  0.00    -0.390 OA
ATOM     32  H   UNL     1     -18.859   6.325  34.073  0.00  0.00    +0.210 HD
ENDBRANCH  16   4
TORSDOF 6
ENDMDL
MODEL 8
REMARK VINA RESULT:      -6.5      4.490      7.149
REMARK  Name = 26743700
REMARK  7 active torsions:
REMARK  status: ('A' for Active; 'I' for Inactive)
REMARK    1  A    between atoms: O_4  and  C_16
REMARK    2  A    between atoms: O_7  and  C_30
REMARK    3  A    between atoms: O_7  and  C_31
REMARK    4  A    between atoms: N_8  and  C_12
REMARK    5  A    between atoms: C_13  and  C_21
REMARK    6  A    between atoms: C_22  and  C_24
REMARK    7  A    between atoms: C_23  and  C_25
REMARK                            x       y       z     vdW  Elec       q    Type
REMARK                         _______ _______ _______ _____ _____    ______ ____
ROOT
ATOM      8  N   UNL     1      -3.768 -11.328  15.069  0.00  0.00    -0.286 NA
ATOM     13  C   UNL     1      -3.400 -10.347  14.026  0.00  0.00    +0.149 C 
ATOM     14  C   UNL     1      -2.739 -11.239  16.103  0.00  0.00    +0.116 C 
ATOM     15  C   UNL     1      -1.867 -10.229  14.122  0.00  0.00    +0.061 C 
ATOM     16  C   UNL     1      -1.471 -11.143  15.275  0.00  0.00    +0.130 C 
ENDROOT
BRANCH   8  12
ATOM      6  O   UNL     1      -7.396 -10.838  20.009  0.00  0.00    -0.276 OA
ATOM      9  N   UNL     1      -7.013 -11.354  17.776  0.00  0.00    -0.302 N 
ATOM     12  C   UNL     1      -5.110 -11.117  15.608  0.00  0.00    +0.060 C 
ATOM     17  C   UNL     1      -5.748 -12.465  15.973  0.00  0.00    +0.038 C 
ATOM     18  C   UNL     1      -5.045 -10.203  16.838  0.00  0.00    +0.038 C 
ATOM     19  C   UNL     1      -7.115 -12.264  16.627  0.00  0.00    +0.109 C 
ATOM     20  C   UNL     1      -6.426 -10.048  17.475  0.00  0.00    +0.109 C 
ATOM     22  C   UNL     1      -7.459 -11.634  19.068  0.00  0.00    +0.212 C 
ATOM     24  C   UNL     1      -8.050 -13.001  19.297  0.00  0.00    +0.109 C 
ENDBRANCH   8  12
BRANCH  13  21
ATOM      5  O   UNL     1      -3.488 -11.990  12.219  0.00  0.00    -0.336 OA
ATOM     10  N   UNL     1      -4.604 -10.097  11.788  0.00  0.00    -0.190 NA
ATOM     11  N   UNL     1      -4.035 -12.144  10.939  0.00  0.00    -0.056 NA
ATOM     21  C   UNL     1      -3.871 -10.759  12.647  0.00  0.00    +0.245 A 
ATOM     23  C   UNL     1      -4.677 -10.985  10.755  0.00  0.00    +0.202 A 
BRANCH  23  25
ATOM     25  C   UNL     1      -5.403 -10.687   9.555  0.00  0.00    +0.023 A 
ATOM     26  C   UNL     1      -4.723 -10.258   8.416  0.00  0.00    +0.015 A 
ATOM     27  C   UNL     1      -6.791 -10.827   9.527  0.00  0.00    +0.015 A 
ATOM     28  C   UNL     1      -5.430  -9.966   7.250  0.00  0.00    +0.046 A 
ATOM     29  C   UNL     1      -7.498 -10.536   8.361  0.00  0.00    +0.046 A 
ATOM     30  C   UNL     1      -6.817 -10.105   7.222  0.00  0.00    +0.130 A 
BRANCH  30   7
ATOM      7  O   UNL     1      -7.508  -9.821   6.084  0.00  0.00    -0.406 OA
BRANCH   7  31
ATOM      1  F   UNL     1      -8.846  -8.301   5.089  0.00  0.00    -0.133 F 
ATOM      2  F   UNL     1      -7.632  -7.649   6.786  0.00  0.00    -0.133 F 
ATOM      3  F   UNL     1      -6.686  -8.088   4.839  0.00  0.00    -0.133 F 
ATOM     31  C   UNL     1      -7.653  -8.457   5.705  0.00  0.00    +0.575 C 
ENDBRANCH   7  31
ENDBRANCH  30   7
ENDBRANCH  23  25
ENDBRANCH  13  21
BRANCH  16   4
ATOM      4  O   UNL     1      -0.403 -10.585  16.014  0.00  0.00    -0.390 OA
ATOM     32  H   UNL     1       0.410 -11.046  15.745  0.00  0.00    +0.210 HD
ENDBRANCH  16   4
TORSDOF 6
ENDMDL
MODEL 9
REMARK VINA RESULT:      -6.5      7.179     11.619
REMARK  Name = 26743700
REMARK  7 active torsions:
REMARK  status: ('A' for Active; 'I' for Inactive)
REMARK    1  A    between atoms: O_4  and  C_16
REMARK    2  A    between atoms: O_7  and  C_30
REMARK    3  A    between atoms: O_7  and  C_31
REMARK    4  A    between atoms: N_8  and  C_12
REMARK    5  A    between atoms: C_13  and  C_21
REMARK    6  A    between atoms: C_22  and  C_24
REMARK    7  A    between atoms: C_23  and  C_25
REMARK                            x       y       z     vdW  Elec       q    Type
REMARK                         _______ _______ _______ _____ _____    ______ ____
ROOT
ATOM      8  N   UNL     1      -6.968  -9.136   7.799  0.00  0.00    -0.286 NA
ATOM     13  C   UNL     1      -7.269  -8.022   6.876  0.00  0.00    +0.149 C 
ATOM     14  C   UNL     1      -6.270 -10.150   7.012  0.00  0.00    +0.116 C 
ATOM     15  C   UNL     1      -7.376  -8.681   5.488  0.00  0.00    +0.061 C 
ATOM     16  C   UNL     1      -7.075 -10.156   5.726  0.00  0.00    +0.130 C 
ENDROOT
BRANCH   8  12
ATOM      6  O   UNL     1      -2.770 -10.555  12.062  0.00  0.00    -0.276 OA
ATOM      9  N   UNL     1      -4.631  -9.383  11.312  0.00  0.00    -0.302 N 
ATOM     12  C   UNL     1      -6.197  -8.721   8.969  0.00  0.00    +0.060 C 
ATOM     17  C   UNL     1      -6.854  -9.255  10.249  0.00  0.00    +0.038 C 
ATOM     18  C   UNL     1      -4.754  -9.228   8.854  0.00  0.00    +0.038 C 
ATOM     19  C   UNL     1      -6.013  -8.914  11.479  0.00  0.00    +0.109 C 
ATOM     20  C   UNL     1      -3.955  -8.887  10.112  0.00  0.00    +0.109 C 
ATOM     22  C   UNL     1      -3.944 -10.203  12.207  0.00  0.00    +0.212 C 
ATOM     24  C   UNL     1      -4.710 -10.675  13.416  0.00  0.00    +0.109 C 
ENDBRANCH   8  12
BRANCH  13  21
ATOM      5  O   UNL     1      -9.471  -7.132   6.301  0.00  0.00    -0.336 OA
ATOM     10  N   UNL     1      -8.837  -6.712   8.407  0.00  0.00    -0.190 NA
ATOM     11  N   UNL     1     -10.518  -6.408   6.885  0.00  0.00    -0.056 NA
ATOM     21  C   UNL     1      -8.522  -7.266   7.264  0.00  0.00    +0.245 A 
ATOM     23  C   UNL     1     -10.069  -6.198   8.127  0.00  0.00    +0.202 A 
BRANCH  23  25
ATOM     25  C   UNL     1     -10.828  -5.481   9.110  0.00  0.00    +0.023 A 
ATOM     26  C   UNL     1     -10.828  -4.086   9.112  0.00  0.00    +0.015 A 
ATOM     27  C   UNL     1     -11.566  -6.179  10.067  0.00  0.00    +0.015 A 
ATOM     28  C   UNL     1     -11.564  -3.390  10.070  0.00  0.00    +0.046 A 
ATOM     29  C   UNL     1     -12.303  -5.483  11.024  0.00  0.00    +0.046 A 
ATOM     30  C   UNL     1     -12.302  -4.088  11.025  0.00  0.00    +0.130 A 
BRANCH  30   7
ATOM      7  O   UNL     1     -13.021  -3.408  11.961  0.00  0.00    -0.406 OA
BRANCH   7  31
ATOM      1  F   UNL     1     -14.963  -2.676  12.846  0.00  0.00    -0.133 F 
ATOM      2  F   UNL     1     -14.645  -2.407  10.701  0.00  0.00    -0.133 F 
ATOM      3  F   UNL     1     -15.027  -4.418  11.530  0.00  0.00    -0.133 F 
ATOM     31  C   UNL     1     -14.416  -3.234  11.743  0.00  0.00    +0.575 C 
ENDBRANCH   7  31
ENDBRANCH  30   7
ENDBRANCH  23  25
ENDBRANCH  13  21
BRANCH  16   4
ATOM      4  O   UNL     1      -6.338 -10.698   4.647  0.00  0.00    -0.390 OA
ATOM     32  H   UNL     1      -6.973 -11.114   4.039  0.00  0.00    +0.210 HD
ENDBRANCH  16   4
TORSDOF 6
ENDMDL
MODEL 10
REMARK VINA RESULT:      -6.5      5.749      9.403
REMARK  Name = 26743700
REMARK  7 active torsions:
REMARK  status: ('A' for Active; 'I' for Inactive)
REMARK    1  A    between atoms: O_4  and  C_16
REMARK    2  A    between atoms: O_7  and  C_30
REMARK    3  A    between atoms: O_7  and  C_31
REMARK    4  A    between atoms: N_8  and  C_12
REMARK    5  A    between atoms: C_13  and  C_21
REMARK    6  A    between atoms: C_22  and  C_24
REMARK    7  A    between atoms: C_23  and  C_25
REMARK                            x       y       z     vdW  Elec       q    Type
REMARK                         _______ _______ _______ _____ _____    ______ ____
ROOT
ATOM      8  N   UNL     1      -5.371 -10.329   8.789  0.00  0.00    -0.286 NA
ATOM     13  C   UNL     1      -4.556  -9.346   9.533  0.00  0.00    +0.149 C 
ATOM     14  C   UNL     1      -6.250  -9.559   7.913  0.00  0.00    +0.116 C 
ATOM     15  C   UNL     1      -5.431  -8.081   9.600  0.00  0.00    +0.061 C 
ATOM     16  C   UNL     1      -6.696  -8.434   8.828  0.00  0.00    +0.130 C 
ENDROOT
BRANCH   8  12
ATOM      6  O   UNL     1      -5.013 -14.380   4.178  0.00  0.00    -0.276 OA
ATOM      9  N   UNL     1      -4.384 -13.571   6.263  0.00  0.00    -0.302 N 
ATOM     12  C   UNL     1      -4.567 -11.299   8.048  0.00  0.00    +0.060 C 
ATOM     17  C   UNL     1      -4.889 -12.722   8.524  0.00  0.00    +0.038 C 
ATOM     18  C   UNL     1      -4.834 -11.162   6.544  0.00  0.00    +0.038 C 
ATOM     19  C   UNL     1      -4.130 -13.760   7.697  0.00  0.00    +0.109 C 
ATOM     20  C   UNL     1      -4.077 -12.232   5.757  0.00  0.00    +0.109 C 
ATOM     22  C   UNL     1      -4.842 -14.555   5.387  0.00  0.00    +0.212 C 
ATOM     24  C   UNL     1      -5.139 -15.906   5.986  0.00  0.00    +0.109 C 
ENDBRANCH   8  12
BRANCH  13  21
ATOM      5  O   UNL     1      -3.014 -10.599  10.957  0.00  0.00    -0.336 OA
ATOM     10  N   UNL     1      -4.722  -9.662  12.062  0.00  0.00    -0.190 NA
ATOM     11  N   UNL     1      -2.840 -10.941  12.304  0.00  0.00    -0.056 NA
ATOM     21  C   UNL     1      -4.144  -9.847  10.902  0.00  0.00    +0.245 A 
ATOM     23  C   UNL     1      -3.887 -10.352  12.892  0.00  0.00    +0.202 A 
BRANCH  23  25
ATOM     25  C   UNL     1      -4.125 -10.432  14.303  0.00  0.00    +0.023 A 
ATOM     26  C   UNL     1      -3.072 -10.711  15.174  0.00  0.00    +0.015 A 
ATOM     27  C   UNL     1      -5.411 -10.231  14.806  0.00  0.00    +0.015 A 
ATOM     28  C   UNL     1      -3.305 -10.791  16.547  0.00  0.00    +0.046 A 
ATOM     29  C   UNL     1      -5.643 -10.309  16.179  0.00  0.00    +0.046 A 
ATOM     30  C   UNL     1      -4.590 -10.589  17.049  0.00  0.00    +0.130 A 
BRANCH  30   7
ATOM      7  O   UNL     1      -4.818 -10.666  18.390  0.00  0.00    -0.406 OA
BRANCH   7  31
ATOM      1  F   UNL     1      -5.670 -11.996  20.001  0.00  0.00    -0.133 F 
ATOM      2  F   UNL     1      -5.023 -12.929  18.134  0.00  0.00    -0.133 F 
ATOM      3  F   UNL     1      -3.534 -12.148  19.566  0.00  0.00    -0.133 F 
ATOM     31  C   UNL     1      -4.748 -11.943  19.014  0.00  0.00    +0.575 C 
ENDBRANCH   7  31
ENDBRANCH  30   7
ENDBRANCH  23  25
ENDBRANCH  13  21
BRANCH  16   4
ATOM      4  O   UNL     1      -7.166  -7.318   8.097  0.00  0.00    -0.390 OA
ATOM     32  H   UNL     1      -6.428  -6.691   8.016  0.00  0.00    +0.210 HD
ENDBRANCH  16   4
TORSDOF 6
ENDMDL
