MODEL 1
REMARK VINA RESULT:      -7.2      0.000      0.000
REMARK  Name = 40777683
REMARK  9 active torsions:
REMARK  status: ('A' for Active; 'I' for Inactive)
REMARK    1  A    between atoms: O_5  and  C_32
REMARK    2  A    between atoms: O_5  and  C_33
REMARK    3  A    between atoms: N_6  and  C_11
REMARK    4  A    between atoms: N_7  and  C_19
REMARK    5  A    between atoms: C_9  and  C_12
REMARK    6  A    between atoms: C_15  and  C_17
REMARK    7  A    between atoms: C_16  and  C_18
REMARK    8  A    between atoms: C_20  and  C_21
REMARK    9  A    between atoms: C_26  and  C_29
REMARK                            x       y       z     vdW  Elec       q    Type
REMARK                         _______ _______ _______ _____ _____    ______ ____
ROOT
ATOM      9  C   UNL     1      -3.700 -10.930  10.273  0.00  0.00    +0.047 C 
ATOM     10  C   UNL     1      -4.024 -12.383   9.869  0.00  0.00    +0.039 C 
ATOM     11  C   UNL     1      -4.988 -12.283   8.681  0.00  0.00    +0.097 C 
ATOM     13  C   UNL     1      -4.860 -10.170   9.700  0.00  0.00    -0.021 C 
ATOM     14  C   UNL     1      -5.557 -10.910   8.831  0.00  0.00    -0.009 C 
ENDROOT
BRANCH   9  12
ATOM      7  N   UNL     1      -3.763 -10.711  13.930  0.00  0.00    -0.236 N 
ATOM      8  N   UNL     1      -2.518 -10.237  13.756  0.00  0.00    -0.171 NA
ATOM     12  C   UNL     1      -3.502 -10.753  11.761  0.00  0.00    +0.003 A 
ATOM     15  C   UNL     1      -4.396 -11.035  12.765  0.00  0.00    +0.046 A 
ATOM     16  C   UNL     1      -2.364 -10.266  12.430  0.00  0.00    +0.064 A 
ATOM     17  C   UNL     1      -5.769 -11.576  12.713  0.00  0.00    +0.066 C 
ATOM     18  C   UNL     1      -1.093  -9.811  11.838  0.00  0.00    +0.068 C 
BRANCH   7  19
ATOM     19  C   UNL     1      -4.286 -10.829  15.218  0.00  0.00    +0.066 A 
ATOM     22  C   UNL     1      -5.249  -9.925  15.665  0.00  0.00    +0.028 A 
ATOM     23  C   UNL     1      -3.842 -11.849  16.059  0.00  0.00    +0.028 A 
ATOM     24  C   UNL     1      -5.769 -10.041  16.955  0.00  0.00    +0.014 A 
ATOM     25  C   UNL     1      -4.362 -11.965  17.349  0.00  0.00    +0.014 A 
ATOM     26  C   UNL     1      -5.325 -11.061  17.796  0.00  0.00    +0.055 A 
BRANCH  26  29
ATOM      1  F   UNL     1      -6.350 -10.006  19.683  0.00  0.00    -0.166 F 
ATOM      2  F   UNL     1      -4.959 -11.630  20.076  0.00  0.00    -0.166 F 
ATOM      3  F   UNL     1      -6.931 -12.053  19.265  0.00  0.00    -0.166 F 
ATOM     29  C   UNL     1      -5.881 -11.184  19.175  0.00  0.00    +0.417 C 
ENDBRANCH  26  29
ENDBRANCH   7  19
ENDBRANCH   9  12
BRANCH  11   6
ATOM      4  O   UNL     1      -3.895 -14.661   7.499  0.00  0.00    -0.270 OA
ATOM      6  N   UNL     1      -4.319 -12.383   7.412  0.00  0.00    -0.305 N 
ATOM     20  C   UNL     1      -3.821 -13.582   6.918  0.00  0.00    +0.245 C 
ATOM     34  H   UNL     1      -4.133 -11.516   6.916  0.00  0.00    +0.150 HD
BRANCH  20  21
ATOM     21  C   UNL     1      -3.132 -13.512   5.603  0.00  0.00    +0.037 A 
ATOM     27  C   UNL     1      -3.508 -12.546   4.669  0.00  0.00    +0.016 A 
ATOM     28  C   UNL     1      -2.111 -14.413   5.301  0.00  0.00    +0.016 A 
ATOM     30  C   UNL     1      -2.863 -12.480   3.434  0.00  0.00    +0.046 A 
ATOM     31  C   UNL     1      -1.466 -14.348   4.067  0.00  0.00    +0.046 A 
ATOM     32  C   UNL     1      -1.841 -13.383   3.133  0.00  0.00    +0.120 A 
BRANCH  32   5
ATOM      5  O   UNL     1      -1.211 -13.319   1.928  0.00  0.00    -0.495 OA
ATOM     33  C   UNL     1      -0.160 -14.255   1.696  0.00  0.00    +0.277 C 
ENDBRANCH  32   5
ENDBRANCH  20  21
ENDBRANCH  11   6
TORSDOF 6
ENDMDL
MODEL 2
REMARK VINA RESULT:      -7.1      1.889      2.393
REMARK  Name = 40777683
REMARK  9 active torsions:
REMARK  status: ('A' for Active; 'I' for Inactive)
REMARK    1  A    between atoms: O_5  and  C_32
REMARK    2  A    between atoms: O_5  and  C_33
REMARK    3  A    between atoms: N_6  and  C_11
REMARK    4  A    between atoms: N_7  and  C_19
REMARK    5  A    between atoms: C_9  and  C_12
REMARK    6  A    between atoms: C_15  and  C_17
REMARK    7  A    between atoms: C_16  and  C_18
REMARK    8  A    between atoms: C_20  and  C_21
REMARK    9  A    between atoms: C_26  and  C_29
REMARK                            x       y       z     vdW  Elec       q    Type
REMARK                         _______ _______ _______ _____ _____    ______ ____
ROOT
ATOM      9  C   UNL     1      -3.611 -11.742  10.980  0.00  0.00    +0.047 C 
ATOM     10  C   UNL     1      -4.979 -11.623  10.276  0.00  0.00    +0.039 C 
ATOM     11  C   UNL     1      -4.830 -10.483   9.261  0.00  0.00    +0.097 C 
ATOM     13  C   UNL     1      -3.007 -10.389  10.739  0.00  0.00    -0.021 C 
ATOM     14  C   UNL     1      -3.672  -9.709   9.799  0.00  0.00    -0.009 C 
ENDROOT
BRANCH   9  12
ATOM      7  N   UNL     1      -4.207 -12.217  14.563  0.00  0.00    -0.236 N 
ATOM      8  N   UNL     1      -3.439 -13.303  14.377  0.00  0.00    -0.171 NA
ATOM     12  C   UNL     1      -3.720 -12.134  12.436  0.00  0.00    +0.003 A 
ATOM     15  C   UNL     1      -4.406 -11.482  13.431  0.00  0.00    +0.046 A 
ATOM     16  C   UNL     1      -3.145 -13.248  13.075  0.00  0.00    +0.064 A 
ATOM     17  C   UNL     1      -5.217 -10.248  13.397  0.00  0.00    +0.066 C 
ATOM     18  C   UNL     1      -2.299 -14.297  12.479  0.00  0.00    +0.068 C 
BRANCH   7  19
ATOM     19  C   UNL     1      -4.715 -11.936  15.832  0.00  0.00    +0.066 A 
ATOM     22  C   UNL     1      -4.008 -11.103  16.699  0.00  0.00    +0.028 A 
ATOM     23  C   UNL     1      -5.929 -12.494  16.236  0.00  0.00    +0.028 A 
ATOM     24  C   UNL     1      -4.515 -10.827  17.969  0.00  0.00    +0.014 A 
ATOM     25  C   UNL     1      -6.435 -12.217  17.506  0.00  0.00    +0.014 A 
ATOM     26  C   UNL     1      -5.728 -11.384  18.372  0.00  0.00    +0.055 A 
BRANCH  26  29
ATOM      1  F   UNL     1      -6.354  -9.754  20.007  0.00  0.00    -0.166 F 
ATOM      2  F   UNL     1      -5.504 -11.621  20.728  0.00  0.00    -0.166 F 
ATOM      3  F   UNL     1      -7.528 -11.576  19.936  0.00  0.00    -0.166 F 
ATOM     29  C   UNL     1      -6.268 -11.089  19.731  0.00  0.00    +0.417 C 
ENDBRANCH  26  29
ENDBRANCH   7  19
ENDBRANCH   9  12
BRANCH  11   6
ATOM      4  O   UNL     1      -6.672 -10.892   7.096  0.00  0.00    -0.270 OA
ATOM      6  N   UNL     1      -4.513 -10.953   7.939  0.00  0.00    -0.305 N 
ATOM     20  C   UNL     1      -5.474 -11.121   6.951  0.00  0.00    +0.245 C 
ATOM     34  H   UNL     1      -3.558 -11.256   7.772  0.00  0.00    +0.150 HD
BRANCH  20  21
ATOM     21  C   UNL     1      -4.988 -11.640   5.646  0.00  0.00    +0.037 A 
ATOM     27  C   UNL     1      -5.867 -11.752   4.568  0.00  0.00    +0.016 A 
ATOM     28  C   UNL     1      -3.653 -12.017   5.499  0.00  0.00    +0.016 A 
ATOM     30  C   UNL     1      -5.411 -12.240   3.344  0.00  0.00    +0.046 A 
ATOM     31  C   UNL     1      -3.197 -12.505   4.276  0.00  0.00    +0.046 A 
ATOM     32  C   UNL     1      -4.075 -12.618   3.198  0.00  0.00    +0.120 A 
BRANCH  32   5
ATOM      5  O   UNL     1      -3.630 -13.095   2.003  0.00  0.00    -0.495 OA
ATOM     33  C   UNL     1      -4.617 -13.518   1.065  0.00  0.00    +0.277 C 
ENDBRANCH  32   5
ENDBRANCH  20  21
ENDBRANCH  11   6
TORSDOF 6
ENDMDL
MODEL 3
REMARK VINA RESULT:      -7.0     28.771     31.944
REMARK  Name = 40777683
REMARK  9 active torsions:
REMARK  status: ('A' for Active; 'I' for Inactive)
REMARK    1  A    between atoms: O_5  and  C_32
REMARK    2  A    between atoms: O_5  and  C_33
REMARK    3  A    between atoms: N_6  and  C_11
REMARK    4  A    between atoms: N_7  and  C_19
REMARK    5  A    between atoms: C_9  and  C_12
REMARK    6  A    between atoms: C_15  and  C_17
REMARK    7  A    between atoms: C_16  and  C_18
REMARK    8  A    between atoms: C_20  and  C_21
REMARK    9  A    between atoms: C_26  and  C_29
REMARK                            x       y       z     vdW  Elec       q    Type
REMARK                         _______ _______ _______ _____ _____    ______ ____
ROOT
ATOM      9  C   UNL     1      19.405   7.307  21.263  0.00  0.00    +0.047 C 
ATOM     10  C   UNL     1      17.980   7.216  21.848  0.00  0.00    +0.039 C 
ATOM     11  C   UNL     1      17.350   8.598  21.637  0.00  0.00    +0.097 C 
ATOM     13  C   UNL     1      19.664   8.786  21.279  0.00  0.00    -0.021 C 
ATOM     14  C   UNL     1      18.541   9.484  21.479  0.00  0.00    -0.009 C 
ENDROOT
BRANCH   9  12
ATOM      7  N   UNL     1      21.912   4.999  22.607  0.00  0.00    -0.236 N 
ATOM      8  N   UNL     1      21.752   5.736  23.719  0.00  0.00    -0.171 NA
ATOM     12  C   UNL     1      20.417   6.480  22.022  0.00  0.00    +0.003 A 
ATOM     15  C   UNL     1      21.134   5.403  21.561  0.00  0.00    +0.046 A 
ATOM     16  C   UNL     1      20.838   6.640  23.355  0.00  0.00    +0.064 A 
ATOM     17  C   UNL     1      21.145   4.743  20.240  0.00  0.00    +0.066 C 
ATOM     18  C   UNL     1      20.391   7.651  24.330  0.00  0.00    +0.068 C 
BRANCH   7  19
ATOM     19  C   UNL     1      22.811   3.932  22.606  0.00  0.00    +0.066 A 
ATOM     22  C   UNL     1      22.529   2.781  23.341  0.00  0.00    +0.028 A 
ATOM     23  C   UNL     1      23.995   4.020  21.874  0.00  0.00    +0.028 A 
ATOM     24  C   UNL     1      23.431   1.716  23.343  0.00  0.00    +0.014 A 
ATOM     25  C   UNL     1      24.897   2.955  21.876  0.00  0.00    +0.014 A 
ATOM     26  C   UNL     1      24.615   1.804  22.611  0.00  0.00    +0.055 A 
BRANCH  26  29
ATOM      1  F   UNL     1      26.880   1.050  22.461  0.00  0.00    -0.166 F 
ATOM      2  F   UNL     1      25.341  -0.228  21.611  0.00  0.00    -0.166 F 
ATOM      3  F   UNL     1      25.557  -0.066  23.769  0.00  0.00    -0.166 F 
ATOM     29  C   UNL     1      25.579   0.666  22.615  0.00  0.00    +0.417 C 
ENDBRANCH  26  29
ENDBRANCH   7  19
ENDBRANCH   9  12
BRANCH  11   6
ATOM      4  O   UNL     1      14.484   8.718  21.503  0.00  0.00    -0.270 OA
ATOM      6  N   UNL     1      16.547   8.667  20.446  0.00  0.00    -0.305 N 
ATOM     20  C   UNL     1      15.159   8.722  20.478  0.00  0.00    +0.245 C 
ATOM     34  H   UNL     1      17.029   8.577  19.556  0.00  0.00    +0.150 HD
BRANCH  20  21
ATOM     21  C   UNL     1      14.476   8.763  19.159  0.00  0.00    +0.037 A 
ATOM     27  C   UNL     1      13.646   9.838  18.837  0.00  0.00    +0.016 A 
ATOM     28  C   UNL     1      14.662   7.728  18.244  0.00  0.00    +0.016 A 
ATOM     30  C   UNL     1      13.003   9.876  17.599  0.00  0.00    +0.046 A 
ATOM     31  C   UNL     1      14.019   7.765  17.007  0.00  0.00    +0.046 A 
ATOM     32  C   UNL     1      13.189   8.839  16.684  0.00  0.00    +0.120 A 
BRANCH  32   5
ATOM      5  O   UNL     1      12.562   8.876  15.477  0.00  0.00    -0.495 OA
ATOM     33  C   UNL     1      11.206   9.316  15.464  0.00  0.00    +0.277 C 
ENDBRANCH  32   5
ENDBRANCH  20  21
ENDBRANCH  11   6
TORSDOF 6
ENDMDL
MODEL 4
REMARK VINA RESULT:      -7.0      8.372     14.486
REMARK  Name = 40777683
REMARK  9 active torsions:
REMARK  status: ('A' for Active; 'I' for Inactive)
REMARK    1  A    between atoms: O_5  and  C_32
REMARK    2  A    between atoms: O_5  and  C_33
REMARK    3  A    between atoms: N_6  and  C_11
REMARK    4  A    between atoms: N_7  and  C_19
REMARK    5  A    between atoms: C_9  and  C_12
REMARK    6  A    between atoms: C_15  and  C_17
REMARK    7  A    between atoms: C_16  and  C_18
REMARK    8  A    between atoms: C_20  and  C_21
REMARK    9  A    between atoms: C_26  and  C_29
REMARK                            x       y       z     vdW  Elec       q    Type
REMARK                         _______ _______ _______ _____ _____    ______ ____
ROOT
ATOM      9  C   UNL     1      -9.794 -11.398  18.996  0.00  0.00    +0.047 C 
ATOM     10  C   UNL     1     -10.435 -10.398  19.981  0.00  0.00    +0.039 C 
ATOM     11  C   UNL     1     -11.912 -10.797  20.083  0.00  0.00    +0.097 C 
ATOM     13  C   UNL     1     -10.982 -11.898  18.227  0.00  0.00    -0.021 C 
ATOM     14  C   UNL     1     -12.133 -11.571  18.825  0.00  0.00    -0.009 C 
ENDROOT
BRANCH   9  12
ATOM      7  N   UNL     1      -6.852 -10.401  17.054  0.00  0.00    -0.236 N 
ATOM      8  N   UNL     1      -7.588  -9.303  16.816  0.00  0.00    -0.171 NA
ATOM     12  C   UNL     1      -8.704 -10.786  18.147  0.00  0.00    +0.003 A 
ATOM     15  C   UNL     1      -7.475 -11.321  17.847  0.00  0.00    +0.046 A 
ATOM     16  C   UNL     1      -8.719  -9.544  17.485  0.00  0.00    +0.064 A 
ATOM     17  C   UNL     1      -6.857 -12.603  18.239  0.00  0.00    +0.066 C 
ATOM     18  C   UNL     1      -9.801  -8.543  17.464  0.00  0.00    +0.068 C 
BRANCH   7  19
ATOM     19  C   UNL     1      -5.575 -10.512  16.503  0.00  0.00    +0.066 A 
ATOM     22  C   UNL     1      -4.458 -10.565  17.337  0.00  0.00    +0.028 A 
ATOM     23  C   UNL     1      -5.415 -10.565  15.118  0.00  0.00    +0.028 A 
ATOM     24  C   UNL     1      -3.181 -10.672  16.785  0.00  0.00    +0.014 A 
ATOM     25  C   UNL     1      -4.138 -10.672  14.567  0.00  0.00    +0.014 A 
ATOM     26  C   UNL     1      -3.022 -10.724  15.401  0.00  0.00    +0.055 A 
BRANCH  26  29
ATOM      1  F   UNL     1      -1.315 -12.113  14.460  0.00  0.00    -0.166 F 
ATOM      2  F   UNL     1      -0.678 -10.421  15.668  0.00  0.00    -0.166 F 
ATOM      3  F   UNL     1      -1.487 -10.098  13.676  0.00  0.00    -0.166 F 
ATOM     29  C   UNL     1      -1.655 -10.838  14.812  0.00  0.00    +0.417 C 
ENDBRANCH  26  29
ENDBRANCH   7  19
ENDBRANCH   9  12
BRANCH  11   6
ATOM      4  O   UNL     1     -14.388 -10.995  21.524  0.00  0.00    -0.270 OA
ATOM      6  N   UNL     1     -12.182 -11.643  21.213  0.00  0.00    -0.305 N 
ATOM     20  C   UNL     1     -13.417 -11.673  21.850  0.00  0.00    +0.245 C 
ATOM     34  H   UNL     1     -11.401 -12.162  21.602  0.00  0.00    +0.150 HD
BRANCH  20  21
ATOM     21  C   UNL     1     -13.527 -12.582  23.021  0.00  0.00    +0.037 A 
ATOM     27  C   UNL     1     -14.492 -12.344  24.000  0.00  0.00    +0.016 A 
ATOM     28  C   UNL     1     -12.665 -13.672  23.142  0.00  0.00    +0.016 A 
ATOM     30  C   UNL     1     -14.595 -13.196  25.100  0.00  0.00    +0.046 A 
ATOM     31  C   UNL     1     -12.767 -14.524  24.241  0.00  0.00    +0.046 A 
ATOM     32  C   UNL     1     -13.732 -14.286  25.221  0.00  0.00    +0.120 A 
BRANCH  32   5
ATOM      5  O   UNL     1     -13.832 -15.118  26.294  0.00  0.00    -0.495 OA
ATOM     33  C   UNL     1     -14.207 -14.529  27.537  0.00  0.00    +0.277 C 
ENDBRANCH  32   5
ENDBRANCH  20  21
ENDBRANCH  11   6
TORSDOF 6
ENDMDL
MODEL 5
REMARK VINA RESULT:      -6.8      3.897      5.087
REMARK  Name = 40777683
REMARK  9 active torsions:
REMARK  status: ('A' for Active; 'I' for Inactive)
REMARK    1  A    between atoms: O_5  and  C_32
REMARK    2  A    between atoms: O_5  and  C_33
REMARK    3  A    between atoms: N_6  and  C_11
REMARK    4  A    between atoms: N_7  and  C_19
REMARK    5  A    between atoms: C_9  and  C_12
REMARK    6  A    between atoms: C_15  and  C_17
REMARK    7  A    between atoms: C_16  and  C_18
REMARK    8  A    between atoms: C_20  and  C_21
REMARK    9  A    between atoms: C_26  and  C_29
REMARK                            x       y       z     vdW  Elec       q    Type
REMARK                         _______ _______ _______ _____ _____    ______ ____
ROOT
ATOM      9  C   UNL     1      -5.651 -10.121  10.364  0.00  0.00    +0.047 C 
ATOM     10  C   UNL     1      -4.877  -9.115   9.487  0.00  0.00    +0.039 C 
ATOM     11  C   UNL     1      -4.985  -9.641   8.051  0.00  0.00    +0.097 C 
ATOM     13  C   UNL     1      -5.654 -11.356   9.511  0.00  0.00    -0.021 C 
ATOM     14  C   UNL     1      -5.294 -11.088   8.251  0.00  0.00    -0.009 C 
ENDROOT
BRANCH   9  12
ATOM      7  N   UNL     1      -4.739 -10.616  13.878  0.00  0.00    -0.236 N 
ATOM      8  N   UNL     1      -3.490 -10.498  13.397  0.00  0.00    -0.171 NA
ATOM     12  C   UNL     1      -5.047 -10.305  11.738  0.00  0.00    +0.003 A 
ATOM     15  C   UNL     1      -5.709 -10.508  12.924  0.00  0.00    +0.046 A 
ATOM     16  C   UNL     1      -3.684 -10.308  12.089  0.00  0.00    +0.064 A 
ATOM     17  C   UNL     1      -7.152 -10.607  13.221  0.00  0.00    +0.066 C 
ATOM     18  C   UNL     1      -2.521 -10.133  11.202  0.00  0.00    +0.068 C 
BRANCH   7  19
ATOM     19  C   UNL     1      -4.939 -10.829  15.243  0.00  0.00    +0.066 A 
ATOM     22  C   UNL     1      -5.320  -9.769  16.065  0.00  0.00    +0.028 A 
ATOM     23  C   UNL     1      -4.753 -12.101  15.784  0.00  0.00    +0.028 A 
ATOM     24  C   UNL     1      -5.516  -9.981  17.430  0.00  0.00    +0.014 A 
ATOM     25  C   UNL     1      -4.949 -12.313  17.149  0.00  0.00    +0.014 A 
ATOM     26  C   UNL     1      -5.330 -11.253  17.971  0.00  0.00    +0.055 A 
BRANCH  26  29
ATOM      1  F   UNL     1      -4.403 -11.836  20.098  0.00  0.00    -0.166 F 
ATOM      2  F   UNL     1      -6.441 -12.471  19.686  0.00  0.00    -0.166 F 
ATOM      3  F   UNL     1      -6.009 -10.379  20.092  0.00  0.00    -0.166 F 
ATOM     29  C   UNL     1      -5.539 -11.479  19.431  0.00  0.00    +0.417 C 
ENDBRANCH  26  29
ENDBRANCH   7  19
ENDBRANCH   9  12
BRANCH  11   6
ATOM      4  O   UNL     1      -5.882 -10.353   5.417  0.00  0.00    -0.270 OA
ATOM      6  N   UNL     1      -6.053  -9.026   7.312  0.00  0.00    -0.305 N 
ATOM     20  C   UNL     1      -6.420  -9.439   6.037  0.00  0.00    +0.245 C 
ATOM     34  H   UNL     1      -6.483  -8.200   7.718  0.00  0.00    +0.150 HD
BRANCH  20  21
ATOM     21  C   UNL     1      -7.527  -8.682   5.397  0.00  0.00    +0.037 A 
ATOM     27  C   UNL     1      -8.451  -7.997   6.186  0.00  0.00    +0.016 A 
ATOM     28  C   UNL     1      -7.644  -8.658   4.007  0.00  0.00    +0.016 A 
ATOM     30  C   UNL     1      -9.491  -7.287   5.586  0.00  0.00    +0.046 A 
ATOM     31  C   UNL     1      -8.684  -7.950   3.407  0.00  0.00    +0.046 A 
ATOM     32  C   UNL     1      -9.608  -7.264   4.196  0.00  0.00    +0.120 A 
BRANCH  32   5
ATOM      5  O   UNL     1     -10.623  -6.572   3.609  0.00  0.00    -0.495 OA
ATOM     33  C   UNL     1     -10.893  -6.855   2.237  0.00  0.00    +0.277 C 
ENDBRANCH  32   5
ENDBRANCH  20  21
ENDBRANCH  11   6
TORSDOF 6
ENDMDL
MODEL 6
REMARK VINA RESULT:      -6.8     24.043     27.387
REMARK  Name = 40777683
REMARK  9 active torsions:
REMARK  status: ('A' for Active; 'I' for Inactive)
REMARK    1  A    between atoms: O_5  and  C_32
REMARK    2  A    between atoms: O_5  and  C_33
REMARK    3  A    between atoms: N_6  and  C_11
REMARK    4  A    between atoms: N_7  and  C_19
REMARK    5  A    between atoms: C_9  and  C_12
REMARK    6  A    between atoms: C_15  and  C_17
REMARK    7  A    between atoms: C_16  and  C_18
REMARK    8  A    between atoms: C_20  and  C_21
REMARK    9  A    between atoms: C_26  and  C_29
REMARK                            x       y       z     vdW  Elec       q    Type
REMARK                         _______ _______ _______ _____ _____    ______ ____
ROOT
ATOM      9  C   UNL     1       9.556   7.652   5.858  0.00  0.00    +0.047 C 
ATOM     10  C   UNL     1      10.679   8.695   6.037  0.00  0.00    +0.039 C 
ATOM     11  C   UNL     1       9.981  10.059   6.077  0.00  0.00    +0.097 C 
ATOM     13  C   UNL     1       8.443   8.474   5.277  0.00  0.00    -0.021 C 
ATOM     14  C   UNL     1       8.678   9.785   5.402  0.00  0.00    -0.009 C 
ENDROOT
BRANCH   9  12
ATOM      7  N   UNL     1      10.637   5.166   3.393  0.00  0.00    -0.236 N 
ATOM      8  N   UNL     1      10.444   4.315   4.413  0.00  0.00    -0.171 NA
ATOM     12  C   UNL     1       9.970   6.466   5.017  0.00  0.00    +0.003 A 
ATOM     15  C   UNL     1      10.367   6.468   3.702  0.00  0.00    +0.046 A 
ATOM     16  C   UNL     1      10.037   5.114   5.403  0.00  0.00    +0.064 A 
ATOM     17  C   UNL     1      10.510   7.577   2.738  0.00  0.00    +0.066 C 
ATOM     18  C   UNL     1       9.719   4.532   6.719  0.00  0.00    +0.068 C 
BRANCH   7  19
ATOM     19  C   UNL     1      11.075   4.682   2.159  0.00  0.00    +0.066 A 
ATOM     22  C   UNL     1      10.265   4.812   1.031  0.00  0.00    +0.028 A 
ATOM     23  C   UNL     1      12.321   4.064   2.056  0.00  0.00    +0.028 A 
ATOM     24  C   UNL     1      10.702   4.324  -0.201  0.00  0.00    +0.014 A 
ATOM     25  C   UNL     1      12.758   3.576   0.824  0.00  0.00    +0.014 A 
ATOM     26  C   UNL     1      11.948   3.706  -0.303  0.00  0.00    +0.055 A 
BRANCH  26  29
ATOM      1  F   UNL     1      11.670   3.625  -2.678  0.00  0.00    -0.166 F 
ATOM      2  F   UNL     1      12.376   1.822  -1.690  0.00  0.00    -0.166 F 
ATOM      3  F   UNL     1      13.701   3.530  -1.922  0.00  0.00    -0.166 F 
ATOM     29  C   UNL     1      12.413   3.184  -1.621  0.00  0.00    +0.417 C 
ENDBRANCH  26  29
ENDBRANCH   7  19
ENDBRANCH   9  12
BRANCH  11   6
ATOM      4  O   UNL     1      11.921  11.105   7.919  0.00  0.00    -0.270 OA
ATOM      6  N   UNL     1       9.734  10.518   7.417  0.00  0.00    -0.305 N 
ATOM     20  C   UNL     1      10.739  11.011   8.240  0.00  0.00    +0.245 C 
ATOM     34  H   UNL     1       8.798  10.383   7.788  0.00  0.00    +0.150 HD
BRANCH  20  21
ATOM     21  C   UNL     1      10.324  11.420   9.606  0.00  0.00    +0.037 A 
ATOM     27  C   UNL     1       8.971  11.450   9.945  0.00  0.00    +0.016 A 
ATOM     28  C   UNL     1      11.287  11.776  10.551  0.00  0.00    +0.016 A 
ATOM     30  C   UNL     1       8.580  11.835  11.227  0.00  0.00    +0.046 A 
ATOM     31  C   UNL     1      10.897  12.162  11.833  0.00  0.00    +0.046 A 
ATOM     32  C   UNL     1       9.544  12.192  12.172  0.00  0.00    +0.120 A 
BRANCH  32   5
ATOM      5  O   UNL     1       9.164  12.568  13.423  0.00  0.00    -0.495 OA
ATOM     33  C   UNL     1       8.933  13.959  13.640  0.00  0.00    +0.277 C 
ENDBRANCH  32   5
ENDBRANCH  20  21
ENDBRANCH  11   6
TORSDOF 6
ENDMDL
MODEL 7
REMARK VINA RESULT:      -6.8      3.520      4.110
REMARK  Name = 40777683
REMARK  9 active torsions:
REMARK  status: ('A' for Active; 'I' for Inactive)
REMARK    1  A    between atoms: O_5  and  C_32
REMARK    2  A    between atoms: O_5  and  C_33
REMARK    3  A    between atoms: N_6  and  C_11
REMARK    4  A    between atoms: N_7  and  C_19
REMARK    5  A    between atoms: C_9  and  C_12
REMARK    6  A    between atoms: C_15  and  C_17
REMARK    7  A    between atoms: C_16  and  C_18
REMARK    8  A    between atoms: C_20  and  C_21
REMARK    9  A    between atoms: C_26  and  C_29
REMARK                            x       y       z     vdW  Elec       q    Type
REMARK                         _______ _______ _______ _____ _____    ______ ____
ROOT
ATOM      9  C   UNL     1      -4.514 -10.937  10.682  0.00  0.00    +0.047 C 
ATOM     10  C   UNL     1      -5.709  -9.990  10.443  0.00  0.00    +0.039 C 
ATOM     11  C   UNL     1      -5.222  -8.948   9.430  0.00  0.00    +0.097 C 
ATOM     13  C   UNL     1      -3.346 -10.094  10.259  0.00  0.00    -0.021 C 
ATOM     14  C   UNL     1      -3.737  -9.014   9.574  0.00  0.00    -0.009 C 
ENDROOT
BRANCH   9  12
ATOM      7  N   UNL     1      -4.666 -11.743  14.253  0.00  0.00    -0.236 N 
ATOM      8  N   UNL     1      -3.888 -12.774  13.883  0.00  0.00    -0.171 NA
ATOM     12  C   UNL     1      -4.437 -11.457  12.099  0.00  0.00    +0.003 A 
ATOM     15  C   UNL     1      -5.023 -10.924  13.221  0.00  0.00    +0.046 A 
ATOM     16  C   UNL     1      -3.752 -12.595  12.566  0.00  0.00    +0.064 A 
ATOM     17  C   UNL     1      -5.874  -9.729  13.391  0.00  0.00    +0.066 C 
ATOM     18  C   UNL     1      -2.946 -13.550  11.785  0.00  0.00    +0.068 C 
BRANCH   7  19
ATOM     19  C   UNL     1      -5.031 -11.595  15.592  0.00  0.00    +0.066 A 
ATOM     22  C   UNL     1      -6.174 -12.230  16.077  0.00  0.00    +0.028 A 
ATOM     23  C   UNL     1      -4.255 -10.808  16.442  0.00  0.00    +0.028 A 
ATOM     24  C   UNL     1      -6.541 -12.078  17.415  0.00  0.00    +0.014 A 
ATOM     25  C   UNL     1      -4.621 -10.656  17.780  0.00  0.00    +0.014 A 
ATOM     26  C   UNL     1      -5.764 -11.291  18.265  0.00  0.00    +0.055 A 
BRANCH  26  29
ATOM      1  F   UNL     1      -5.216 -11.579  20.576  0.00  0.00    -0.166 F 
ATOM      2  F   UNL     1      -7.302 -11.803  20.005  0.00  0.00    -0.166 F 
ATOM      3  F   UNL     1      -6.389  -9.830  20.055  0.00  0.00    -0.166 F 
ATOM     29  C   UNL     1      -6.158 -11.128  19.695  0.00  0.00    +0.417 C 
ENDBRANCH  26  29
ENDBRANCH   7  19
ENDBRANCH   9  12
BRANCH  11   6
ATOM      4  O   UNL     1      -7.679  -8.288   8.098  0.00  0.00    -0.270 OA
ATOM      6  N   UNL     1      -5.581  -9.277   8.077  0.00  0.00    -0.305 N 
ATOM     20  C   UNL     1      -6.798  -8.914   7.514  0.00  0.00    +0.245 C 
ATOM     34  H   UNL     1      -4.945  -9.878   7.561  0.00  0.00    +0.150 HD
BRANCH  20  21
ATOM     21  C   UNL     1      -7.028  -9.353   6.113  0.00  0.00    +0.037 A 
ATOM     27  C   UNL     1      -6.681 -10.647   5.722  0.00  0.00    +0.016 A 
ATOM     28  C   UNL     1      -7.590  -8.473   5.189  0.00  0.00    +0.016 A 
ATOM     30  C   UNL     1      -6.895 -11.060   4.407  0.00  0.00    +0.046 A 
ATOM     31  C   UNL     1      -7.804  -8.884   3.874  0.00  0.00    +0.046 A 
ATOM     32  C   UNL     1      -7.456 -10.177   3.482  0.00  0.00    +0.120 A 
BRANCH  32   5
ATOM      5  O   UNL     1      -7.666 -10.579   2.199  0.00  0.00    -0.495 OA
ATOM     33  C   UNL     1      -7.614 -11.982   1.942  0.00  0.00    +0.277 C 
ENDBRANCH  32   5
ENDBRANCH  20  21
ENDBRANCH  11   6
TORSDOF 6
ENDMDL
MODEL 8
REMARK VINA RESULT:      -6.7      7.122      8.840
REMARK  Name = 40777683
REMARK  9 active torsions:
REMARK  status: ('A' for Active; 'I' for Inactive)
REMARK    1  A    between atoms: O_5  and  C_32
REMARK    2  A    between atoms: O_5  and  C_33
REMARK    3  A    between atoms: N_6  and  C_11
REMARK    4  A    between atoms: N_7  and  C_19
REMARK    5  A    between atoms: C_9  and  C_12
REMARK    6  A    between atoms: C_15  and  C_17
REMARK    7  A    between atoms: C_16  and  C_18
REMARK    8  A    between atoms: C_20  and  C_21
REMARK    9  A    between atoms: C_26  and  C_29
REMARK                            x       y       z     vdW  Elec       q    Type
REMARK                         _______ _______ _______ _____ _____    ______ ____
ROOT
ATOM      9  C   UNL     1      -8.493  -8.795   5.761  0.00  0.00    +0.047 C 
ATOM     10  C   UNL     1      -7.607  -8.644   4.507  0.00  0.00    +0.039 C 
ATOM     11  C   UNL     1      -8.157  -9.644   3.482  0.00  0.00    +0.097 C 
ATOM     13  C   UNL     1      -9.075 -10.167   5.580  0.00  0.00    -0.021 C 
ATOM     14  C   UNL     1      -8.892 -10.623   4.336  0.00  0.00    -0.009 C 
ENDROOT
BRANCH   9  12
ATOM      7  N   UNL     1      -6.340  -8.765   8.725  0.00  0.00    -0.236 N 
ATOM      8  N   UNL     1      -7.110  -7.719   9.068  0.00  0.00    -0.171 NA
ATOM     12  C   UNL     1      -7.737  -8.595   7.054  0.00  0.00    +0.003 A 
ATOM     15  C   UNL     1      -6.675  -9.326   7.527  0.00  0.00    +0.046 A 
ATOM     16  C   UNL     1      -7.961  -7.619   8.043  0.00  0.00    +0.064 A 
ATOM     17  C   UNL     1      -5.966 -10.485   6.948  0.00  0.00    +0.066 C 
ATOM     18  C   UNL     1      -8.986  -6.560   8.054  0.00  0.00    +0.068 C 
BRANCH   7  19
ATOM     19  C   UNL     1      -5.312  -9.177   9.574  0.00  0.00    +0.066 A 
ATOM     22  C   UNL     1      -5.601  -9.967  10.687  0.00  0.00    +0.028 A 
ATOM     23  C   UNL     1      -3.997  -8.795   9.312  0.00  0.00    +0.028 A 
ATOM     24  C   UNL     1      -4.574 -10.375  11.538  0.00  0.00    +0.014 A 
ATOM     25  C   UNL     1      -2.969  -9.204  10.163  0.00  0.00    +0.014 A 
ATOM     26  C   UNL     1      -3.258  -9.993  11.276  0.00  0.00    +0.055 A 
BRANCH  26  29
ATOM      1  F   UNL     1      -2.427 -10.213  13.508  0.00  0.00    -0.166 F 
ATOM      2  F   UNL     1      -0.984  -9.784  11.939  0.00  0.00    -0.166 F 
ATOM      3  F   UNL     1      -1.872 -11.762  12.096  0.00  0.00    -0.166 F 
ATOM     29  C   UNL     1      -2.160 -10.430  12.187  0.00  0.00    +0.417 C 
ENDBRANCH  26  29
ENDBRANCH   7  19
ENDBRANCH   9  12
BRANCH  11   6
ATOM      4  O   UNL     1      -7.483  -8.196   1.095  0.00  0.00    -0.270 OA
ATOM      6  N   UNL     1      -9.075  -9.041   2.554  0.00  0.00    -0.305 N 
ATOM     20  C   UNL     1      -8.656  -8.357   1.420  0.00  0.00    +0.245 C 
ATOM     34  H   UNL     1     -10.059  -9.048   2.806  0.00  0.00    +0.150 HD
BRANCH  20  21
ATOM     21  C   UNL     1      -9.729  -7.770   0.577  0.00  0.00    +0.037 A 
ATOM     27  C   UNL     1     -10.479  -6.694   1.052  0.00  0.00    +0.016 A 
ATOM     28  C   UNL     1      -9.989  -8.295  -0.689  0.00  0.00    +0.016 A 
ATOM     30  C   UNL     1     -11.488  -6.142   0.262  0.00  0.00    +0.046 A 
ATOM     31  C   UNL     1     -10.997  -7.745  -1.480  0.00  0.00    +0.046 A 
ATOM     32  C   UNL     1     -11.747  -6.669  -1.005  0.00  0.00    +0.120 A 
BRANCH  32   5
ATOM      5  O   UNL     1     -12.731  -6.131  -1.777  0.00  0.00    -0.495 OA
ATOM     33  C   UNL     1     -13.205  -4.836  -1.414  0.00  0.00    +0.277 C 
ENDBRANCH  32   5
ENDBRANCH  20  21
ENDBRANCH  11   6
TORSDOF 6
ENDMDL
MODEL 9
REMARK VINA RESULT:      -6.7     24.509     27.669
REMARK  Name = 40777683
REMARK  9 active torsions:
REMARK  status: ('A' for Active; 'I' for Inactive)
REMARK    1  A    between atoms: O_5  and  C_32
REMARK    2  A    between atoms: O_5  and  C_33
REMARK    3  A    between atoms: N_6  and  C_11
REMARK    4  A    between atoms: N_7  and  C_19
REMARK    5  A    between atoms: C_9  and  C_12
REMARK    6  A    between atoms: C_15  and  C_17
REMARK    7  A    between atoms: C_16  and  C_18
REMARK    8  A    between atoms: C_20  and  C_21
REMARK    9  A    between atoms: C_26  and  C_29
REMARK                            x       y       z     vdW  Elec       q    Type
REMARK                         _______ _______ _______ _____ _____    ______ ____
ROOT
ATOM      9  C   UNL     1      11.616   7.292   5.822  0.00  0.00    +0.047 C 
ATOM     10  C   UNL     1      10.484   8.328   5.673  0.00  0.00    +0.039 C 
ATOM     11  C   UNL     1       9.495   8.034   6.808  0.00  0.00    +0.097 C 
ATOM     13  C   UNL     1      10.955   6.204   6.617  0.00  0.00    -0.021 C 
ATOM     14  C   UNL     1       9.802   6.615   7.155  0.00  0.00    -0.009 C 
ENDROOT
BRANCH   9  12
ATOM      7  N   UNL     1      12.538   5.878   2.570  0.00  0.00    -0.236 N 
ATOM      8  N   UNL     1      13.621   6.657   2.725  0.00  0.00    -0.171 NA
ATOM     12  C   UNL     1      12.195   6.844   4.499  0.00  0.00    +0.003 A 
ATOM     15  C   UNL     1      11.652   5.953   3.605  0.00  0.00    +0.046 A 
ATOM     16  C   UNL     1      13.406   7.246   3.905  0.00  0.00    +0.064 A 
ATOM     17  C   UNL     1      10.391   5.186   3.650  0.00  0.00    +0.066 C 
ATOM     18  C   UNL     1      14.399   8.198   4.432  0.00  0.00    +0.068 C 
BRANCH   7  19
ATOM     19  C   UNL     1      12.408   5.092   1.424  0.00  0.00    +0.066 A 
ATOM     22  C   UNL     1      11.573   5.506   0.386  0.00  0.00    +0.028 A 
ATOM     23  C   UNL     1      13.108   3.890   1.320  0.00  0.00    +0.028 A 
ATOM     24  C   UNL     1      11.440   4.718  -0.758  0.00  0.00    +0.014 A 
ATOM     25  C   UNL     1      12.975   3.102   0.177  0.00  0.00    +0.014 A 
ATOM     26  C   UNL     1      12.140   3.516  -0.861  0.00  0.00    +0.055 A 
BRANCH  26  29
ATOM      1  F   UNL     1      12.172   1.339  -1.853  0.00  0.00    -0.166 F 
ATOM      2  F   UNL     1      12.898   2.998  -3.055  0.00  0.00    -0.166 F 
ATOM      3  F   UNL     1      10.769   2.774  -2.676  0.00  0.00    -0.166 F 
ATOM     29  C   UNL     1      11.997   2.673  -2.084  0.00  0.00    +0.417 C 
ENDBRANCH  26  29
ENDBRANCH   7  19
ENDBRANCH   9  12
BRANCH  11   6
ATOM      4  O   UNL     1       9.103  10.874   6.982  0.00  0.00    -0.270 OA
ATOM      6  N   UNL     1       9.712   8.862   7.963  0.00  0.00    -0.305 N 
ATOM     20  C   UNL     1       9.494  10.235   7.955  0.00  0.00    +0.245 C 
ATOM     34  H   UNL     1      10.128   8.422   8.778  0.00  0.00    +0.150 HD
BRANCH  20  21
ATOM     21  C   UNL     1       9.791  10.951   9.222  0.00  0.00    +0.037 A 
ATOM     27  C   UNL     1      11.111  11.247   9.564  0.00  0.00    +0.016 A 
ATOM     28  C   UNL     1       8.751  11.327  10.072  0.00  0.00    +0.016 A 
ATOM     30  C   UNL     1      11.391  11.918  10.754  0.00  0.00    +0.046 A 
ATOM     31  C   UNL     1       9.029  11.998  11.262  0.00  0.00    +0.046 A 
ATOM     32  C   UNL     1      10.349  12.294  11.604  0.00  0.00    +0.120 A 
BRANCH  32   5
ATOM      5  O   UNL     1      10.621  12.949  12.766  0.00  0.00    -0.495 OA
ATOM     33  C   UNL     1       9.547  13.666  13.372  0.00  0.00    +0.277 C 
ENDBRANCH  32   5
ENDBRANCH  20  21
ENDBRANCH  11   6
TORSDOF 6
ENDMDL
MODEL 10
REMARK VINA RESULT:      -6.7     28.403     31.688
REMARK  Name = 40777683
REMARK  9 active torsions:
REMARK  status: ('A' for Active; 'I' for Inactive)
REMARK    1  A    between atoms: O_5  and  C_32
REMARK    2  A    between atoms: O_5  and  C_33
REMARK    3  A    between atoms: N_6  and  C_11
REMARK    4  A    between atoms: N_7  and  C_19
REMARK    5  A    between atoms: C_9  and  C_12
REMARK    6  A    between atoms: C_15  and  C_17
REMARK    7  A    between atoms: C_16  and  C_18
REMARK    8  A    between atoms: C_20  and  C_21
REMARK    9  A    between atoms: C_26  and  C_29
REMARK                            x       y       z     vdW  Elec       q    Type
REMARK                         _______ _______ _______ _____ _____    ______ ____
ROOT
ATOM      9  C   UNL     1      20.217   6.280  21.459  0.00  0.00    +0.047 C 
ATOM     10  C   UNL     1      20.304   5.090  20.480  0.00  0.00    +0.039 C 
ATOM     11  C   UNL     1      21.794   4.911  20.169  0.00  0.00    +0.097 C 
ATOM     13  C   UNL     1      21.510   6.999  21.206  0.00  0.00    -0.021 C 
ATOM     14  C   UNL     1      22.367   6.248  20.506  0.00  0.00    -0.009 C 
ENDROOT
BRANCH   9  12
ATOM      7  N   UNL     1      17.040   7.904  20.630  0.00  0.00    -0.236 N 
ATOM      8  N   UNL     1      17.484   8.837  21.489  0.00  0.00    -0.171 NA
ATOM     12  C   UNL     1      18.977   7.123  21.269  0.00  0.00    +0.003 A 
ATOM     15  C   UNL     1      17.897   6.855  20.463  0.00  0.00    +0.046 A 
ATOM     16  C   UNL     1      18.668   8.354  21.876  0.00  0.00    +0.064 A 
ATOM     17  C   UNL     1      17.618   5.714  19.569  0.00  0.00    +0.066 C 
ATOM     18  C   UNL     1      19.479   9.115  22.842  0.00  0.00    +0.068 C 
BRANCH   7  19
ATOM     19  C   UNL     1      15.802   8.068  20.007  0.00  0.00    +0.066 A 
ATOM     22  C   UNL     1      14.862   7.039  20.041  0.00  0.00    +0.028 A 
ATOM     23  C   UNL     1      15.508   9.260  19.346  0.00  0.00    +0.028 A 
ATOM     24  C   UNL     1      13.626   7.202  19.415  0.00  0.00    +0.014 A 
ATOM     25  C   UNL     1      14.272   9.424  18.719  0.00  0.00    +0.014 A 
ATOM     26  C   UNL     1      13.332   8.394  18.753  0.00  0.00    +0.055 A 
BRANCH  26  29
ATOM      1  F   UNL     1      11.653   7.510  17.297  0.00  0.00    -0.166 F 
ATOM      2  F   UNL     1      11.975   9.659  17.266  0.00  0.00    -0.166 F 
ATOM      3  F   UNL     1      10.972   8.730  18.955  0.00  0.00    -0.166 F 
ATOM     29  C   UNL     1      12.011   8.567  18.083  0.00  0.00    +0.417 C 
ENDBRANCH  26  29
ENDBRANCH   7  19
ENDBRANCH   9  12
BRANCH  11   6
ATOM      4  O   UNL     1      24.374   3.715  19.761  0.00  0.00    -0.270 OA
ATOM      6  N   UNL     1      22.417   3.908  20.991  0.00  0.00    -0.305 N 
ATOM     20  C   UNL     1      23.674   3.386  20.715  0.00  0.00    +0.245 C 
ATOM     34  H   UNL     1      21.860   3.515  21.744  0.00  0.00    +0.150 HD
BRANCH  20  21
ATOM     21  C   UNL     1      24.166   2.337  21.646  0.00  0.00    +0.037 A 
ATOM     27  C   UNL     1      23.548   2.159  22.885  0.00  0.00    +0.016 A 
ATOM     28  C   UNL     1      25.245   1.532  21.284  0.00  0.00    +0.016 A 
ATOM     30  C   UNL     1      24.009   1.176  23.760  0.00  0.00    +0.046 A 
ATOM     31  C   UNL     1      25.707   0.549  22.158  0.00  0.00    +0.046 A 
ATOM     32  C   UNL     1      25.090   0.371  23.396  0.00  0.00    +0.120 A 
BRANCH  32   5
ATOM      5  O   UNL     1      25.541  -0.589  24.250  0.00  0.00    -0.495 OA
ATOM     33  C   UNL     1      24.776  -0.817  25.432  0.00  0.00    +0.277 C 
ENDBRANCH  32   5
ENDBRANCH  20  21
ENDBRANCH  11   6
TORSDOF 6
ENDMDL
