MODEL 1
REMARK VINA RESULT:      -6.5      0.000      0.000
REMARK  Name = 11883089
REMARK  9 active torsions:
REMARK  status: ('A' for Active; 'I' for Inactive)
REMARK    1  A    between atoms: O_2  and  C_14
REMARK    2  A    between atoms: O_3  and  C_19
REMARK    3  A    between atoms: N_7  and  C_25
REMARK    4  A    between atoms: C_9  and  C_17
REMARK    5  A    between atoms: C_11  and  C_19
REMARK    6  A    between atoms: C_11  and  C_20
REMARK    7  A    between atoms: C_12  and  C_22
REMARK    8  A    between atoms: C_22  and  C_23
REMARK    9  A    between atoms: C_28  and  C_31
REMARK                            x       y       z     vdW  Elec       q    Type
REMARK                         _______ _______ _______ _____ _____    ______ ____
ROOT
ATOM      1  S   UNL     1      14.131   8.004   6.323  0.00  0.00    -0.057 S 
ATOM      5  O   UNL     1      11.697   5.947   2.941  0.00  0.00    -0.275 OA
ATOM      6  N   UNL     1      14.196   7.212   3.861  0.00  0.00    -0.229 NA
ATOM      8  N   UNL     1      12.148   6.829   5.073  0.00  0.00    -0.264 N 
ATOM      9  C   UNL     1      17.655   8.887   3.549  0.00  0.00    -0.019 C 
ATOM     10  C   UNL     1      18.008   8.624   5.079  0.00  0.00    +0.011 C 
ATOM     11  C   UNL     1      19.359   9.235   5.618  0.00  0.00    +0.021 C 
ATOM     12  C   UNL     1      16.522   7.845   3.118  0.00  0.00    +0.054 C 
ATOM     13  C   UNL     1      18.913   8.628   2.678  0.00  0.00    +0.010 C 
ATOM     14  C   UNL     1      20.499   8.925   4.607  0.00  0.00    +0.123 C 
ATOM     15  C   UNL     1      16.783   8.900   6.000  0.00  0.00    +0.049 C 
ATOM     16  C   UNL     1      20.165   9.335   3.178  0.00  0.00    +0.032 C 
ATOM     17  C   UNL     1      17.156  10.329   3.285  0.00  0.00    +0.012 C 
ATOM     18  C   UNL     1      15.420   7.788   4.145  0.00  0.00    +0.058 A 
ATOM     20  C   UNL     1      19.729   8.542   6.960  0.00  0.00    +0.016 C 
ATOM     21  C   UNL     1      15.565   8.250   5.437  0.00  0.00    +0.015 A 
ATOM     24  C   UNL     1      13.435   7.277   4.932  0.00  0.00    +0.165 A 
ATOM     31  C   UNL     1      11.353   6.200   4.099  0.00  0.00    +0.222 C 
ATOM     38  H   UNL     1      11.740   6.979   5.991  0.00  0.00    +0.157 HD
ENDROOT
BRANCH  31  28
ATOM     28  C   UNL     1       9.943   5.836   4.610  0.00  0.00    +0.075 C 
ATOM     32  C   UNL     1       8.842   6.909   4.477  0.00  0.00    +0.013 C 
ATOM     33  C   UNL     1       9.702   5.887   6.132  0.00  0.00    +0.013 C 
ATOM     34  C   UNL     1       8.277   6.384   5.813  0.00  0.00    +0.001 C 
ENDBRANCH  31  28
BRANCH  14   2
ATOM      2  O   UNL     1      21.709   9.573   5.000  0.00  0.00    -0.391 OA
ATOM     35  H   UNL     1      21.566  10.532   4.929  0.00  0.00    +0.210 HD
ENDBRANCH  14   2
BRANCH  11  19
ATOM     19  C   UNL     1      19.298  10.746   5.933  0.00  0.00    +0.165 C 
BRANCH  19   3
ATOM      3  O   UNL     1      20.136  10.990   7.040  0.00  0.00    -0.394 OA
ATOM     36  H   UNL     1      19.661  11.593   7.636  0.00  0.00    +0.209 HD
ENDBRANCH  19   3
ENDBRANCH  11  19
BRANCH  12  22
ATOM     22  C   UNL     1      15.963   8.059   1.705  0.00  0.00    +0.106 C 
BRANCH  22  23
ATOM      4  O   UNL     1      16.916   6.854  -0.165  0.00  0.00    -0.276 OA
ATOM      7  N   UNL     1      15.450   5.766   1.273  0.00  0.00    -0.312 N 
ATOM     23  C   UNL     1      16.184   6.853   0.821  0.00  0.00    +0.214 C 
ATOM     37  H   UNL     1      14.913   5.861   2.130  0.00  0.00    +0.149 HD
BRANCH   7  25
ATOM     25  C   UNL     1      15.463   4.480   0.621  0.00  0.00    +0.073 C 
ATOM     26  C   UNL     1      15.045   3.359   1.565  0.00  0.00    +0.022 C 
ATOM     27  C   UNL     1      14.418   4.399  -0.484  0.00  0.00    +0.022 C 
ATOM     29  C   UNL     1      13.517   3.371   1.540  0.00  0.00    +0.002 C 
ATOM     30  C   UNL     1      13.115   4.076   0.243  0.00  0.00    +0.002 C 
ENDBRANCH   7  25
ENDBRANCH  22  23
ENDBRANCH  12  22
TORSDOF 7
ENDMDL
MODEL 2
REMARK VINA RESULT:      -6.3     27.140     31.302
REMARK  Name = 11883089
REMARK  9 active torsions:
REMARK  status: ('A' for Active; 'I' for Inactive)
REMARK    1  A    between atoms: O_2  and  C_14
REMARK    2  A    between atoms: O_3  and  C_19
REMARK    3  A    between atoms: N_7  and  C_25
REMARK    4  A    between atoms: C_9  and  C_17
REMARK    5  A    between atoms: C_11  and  C_19
REMARK    6  A    between atoms: C_11  and  C_20
REMARK    7  A    between atoms: C_12  and  C_22
REMARK    8  A    between atoms: C_22  and  C_23
REMARK    9  A    between atoms: C_28  and  C_31
REMARK                            x       y       z     vdW  Elec       q    Type
REMARK                         _______ _______ _______ _____ _____    ______ ____
ROOT
ATOM      1  S   UNL     1      -8.969 -10.234  13.346  0.00  0.00    -0.057 S 
ATOM      5  O   UNL     1      -4.955  -8.907  11.418  0.00  0.00    -0.275 OA
ATOM      6  N   UNL     1      -6.426  -9.972  13.740  0.00  0.00    -0.229 NA
ATOM      8  N   UNL     1      -7.263  -9.327  11.574  0.00  0.00    -0.264 N 
ATOM      9  C   UNL     1      -7.027 -10.956  17.420  0.00  0.00    -0.019 C 
ATOM     10  C   UNL     1      -8.265 -11.887  17.052  0.00  0.00    +0.011 C 
ATOM     11  C   UNL     1      -9.063 -12.527  18.252  0.00  0.00    +0.021 C 
ATOM     12  C   UNL     1      -6.129 -10.788  16.108  0.00  0.00    +0.054 C 
ATOM     13  C   UNL     1      -6.170 -11.646  18.514  0.00  0.00    +0.010 C 
ATOM     14  C   UNL     1      -8.055 -13.129  19.272  0.00  0.00    +0.123 C 
ATOM     15  C   UNL     1      -9.175 -11.224  15.976  0.00  0.00    +0.049 C 
ATOM     16  C   UNL     1      -6.976 -12.143  19.705  0.00  0.00    +0.032 C 
ATOM     17  C   UNL     1      -7.457  -9.560  17.933  0.00  0.00    +0.012 C 
ATOM     18  C   UNL     1      -6.980 -10.467  14.907  0.00  0.00    +0.058 A 
ATOM     20  C   UNL     1      -9.932 -13.699  17.716  0.00  0.00    +0.016 C 
ATOM     21  C   UNL     1      -8.341 -10.688  14.863  0.00  0.00    +0.015 A 
ATOM     24  C   UNL     1      -7.382  -9.804  12.853  0.00  0.00    +0.165 A 
ATOM     31  C   UNL     1      -6.087  -8.909  10.926  0.00  0.00    +0.222 C 
ATOM     38  H   UNL     1      -8.133  -9.276  11.052  0.00  0.00    +0.157 HD
ENDROOT
BRANCH  31  28
ATOM     28  C   UNL     1      -6.330  -8.422   9.483  0.00  0.00    +0.075 C 
ATOM     32  C   UNL     1      -7.791  -8.170   9.055  0.00  0.00    +0.013 C 
ATOM     33  C   UNL     1      -6.263  -9.474   8.356  0.00  0.00    +0.013 C 
ATOM     34  C   UNL     1      -7.391  -8.686   7.658  0.00  0.00    +0.001 C 
ENDBRANCH  31  28
BRANCH  14   2
ATOM      2  O   UNL     1      -8.738 -13.602  20.434  0.00  0.00    -0.391 OA
ATOM     35  H   UNL     1      -8.071 -13.763  21.122  0.00  0.00    +0.210 HD
ENDBRANCH  14   2
BRANCH  11  19
ATOM     19  C   UNL     1     -10.048 -11.565  18.952  0.00  0.00    +0.165 C 
BRANCH  19   3
ATOM      3  O   UNL     1     -11.138 -12.328  19.417  0.00  0.00    -0.394 OA
ATOM     36  H   UNL     1     -11.662 -11.756  20.004  0.00  0.00    +0.209 HD
ENDBRANCH  19   3
ENDBRANCH  11  19
BRANCH  12  22
ATOM     22  C   UNL     1      -4.967  -9.796  16.256  0.00  0.00    +0.106 C 
BRANCH  22  23
ATOM      4  O   UNL     1      -2.966 -11.026  16.841  0.00  0.00    -0.276 OA
ATOM      7  N   UNL     1      -3.265 -10.297  14.655  0.00  0.00    -0.312 N 
ATOM     23  C   UNL     1      -3.630 -10.447  15.985  0.00  0.00    +0.214 C 
ATOM     37  H   UNL     1      -3.914  -9.842  14.019  0.00  0.00    +0.149 HD
BRANCH   7  25
ATOM     25  C   UNL     1      -2.035 -10.815  14.112  0.00  0.00    +0.073 C 
ATOM     26  C   UNL     1      -2.066 -12.334  13.981  0.00  0.00    +0.022 C 
ATOM     27  C   UNL     1      -1.817 -10.358  12.675  0.00  0.00    +0.022 C 
ATOM     29  C   UNL     1      -2.780 -12.602  12.656  0.00  0.00    +0.002 C 
ATOM     30  C   UNL     1      -2.655 -11.318  11.835  0.00  0.00    +0.002 C 
ENDBRANCH   7  25
ENDBRANCH  22  23
ENDBRANCH  12  22
TORSDOF 7
ENDMDL
MODEL 3
REMARK VINA RESULT:      -6.2     27.433     30.555
REMARK  Name = 11883089
REMARK  9 active torsions:
REMARK  status: ('A' for Active; 'I' for Inactive)
REMARK    1  A    between atoms: O_2  and  C_14
REMARK    2  A    between atoms: O_3  and  C_19
REMARK    3  A    between atoms: N_7  and  C_25
REMARK    4  A    between atoms: C_9  and  C_17
REMARK    5  A    between atoms: C_11  and  C_19
REMARK    6  A    between atoms: C_11  and  C_20
REMARK    7  A    between atoms: C_12  and  C_22
REMARK    8  A    between atoms: C_22  and  C_23
REMARK    9  A    between atoms: C_28  and  C_31
REMARK                            x       y       z     vdW  Elec       q    Type
REMARK                         _______ _______ _______ _____ _____    ______ ____
ROOT
ATOM      1  S   UNL     1      -7.341  -9.864  12.797  0.00  0.00    -0.057 S 
ATOM      5  O   UNL     1      -3.464 -10.405  10.294  0.00  0.00    -0.275 OA
ATOM      6  N   UNL     1      -4.860 -10.591  12.883  0.00  0.00    -0.229 NA
ATOM      8  N   UNL     1      -5.706  -9.866  10.746  0.00  0.00    -0.264 N 
ATOM      9  C   UNL     1      -5.226 -10.923  16.708  0.00  0.00    -0.019 C 
ATOM     10  C   UNL     1      -6.764 -11.320  16.606  0.00  0.00    +0.011 C 
ATOM     11  C   UNL     1      -7.554 -11.483  17.961  0.00  0.00    +0.021 C 
ATOM     12  C   UNL     1      -4.539 -11.241  15.299  0.00  0.00    +0.054 C 
ATOM     13  C   UNL     1      -4.539 -11.793  17.793  0.00  0.00    +0.010 C 
ATOM     14  C   UNL     1      -6.707 -12.339  18.946  0.00  0.00    +0.123 C 
ATOM     15  C   UNL     1      -7.506 -10.452  15.548  0.00  0.00    +0.049 C 
ATOM     16  C   UNL     1      -5.283 -11.823  19.121  0.00  0.00    +0.032 C 
ATOM     17  C   UNL     1      -5.012  -9.430  17.060  0.00  0.00    +0.012 C 
ATOM     18  C   UNL     1      -5.377 -10.721  14.159  0.00  0.00    +0.058 A 
ATOM     20  C   UNL     1      -8.872 -12.260  17.690  0.00  0.00    +0.016 C 
ATOM     21  C   UNL     1      -6.710 -10.390  14.289  0.00  0.00    +0.015 A 
ATOM     24  C   UNL     1      -5.803 -10.140  12.085  0.00  0.00    +0.165 A 
ATOM     31  C   UNL     1      -4.573 -10.005   9.927  0.00  0.00    +0.222 C 
ATOM     38  H   UNL     1      -6.561  -9.523  10.316  0.00  0.00    +0.157 HD
ENDROOT
BRANCH  31  28
ATOM     28  C   UNL     1      -4.828  -9.594   8.462  0.00  0.00    +0.075 C 
ATOM     32  C   UNL     1      -6.281  -9.266   8.061  0.00  0.00    +0.013 C 
ATOM     33  C   UNL     1      -4.871 -10.717   7.406  0.00  0.00    +0.013 C 
ATOM     34  C   UNL     1      -5.964  -9.896   6.690  0.00  0.00    +0.001 C 
ENDBRANCH  31  28
BRANCH  14   2
ATOM      2  O   UNL     1      -7.334 -12.398  20.228  0.00  0.00    -0.391 OA
ATOM     35  H   UNL     1      -8.275 -12.598  20.086  0.00  0.00    +0.210 HD
ENDBRANCH  14   2
BRANCH  11  19
ATOM     19  C   UNL     1      -7.983 -10.151  18.617  0.00  0.00    +0.165 C 
BRANCH  19   3
ATOM      3  O   UNL     1      -9.054 -10.427  19.490  0.00  0.00    -0.394 OA
ATOM     36  H   UNL     1      -9.259 -11.374  19.408  0.00  0.00    +0.209 HD
ENDBRANCH  19   3
ENDBRANCH  11  19
BRANCH  12  22
ATOM     22  C   UNL     1      -3.081 -10.779  15.183  0.00  0.00    +0.106 C 
BRANCH  22  23
ATOM      4  O   UNL     1      -0.926 -11.835  14.868  0.00  0.00    -0.276 OA
ATOM      7  N   UNL     1      -2.868 -13.061  14.507  0.00  0.00    -0.312 N 
ATOM     23  C   UNL     1      -2.151 -11.921  14.845  0.00  0.00    +0.214 C 
ATOM     37  H   UNL     1      -3.882 -13.036  14.568  0.00  0.00    +0.149 HD
BRANCH   7  25
ATOM     25  C   UNL     1      -2.241 -14.304  14.135  0.00  0.00    +0.073 C 
ATOM     26  C   UNL     1      -2.997 -15.509  14.685  0.00  0.00    +0.022 C 
ATOM     27  C   UNL     1      -2.293 -14.532  12.630  0.00  0.00    +0.022 C 
ATOM     29  C   UNL     1      -4.122 -15.761  13.682  0.00  0.00    +0.002 C 
ATOM     30  C   UNL     1      -3.688 -15.097  12.375  0.00  0.00    +0.002 C 
ENDBRANCH   7  25
ENDBRANCH  22  23
ENDBRANCH  12  22
TORSDOF 7
ENDMDL
MODEL 4
REMARK VINA RESULT:      -6.2     26.911     29.670
REMARK  Name = 11883089
REMARK  9 active torsions:
REMARK  status: ('A' for Active; 'I' for Inactive)
REMARK    1  A    between atoms: O_2  and  C_14
REMARK    2  A    between atoms: O_3  and  C_19
REMARK    3  A    between atoms: N_7  and  C_25
REMARK    4  A    between atoms: C_9  and  C_17
REMARK    5  A    between atoms: C_11  and  C_19
REMARK    6  A    between atoms: C_11  and  C_20
REMARK    7  A    between atoms: C_12  and  C_22
REMARK    8  A    between atoms: C_22  and  C_23
REMARK    9  A    between atoms: C_28  and  C_31
REMARK                            x       y       z     vdW  Elec       q    Type
REMARK                         _______ _______ _______ _____ _____    ______ ____
ROOT
ATOM      1  S   UNL     1      -4.207  -9.087   9.709  0.00  0.00    -0.057 S 
ATOM      5  O   UNL     1      -8.698  -8.035   9.149  0.00  0.00    -0.275 OA
ATOM      6  N   UNL     1      -6.530  -9.082  10.849  0.00  0.00    -0.229 NA
ATOM      8  N   UNL     1      -6.426  -8.251   8.588  0.00  0.00    -0.264 N 
ATOM      9  C   UNL     1      -4.928 -10.939  13.825  0.00  0.00    -0.019 C 
ATOM     10  C   UNL     1      -3.514 -10.244  13.600  0.00  0.00    +0.011 C 
ATOM     11  C   UNL     1      -2.324 -10.727  14.515  0.00  0.00    +0.021 C 
ATOM     12  C   UNL     1      -6.044 -10.022  13.138  0.00  0.00    +0.054 C 
ATOM     13  C   UNL     1      -5.229 -11.018  15.345  0.00  0.00    +0.010 C 
ATOM     14  C   UNL     1      -2.809 -10.793  15.992  0.00  0.00    +0.123 C 
ATOM     15  C   UNL     1      -3.152 -10.167  12.088  0.00  0.00    +0.049 C 
ATOM     16  C   UNL     1      -4.089 -11.600  16.169  0.00  0.00    +0.032 C 
ATOM     17  C   UNL     1      -4.997 -12.367  13.230  0.00  0.00    +0.012 C 
ATOM     18  C   UNL     1      -5.623  -9.604  11.753  0.00  0.00    +0.058 A 
ATOM     20  C   UNL     1      -1.177  -9.680  14.451  0.00  0.00    +0.016 C 
ATOM     21  C   UNL     1      -4.318  -9.660  11.309  0.00  0.00    +0.015 A 
ATOM     24  C   UNL     1      -5.897  -8.782   9.735  0.00  0.00    +0.165 A 
ATOM     31  C   UNL     1      -7.767  -7.908   8.348  0.00  0.00    +0.222 C 
ATOM     38  H   UNL     1      -5.757  -8.096   7.840  0.00  0.00    +0.157 HD
ENDROOT
BRANCH  31  28
ATOM     28  C   UNL     1      -8.004  -7.339   6.934  0.00  0.00    +0.075 C 
ATOM     32  C   UNL     1      -9.457  -7.312   6.414  0.00  0.00    +0.013 C 
ATOM     33  C   UNL     1      -7.673  -8.251   5.735  0.00  0.00    +0.013 C 
ATOM     34  C   UNL     1      -8.881  -7.614   5.016  0.00  0.00    +0.001 C 
ENDBRANCH  31  28
BRANCH  14   2
ATOM      2  O   UNL     1      -1.795 -11.351  16.829  0.00  0.00    -0.391 OA
ATOM     35  H   UNL     1      -1.213 -11.890  16.267  0.00  0.00    +0.210 HD
ENDBRANCH  14   2
BRANCH  11  19
ATOM     19  C   UNL     1      -1.688 -12.067  14.084  0.00  0.00    +0.165 C 
BRANCH  19   3
ATOM      3  O   UNL     1      -2.297 -13.095  14.832  0.00  0.00    -0.394 OA
ATOM     36  H   UNL     1      -2.602 -13.770  14.203  0.00  0.00    +0.209 HD
ENDBRANCH  19   3
ENDBRANCH  11  19
BRANCH  12  22
ATOM     22  C   UNL     1      -7.454 -10.627  13.139  0.00  0.00    +0.106 C 
BRANCH  22  23
ATOM      4  O   UNL     1      -9.040  -8.983  13.938  0.00  0.00    -0.276 OA
ATOM      7  N   UNL     1      -8.278 -10.636  15.382  0.00  0.00    -0.312 N 
ATOM     23  C   UNL     1      -8.350  -9.972  14.166  0.00  0.00    +0.214 C 
ATOM     37  H   UNL     1      -7.711 -11.477  15.447  0.00  0.00    +0.149 HD
BRANCH   7  25
ATOM     25  C   UNL     1      -9.024 -10.230  16.547  0.00  0.00    +0.073 C 
ATOM     26  C   UNL     1      -9.208 -11.378  17.533  0.00  0.00    +0.022 C 
ATOM     27  C   UNL     1      -8.265  -9.197  17.369  0.00  0.00    +0.022 C 
ATOM     29  C   UNL     1      -7.918 -11.405  18.353  0.00  0.00    +0.002 C 
ATOM     30  C   UNL     1      -7.292 -10.016  18.212  0.00  0.00    +0.002 C 
ENDBRANCH   7  25
ENDBRANCH  22  23
ENDBRANCH  12  22
TORSDOF 7
ENDMDL
MODEL 5
REMARK VINA RESULT:      -6.1     24.457     27.116
REMARK  Name = 11883089
REMARK  9 active torsions:
REMARK  status: ('A' for Active; 'I' for Inactive)
REMARK    1  A    between atoms: O_2  and  C_14
REMARK    2  A    between atoms: O_3  and  C_19
REMARK    3  A    between atoms: N_7  and  C_25
REMARK    4  A    between atoms: C_9  and  C_17
REMARK    5  A    between atoms: C_11  and  C_19
REMARK    6  A    between atoms: C_11  and  C_20
REMARK    7  A    between atoms: C_12  and  C_22
REMARK    8  A    between atoms: C_22  and  C_23
REMARK    9  A    between atoms: C_28  and  C_31
REMARK                            x       y       z     vdW  Elec       q    Type
REMARK                         _______ _______ _______ _____ _____    ______ ____
ROOT
ATOM      1  S   UNL     1      19.608  -1.830  29.484  0.00  0.00    -0.057 S 
ATOM      5  O   UNL     1      21.093  -1.660  25.084  0.00  0.00    -0.275 OA
ATOM      6  N   UNL     1      19.361  -2.881  27.133  0.00  0.00    -0.229 NA
ATOM      8  N   UNL     1      20.942  -1.075  27.356  0.00  0.00    -0.264 N 
ATOM      9  C   UNL     1      17.034  -5.526  28.703  0.00  0.00    -0.019 C 
ATOM     10  C   UNL     1      16.501  -4.514  29.811  0.00  0.00    +0.011 C 
ATOM     11  C   UNL     1      15.530  -5.098  30.907  0.00  0.00    +0.021 C 
ATOM     12  C   UNL     1      17.612  -4.664  27.486  0.00  0.00    +0.054 C 
ATOM     13  C   UNL     1      15.852  -6.382  28.176  0.00  0.00    +0.010 C 
ATOM     14  C   UNL     1      14.440  -5.964  30.215  0.00  0.00    +0.123 C 
ATOM     15  C   UNL     1      17.658  -3.649  30.394  0.00  0.00    +0.049 C 
ATOM     16  C   UNL     1      15.015  -7.019  29.276  0.00  0.00    +0.032 C 
ATOM     17  C   UNL     1      18.137  -6.473  29.234  0.00  0.00    +0.012 C 
ATOM     18  C   UNL     1      18.504  -3.556  27.983  0.00  0.00    +0.058 A 
ATOM     20  C   UNL     1      14.804  -3.923  31.620  0.00  0.00    +0.016 C 
ATOM     21  C   UNL     1      18.495  -3.104  29.287  0.00  0.00    +0.015 A 
ATOM     24  C   UNL     1      19.999  -1.957  27.817  0.00  0.00    +0.165 A 
ATOM     31  C   UNL     1      21.437  -0.965  26.045  0.00  0.00    +0.222 C 
ATOM     38  H   UNL     1      21.312  -0.439  28.056  0.00  0.00    +0.157 HD
ENDROOT
BRANCH  31  28
ATOM     28  C   UNL     1      22.501   0.140  25.889  0.00  0.00    +0.075 C 
ATOM     32  C   UNL     1      22.168   1.319  24.950  0.00  0.00    +0.013 C 
ATOM     33  C   UNL     1      23.703  -0.154  24.968  0.00  0.00    +0.013 C 
ATOM     34  C   UNL     1      23.662   1.336  24.567  0.00  0.00    +0.001 C 
ENDBRANCH  31  28
BRANCH  14   2
ATOM      2  O   UNL     1      13.620  -6.613  31.188  0.00  0.00    -0.391 OA
ATOM     35  H   UNL     1      14.065  -7.439  31.444  0.00  0.00    +0.210 HD
ENDBRANCH  14   2
BRANCH  11  19
ATOM     19  C   UNL     1      16.235  -5.893  32.030  0.00  0.00    +0.165 C 
BRANCH  19   3
ATOM      3  O   UNL     1      15.529  -5.664  33.228  0.00  0.00    -0.394 OA
ATOM     36  H   UNL     1      16.127  -5.191  33.831  0.00  0.00    +0.209 HD
ENDBRANCH  19   3
ENDBRANCH  11  19
BRANCH  12  22
ATOM     22  C   UNL     1      18.300  -5.492  26.391  0.00  0.00    +0.106 C 
BRANCH  22  23
ATOM      4  O   UNL     1      16.974  -6.401  24.582  0.00  0.00    -0.276 OA
ATOM      7  N   UNL     1      17.591  -4.161  24.537  0.00  0.00    -0.312 N 
ATOM     23  C   UNL     1      17.545  -5.436  25.083  0.00  0.00    +0.214 C 
ATOM     37  H   UNL     1      18.051  -3.422  25.061  0.00  0.00    +0.149 HD
BRANCH   7  25
ATOM     25  C   UNL     1      16.960  -3.815  23.288  0.00  0.00    +0.073 C 
ATOM     26  C   UNL     1      15.841  -2.797  23.480  0.00  0.00    +0.022 C 
ATOM     27  C   UNL     1      17.920  -3.089  22.355  0.00  0.00    +0.022 C 
ATOM     29  C   UNL     1      16.543  -1.440  23.516  0.00  0.00    +0.002 C 
ATOM     30  C   UNL     1      17.895  -1.639  22.830  0.00  0.00    +0.002 C 
ENDBRANCH   7  25
ENDBRANCH  22  23
ENDBRANCH  12  22
TORSDOF 7
ENDMDL
MODEL 6
REMARK VINA RESULT:      -6.0     27.535     30.761
REMARK  Name = 11883089
REMARK  9 active torsions:
REMARK  status: ('A' for Active; 'I' for Inactive)
REMARK    1  A    between atoms: O_2  and  C_14
REMARK    2  A    between atoms: O_3  and  C_19
REMARK    3  A    between atoms: N_7  and  C_25
REMARK    4  A    between atoms: C_9  and  C_17
REMARK    5  A    between atoms: C_11  and  C_19
REMARK    6  A    between atoms: C_11  and  C_20
REMARK    7  A    between atoms: C_12  and  C_22
REMARK    8  A    between atoms: C_22  and  C_23
REMARK    9  A    between atoms: C_28  and  C_31
REMARK                            x       y       z     vdW  Elec       q    Type
REMARK                         _______ _______ _______ _____ _____    ______ ____
ROOT
ATOM      1  S   UNL     1      -6.628 -10.456  10.787  0.00  0.00    -0.057 S 
ATOM      5  O   UNL     1     -10.855  -8.877  11.895  0.00  0.00    -0.275 OA
ATOM      6  N   UNL     1      -8.176  -9.766  12.742  0.00  0.00    -0.229 NA
ATOM      8  N   UNL     1      -9.093  -9.603  10.519  0.00  0.00    -0.264 N 
ATOM      9  C   UNL     1      -5.439 -10.990  15.169  0.00  0.00    -0.019 C 
ATOM     10  C   UNL     1      -4.267 -10.619  14.158  0.00  0.00    +0.011 C 
ATOM     11  C   UNL     1      -2.802 -11.026  14.579  0.00  0.00    +0.021 C 
ATOM     12  C   UNL     1      -6.723 -10.123  14.773  0.00  0.00    +0.054 C 
ATOM     13  C   UNL     1      -5.017 -10.606  16.611  0.00  0.00    +0.010 C 
ATOM     14  C   UNL     1      -2.563 -10.613  16.059  0.00  0.00    +0.123 C 
ATOM     15  C   UNL     1      -4.631 -11.013  12.696  0.00  0.00    +0.049 C 
ATOM     16  C   UNL     1      -3.641 -11.123  17.008  0.00  0.00    +0.032 C 
ATOM     17  C   UNL     1      -5.805 -12.494  15.141  0.00  0.00    +0.012 C 
ATOM     18  C   UNL     1      -6.969 -10.166  13.287  0.00  0.00    +0.058 A 
ATOM     20  C   UNL     1      -1.786 -10.235  13.708  0.00  0.00    +0.016 C 
ATOM     21  C   UNL     1      -6.011 -10.551  12.372  0.00  0.00    +0.015 A 
ATOM     24  C   UNL     1      -8.112  -9.884  11.434  0.00  0.00    +0.165 A 
ATOM     31  C   UNL     1     -10.388  -9.123  10.779  0.00  0.00    +0.222 C 
ATOM     38  H   UNL     1      -8.834  -9.765   9.550  0.00  0.00    +0.157 HD
ENDROOT
BRANCH  31  28
ATOM     28  C   UNL     1     -11.229  -8.924   9.501  0.00  0.00    +0.075 C 
ATOM     32  C   UNL     1     -10.781  -9.680   8.232  0.00  0.00    +0.013 C 
ATOM     33  C   UNL     1     -11.018  -7.620   8.706  0.00  0.00    +0.013 C 
ATOM     34  C   UNL     1     -11.252  -8.451   7.428  0.00  0.00    +0.001 C 
ENDBRANCH  31  28
BRANCH  14   2
ATOM      2  O   UNL     1      -1.293 -11.082  16.513  0.00  0.00    -0.391 OA
ATOM     35  H   UNL     1      -1.104 -10.647  17.362  0.00  0.00    +0.210 HD
ENDBRANCH  14   2
BRANCH  11  19
ATOM     19  C   UNL     1      -2.464 -12.518  14.362  0.00  0.00    +0.165 C 
BRANCH  19   3
ATOM      3  O   UNL     1      -1.129 -12.596  13.915  0.00  0.00    -0.394 OA
ATOM     36  H   UNL     1      -0.705 -11.746  14.120  0.00  0.00    +0.209 HD
ENDBRANCH  19   3
ENDBRANCH  11  19
BRANCH  12  22
ATOM     22  C   UNL     1      -7.993 -10.467  15.564  0.00  0.00    +0.106 C 
BRANCH  22  23
ATOM      4  O   UNL     1      -8.132  -9.098  17.555  0.00  0.00    -0.276 OA
ATOM      7  N   UNL     1      -9.353  -8.506  15.668  0.00  0.00    -0.312 N 
ATOM     23  C   UNL     1      -8.476  -9.300  16.394  0.00  0.00    +0.214 C 
ATOM     37  H   UNL     1      -9.531  -8.738  14.695  0.00  0.00    +0.149 HD
BRANCH   7  25
ATOM     25  C   UNL     1      -9.975  -7.323  16.208  0.00  0.00    +0.073 C 
ATOM     26  C   UNL     1     -10.649  -6.489  15.123  0.00  0.00    +0.022 C 
ATOM     27  C   UNL     1     -11.134  -7.670  17.134  0.00  0.00    +0.022 C 
ATOM     29  C   UNL     1     -12.019  -7.135  14.922  0.00  0.00    +0.002 C 
ATOM     30  C   UNL     1     -12.311  -7.926  16.197  0.00  0.00    +0.002 C 
ENDBRANCH   7  25
ENDBRANCH  22  23
ENDBRANCH  12  22
TORSDOF 7
ENDMDL
MODEL 7
REMARK VINA RESULT:      -5.9     27.169     32.968
REMARK  Name = 11883089
REMARK  9 active torsions:
REMARK  status: ('A' for Active; 'I' for Inactive)
REMARK    1  A    between atoms: O_2  and  C_14
REMARK    2  A    between atoms: O_3  and  C_19
REMARK    3  A    between atoms: N_7  and  C_25
REMARK    4  A    between atoms: C_9  and  C_17
REMARK    5  A    between atoms: C_11  and  C_19
REMARK    6  A    between atoms: C_11  and  C_20
REMARK    7  A    between atoms: C_12  and  C_22
REMARK    8  A    between atoms: C_22  and  C_23
REMARK    9  A    between atoms: C_28  and  C_31
REMARK                            x       y       z     vdW  Elec       q    Type
REMARK                         _______ _______ _______ _____ _____    ______ ____
ROOT
ATOM      1  S   UNL     1      -9.802  -9.705  12.927  0.00  0.00    -0.057 S 
ATOM      5  O   UNL     1      -5.187  -9.993  13.388  0.00  0.00    -0.275 OA
ATOM      6  N   UNL     1      -7.860  -9.892  14.627  0.00  0.00    -0.229 NA
ATOM      8  N   UNL     1      -7.260  -9.822  12.293  0.00  0.00    -0.264 N 
ATOM      9  C   UNL     1     -10.458  -9.464  17.445  0.00  0.00    -0.019 C 
ATOM     10  C   UNL     1     -11.607 -10.169  16.600  0.00  0.00    +0.011 C 
ATOM     11  C   UNL     1     -13.052 -10.191  17.233  0.00  0.00    +0.021 C 
ATOM     12  C   UNL     1      -9.050  -9.934  16.851  0.00  0.00    +0.054 C 
ATOM     13  C   UNL     1     -10.544  -9.929  18.922  0.00  0.00    +0.010 C 
ATOM     14  C   UNL     1     -12.950 -10.632  18.721  0.00  0.00    +0.123 C 
ATOM     15  C   UNL     1     -11.582  -9.711  15.112  0.00  0.00    +0.049 C 
ATOM     16  C   UNL     1     -11.939  -9.821  19.522  0.00  0.00    +0.032 C 
ATOM     17  C   UNL     1     -10.543  -7.918  17.404  0.00  0.00    +0.012 C 
ATOM     18  C   UNL     1      -9.040  -9.845  15.346  0.00  0.00    +0.058 A 
ATOM     20  C   UNL     1     -13.914 -11.253  16.494  0.00  0.00    +0.016 C 
ATOM     21  C   UNL     1     -10.188  -9.765  14.586  0.00  0.00    +0.015 A 
ATOM     24  C   UNL     1      -8.140  -9.818  13.344  0.00  0.00    +0.165 A 
ATOM     31  C   UNL     1      -5.858  -9.908  12.356  0.00  0.00    +0.222 C 
ATOM     38  H   UNL     1      -7.689  -9.755  11.375  0.00  0.00    +0.157 HD
ENDROOT
BRANCH  31  28
ATOM     28  C   UNL     1      -5.186  -9.878  10.968  0.00  0.00    +0.075 C 
ATOM     32  C   UNL     1      -3.644  -9.938  10.925  0.00  0.00    +0.013 C 
ATOM     33  C   UNL     1      -5.076  -8.512  10.260  0.00  0.00    +0.013 C 
ATOM     34  C   UNL     1      -3.719  -8.994   9.707  0.00  0.00    +0.001 C 
ENDBRANCH  31  28
BRANCH  14   2
ATOM      2  O   UNL     1     -14.224 -10.539  19.361  0.00  0.00    -0.391 OA
ATOM     35  H   UNL     1     -14.865 -10.233  18.697  0.00  0.00    +0.210 HD
ENDBRANCH  14   2
BRANCH  11  19
ATOM     19  C   UNL     1     -13.828  -8.862  17.104  0.00  0.00    +0.165 C 
BRANCH  19   3
ATOM      3  O   UNL     1     -14.972  -9.105  16.318  0.00  0.00    -0.394 OA
ATOM     36  H   UNL     1     -15.731  -8.708  16.779  0.00  0.00    +0.209 HD
ENDBRANCH  19   3
ENDBRANCH  11  19
BRANCH  12  22
ATOM     22  C   UNL     1      -7.832  -9.229  17.464  0.00  0.00    +0.106 C 
BRANCH  22  23
ATOM      4  O   UNL     1      -6.802 -10.319  19.363  0.00  0.00    -0.276 OA
ATOM      7  N   UNL     1      -6.175 -10.932  17.210  0.00  0.00    -0.312 N 
ATOM     23  C   UNL     1      -6.898 -10.203  18.144  0.00  0.00    +0.214 C 
ATOM     37  H   UNL     1      -6.370 -10.790  16.223  0.00  0.00    +0.149 HD
BRANCH   7  25
ATOM     25  C   UNL     1      -5.204 -11.934  17.573  0.00  0.00    +0.073 C 
ATOM     26  C   UNL     1      -4.834 -12.822  16.390  0.00  0.00    +0.022 C 
ATOM     27  C   UNL     1      -3.869 -11.309  17.957  0.00  0.00    +0.022 C 
ATOM     29  C   UNL     1      -3.763 -12.040  15.629  0.00  0.00    +0.002 C 
ATOM     30  C   UNL     1      -3.173 -11.041  16.625  0.00  0.00    +0.002 C 
ENDBRANCH   7  25
ENDBRANCH  22  23
ENDBRANCH  12  22
TORSDOF 7
ENDMDL
MODEL 8
REMARK VINA RESULT:      -5.8     17.837     20.621
REMARK  Name = 11883089
REMARK  9 active torsions:
REMARK  status: ('A' for Active; 'I' for Inactive)
REMARK    1  A    between atoms: O_2  and  C_14
REMARK    2  A    between atoms: O_3  and  C_19
REMARK    3  A    between atoms: N_7  and  C_25
REMARK    4  A    between atoms: C_9  and  C_17
REMARK    5  A    between atoms: C_11  and  C_19
REMARK    6  A    between atoms: C_11  and  C_20
REMARK    7  A    between atoms: C_12  and  C_22
REMARK    8  A    between atoms: C_22  and  C_23
REMARK    9  A    between atoms: C_28  and  C_31
REMARK                            x       y       z     vdW  Elec       q    Type
REMARK                         _______ _______ _______ _____ _____    ______ ____
ROOT
ATOM      1  S   UNL     1      -1.358  11.516   1.633  0.00  0.00    -0.057 S 
ATOM      5  O   UNL     1      -4.586   9.555  -1.073  0.00  0.00    -0.275 OA
ATOM      6  N   UNL     1      -3.604  10.233   1.622  0.00  0.00    -0.229 NA
ATOM      8  N   UNL     1      -2.611  10.705  -0.523  0.00  0.00    -0.264 N 
ATOM      9  C   UNL     1      -3.378  10.066   5.468  0.00  0.00    -0.019 C 
ATOM     10  C   UNL     1      -2.594  11.449   5.561  0.00  0.00    +0.011 C 
ATOM     11  C   UNL     1      -2.086  11.890   6.987  0.00  0.00    +0.021 C 
ATOM     12  C   UNL     1      -4.161  10.036   4.074  0.00  0.00    +0.054 C 
ATOM     13  C   UNL     1      -4.420   9.987   6.615  0.00  0.00    +0.010 C 
ATOM     14  C   UNL     1      -3.234  11.704   8.019  0.00  0.00    +0.123 C 
ATOM     15  C   UNL     1      -1.513  11.565   4.446  0.00  0.00    +0.049 C 
ATOM     16  C   UNL     1      -3.850  10.310   7.989  0.00  0.00    +0.032 C 
ATOM     17  C   UNL     1      -2.442   8.836   5.561  0.00  0.00    +0.012 C 
ATOM     18  C   UNL     1      -3.267  10.471   2.942  0.00  0.00    +0.058 A 
ATOM     20  C   UNL     1      -1.735  13.404   6.954  0.00  0.00    +0.016 C 
ATOM     21  C   UNL     1      -2.094  11.172   3.130  0.00  0.00    +0.015 A 
ATOM     24  C   UNL     1      -2.668  10.732   0.846  0.00  0.00    +0.165 A 
ATOM     31  C   UNL     1      -3.547  10.133  -1.403  0.00  0.00    +0.222 C 
ATOM     38  H   UNL     1      -1.794  11.152  -0.928  0.00  0.00    +0.157 HD
ENDROOT
BRANCH  31  28
ATOM     28  C   UNL     1      -3.155  10.285  -2.887  0.00  0.00    +0.075 C 
ATOM     32  C   UNL     1      -2.120  11.373  -3.240  0.00  0.00    +0.013 C 
ATOM     33  C   UNL     1      -4.140  11.030  -3.811  0.00  0.00    +0.013 C 
ATOM     34  C   UNL     1      -2.905  11.587  -4.550  0.00  0.00    +0.001 C 
ENDBRANCH  31  28
BRANCH  14   2
ATOM      2  O   UNL     1      -2.769  11.972   9.342  0.00  0.00    -0.391 OA
ATOM     35  H   UNL     1      -1.807  12.101   9.296  0.00  0.00    +0.210 HD
ENDBRANCH  14   2
BRANCH  11  19
ATOM     19  C   UNL     1      -0.800  11.176   7.459  0.00  0.00    +0.165 C 
BRANCH  19   3
ATOM      3  O   UNL     1      -0.213  11.966   8.467  0.00  0.00    -0.394 OA
ATOM     36  H   UNL     1       0.649  12.269   8.132  0.00  0.00    +0.209 HD
ENDBRANCH  19   3
ENDBRANCH  11  19
BRANCH  12  22
ATOM     22  C   UNL     1      -4.855   8.703   3.763  0.00  0.00    +0.106 C 
BRANCH  22  23
ATOM      4  O   UNL     1      -6.968   9.881   3.697  0.00  0.00    -0.276 OA
ATOM      7  N   UNL     1      -6.947   7.583   4.049  0.00  0.00    -0.312 N 
ATOM     23  C   UNL     1      -6.361   8.821   3.825  0.00  0.00    +0.214 C 
ATOM     37  H   UNL     1      -6.351   6.761   4.090  0.00  0.00    +0.149 HD
BRANCH   7  25
ATOM     25  C   UNL     1      -8.372   7.394   4.158  0.00  0.00    +0.073 C 
ATOM     26  C   UNL     1      -8.787   5.974   3.792  0.00  0.00    +0.022 C 
ATOM     27  C   UNL     1      -8.847   7.524   5.599  0.00  0.00    +0.022 C 
ATOM     29  C   UNL     1      -8.568   5.157   5.065  0.00  0.00    +0.002 C 
ATOM     30  C   UNL     1      -8.565   6.159   6.221  0.00  0.00    +0.002 C 
ENDBRANCH   7  25
ENDBRANCH  22  23
ENDBRANCH  12  22
TORSDOF 7
ENDMDL
MODEL 9
REMARK VINA RESULT:      -5.8      2.876      7.651
REMARK  Name = 11883089
REMARK  9 active torsions:
REMARK  status: ('A' for Active; 'I' for Inactive)
REMARK    1  A    between atoms: O_2  and  C_14
REMARK    2  A    between atoms: O_3  and  C_19
REMARK    3  A    between atoms: N_7  and  C_25
REMARK    4  A    between atoms: C_9  and  C_17
REMARK    5  A    between atoms: C_11  and  C_19
REMARK    6  A    between atoms: C_11  and  C_20
REMARK    7  A    between atoms: C_12  and  C_22
REMARK    8  A    between atoms: C_22  and  C_23
REMARK    9  A    between atoms: C_28  and  C_31
REMARK                            x       y       z     vdW  Elec       q    Type
REMARK                         _______ _______ _______ _____ _____    ______ ____
ROOT
ATOM      1  S   UNL     1      10.115   4.761   3.096  0.00  0.00    -0.057 S 
ATOM      5  O   UNL     1      12.575   7.240   6.160  0.00  0.00    -0.275 OA
ATOM      6  N   UNL     1      12.312   6.075   3.465  0.00  0.00    -0.229 NA
ATOM      8  N   UNL     1      10.785   5.965   5.327  0.00  0.00    -0.264 N 
ATOM      9  C   UNL     1      13.458   4.884  -0.019  0.00  0.00    -0.019 C 
ATOM     10  C   UNL     1      11.970   4.840  -0.580  0.00  0.00    +0.011 C 
ATOM     11  C   UNL     1      11.770   4.272  -2.038  0.00  0.00    +0.021 C 
ATOM     12  C   UNL     1      13.482   5.870   1.240  0.00  0.00    +0.054 C 
ATOM     13  C   UNL     1      14.403   5.459  -1.106  0.00  0.00    +0.010 C 
ATOM     14  C   UNL     1      12.823   4.915  -2.986  0.00  0.00    +0.123 C 
ATOM     15  C   UNL     1      10.984   4.242   0.466  0.00  0.00    +0.049 C 
ATOM     16  C   UNL     1      14.251   4.795  -2.468  0.00  0.00    +0.032 C 
ATOM     17  C   UNL     1      13.981   3.490   0.408  0.00  0.00    +0.012 C 
ATOM     18  C   UNL     1      12.333   5.583   2.173  0.00  0.00    +0.058 A 
ATOM     20  C   UNL     1      10.365   4.689  -2.557  0.00  0.00    +0.016 C 
ATOM     21  C   UNL     1      11.215   4.867   1.800  0.00  0.00    +0.015 A 
ATOM     24  C   UNL     1      11.195   5.698   4.047  0.00  0.00    +0.165 A 
ATOM     31  C   UNL     1      11.472   6.705   6.305  0.00  0.00    +0.222 C 
ATOM     38  H   UNL     1       9.881   5.575   5.578  0.00  0.00    +0.157 HD
ENDROOT
BRANCH  31  28
ATOM     28  C   UNL     1      10.710   6.797   7.643  0.00  0.00    +0.075 C 
ATOM     32  C   UNL     1      10.332   5.472   8.337  0.00  0.00    +0.013 C 
ATOM     33  C   UNL     1       9.200   7.107   7.581  0.00  0.00    +0.013 C 
ATOM     34  C   UNL     1       9.037   6.172   8.798  0.00  0.00    +0.001 C 
ENDBRANCH  31  28
BRANCH  14   2
ATOM      2  O   UNL     1      12.754   4.328  -4.285  0.00  0.00    -0.391 OA
ATOM     35  H   UNL     1      13.032   5.002  -4.928  0.00  0.00    +0.210 HD
ENDBRANCH  14   2
BRANCH  11  19
ATOM     19  C   UNL     1      11.809   2.731  -2.136  0.00  0.00    +0.165 C 
BRANCH  19   3
ATOM      3  O   UNL     1      10.518   2.289  -2.490  0.00  0.00    -0.394 OA
ATOM     36  H   UNL     1      10.578   1.335  -2.671  0.00  0.00    +0.209 HD
ENDBRANCH  19   3
ENDBRANCH  11  19
BRANCH  12  22
ATOM     22  C   UNL     1      14.820   5.912   1.991  0.00  0.00    +0.106 C 
BRANCH  22  23
ATOM      4  O   UNL     1      15.909   7.908   1.161  0.00  0.00    -0.276 OA
ATOM      7  N   UNL     1      15.176   7.834   3.365  0.00  0.00    -0.312 N 
ATOM     23  C   UNL     1      15.367   7.317   2.091  0.00  0.00    +0.214 C 
ATOM     37  H   UNL     1      14.670   7.276   4.048  0.00  0.00    +0.149 HD
BRANCH   7  25
ATOM     25  C   UNL     1      15.602   9.156   3.751  0.00  0.00    +0.073 C 
ATOM     26  C   UNL     1      14.842   9.665   4.971  0.00  0.00    +0.022 C 
ATOM     27  C   UNL     1      17.049   9.163   4.229  0.00  0.00    +0.022 C 
ATOM     29  C   UNL     1      15.572   9.064   6.171  0.00  0.00    +0.002 C 
ATOM     30  C   UNL     1      16.975   8.704   5.683  0.00  0.00    +0.002 C 
ENDBRANCH   7  25
ENDBRANCH  22  23
ENDBRANCH  12  22
TORSDOF 7
ENDMDL
MODEL 10
REMARK VINA RESULT:      -5.8      4.238      7.307
REMARK  Name = 11883089
REMARK  9 active torsions:
REMARK  status: ('A' for Active; 'I' for Inactive)
REMARK    1  A    between atoms: O_2  and  C_14
REMARK    2  A    between atoms: O_3  and  C_19
REMARK    3  A    between atoms: N_7  and  C_25
REMARK    4  A    between atoms: C_9  and  C_17
REMARK    5  A    between atoms: C_11  and  C_19
REMARK    6  A    between atoms: C_11  and  C_20
REMARK    7  A    between atoms: C_12  and  C_22
REMARK    8  A    between atoms: C_22  and  C_23
REMARK    9  A    between atoms: C_28  and  C_31
REMARK                            x       y       z     vdW  Elec       q    Type
REMARK                         _______ _______ _______ _____ _____    ______ ____
ROOT
ATOM      1  S   UNL     1      10.149   8.254  -0.306  0.00  0.00    -0.057 S 
ATOM      5  O   UNL     1       7.854   8.650   3.715  0.00  0.00    -0.275 OA
ATOM      6  N   UNL     1      10.038   7.441   2.148  0.00  0.00    -0.229 NA
ATOM      8  N   UNL     1       8.379   9.048   1.459  0.00  0.00    -0.264 N 
ATOM      9  C   UNL     1      12.837   4.926   1.303  0.00  0.00    -0.019 C 
ATOM     10  C   UNL     1      13.480   5.888   0.210  0.00  0.00    +0.011 C 
ATOM     11  C   UNL     1      14.687   5.314  -0.629  0.00  0.00    +0.021 C 
ATOM     12  C   UNL     1      11.968   5.825   2.301  0.00  0.00    +0.054 C 
ATOM     13  C   UNL     1      13.968   4.245   2.119  0.00  0.00    +0.010 C 
ATOM     14  C   UNL     1      15.697   4.629   0.334  0.00  0.00    +0.123 C 
ATOM     15  C   UNL     1      12.384   6.575  -0.658  0.00  0.00    +0.049 C 
ATOM     16  C   UNL     1      15.048   3.606   1.259  0.00  0.00    +0.032 C 
ATOM     17  C   UNL     1      11.939   3.827   0.685  0.00  0.00    +0.012 C 
ATOM     18  C   UNL     1      11.095   6.788   1.540  0.00  0.00    +0.058 A 
ATOM     20  C   UNL     1      15.431   6.492  -1.318  0.00  0.00    +0.016 C 
ATOM     21  C   UNL     1      11.310   7.124   0.219  0.00  0.00    +0.015 A 
ATOM     24  C   UNL     1       9.464   8.232   1.268  0.00  0.00    +0.165 A 
ATOM     31  C   UNL     1       7.639   9.219   2.641  0.00  0.00    +0.222 C 
ATOM     38  H   UNL     1       8.094   9.580   0.641  0.00  0.00    +0.157 HD
ENDROOT
BRANCH  31  28
ATOM     28  C   UNL     1       6.473  10.218   2.488  0.00  0.00    +0.075 C 
ATOM     32  C   UNL     1       5.559  10.435   3.713  0.00  0.00    +0.013 C 
ATOM     33  C   UNL     1       5.218   9.736   1.733  0.00  0.00    +0.013 C 
ATOM     34  C   UNL     1       4.392  10.590   2.717  0.00  0.00    +0.001 C 
ENDBRANCH  31  28
BRANCH  14   2
ATOM      2  O   UNL     1      16.738   3.986  -0.403  0.00  0.00    -0.391 OA
ATOM     35  H   UNL     1      16.359   3.688  -1.247  0.00  0.00    +0.210 HD
ENDBRANCH  14   2
BRANCH  11  19
ATOM     19  C   UNL     1      14.276   4.357  -1.770  0.00  0.00    +0.165 C 
BRANCH  19   3
ATOM      3  O   UNL     1      15.318   4.348  -2.720  0.00  0.00    -0.394 OA
ATOM     36  H   UNL     1      15.808   3.516  -2.604  0.00  0.00    +0.209 HD
ENDBRANCH  19   3
ENDBRANCH  11  19
BRANCH  12  22
ATOM     22  C   UNL     1      11.161   5.029   3.335  0.00  0.00    +0.106 C 
BRANCH  22  23
ATOM      4  O   UNL     1      10.015   5.833   5.310  0.00  0.00    -0.276 OA
ATOM      7  N   UNL     1      12.263   6.338   5.003  0.00  0.00    -0.312 N 
ATOM     23  C   UNL     1      11.050   5.762   4.652  0.00  0.00    +0.214 C 
ATOM     37  H   UNL     1      13.071   6.175   4.408  0.00  0.00    +0.149 HD
BRANCH   7  25
ATOM     25  C   UNL     1      12.452   7.103   6.209  0.00  0.00    +0.073 C 
ATOM     26  C   UNL     1      13.755   6.741   6.914  0.00  0.00    +0.022 C 
ATOM     27  C   UNL     1      12.630   8.587   5.912  0.00  0.00    +0.022 C 
ATOM     29  C   UNL     1      14.829   7.567   6.206  0.00  0.00    +0.002 C 
ATOM     30  C   UNL     1      14.100   8.728   5.529  0.00  0.00    +0.002 C 
ENDBRANCH   7  25
ENDBRANCH  22  23
ENDBRANCH  12  22
TORSDOF 7
ENDMDL
