MODEL 1
REMARK VINA RESULT:      -7.0      0.000      0.000
REMARK  Name = 11912000
REMARK  9 active torsions:
REMARK  status: ('A' for Active; 'I' for Inactive)
REMARK    1  A    between atoms: S_1  and  N_9
REMARK    2  A    between atoms: S_1  and  C_20
REMARK    3  A    between atoms: O_6  and  C_21
REMARK    4  A    between atoms: O_6  and  C_30
REMARK    5  A    between atoms: O_7  and  C_24
REMARK    6  A    between atoms: O_7  and  C_32
REMARK    7  A    between atoms: N_9  and  C_15
REMARK    8  A    between atoms: N_10  and  C_16
REMARK    9  A    between atoms: C_23  and  C_29
REMARK                            x       y       z     vdW  Elec       q    Type
REMARK                         _______ _______ _______ _____ _____    ______ ____
ROOT
ATOM      2  O   UNL     1     -17.562   3.752  23.080  0.00  0.00    -0.370 OA
ATOM      3  O   UNL     1     -14.773   4.051  24.457  0.00  0.00    -0.370 OA
ATOM     13  C   UNL     1     -16.125   4.107  24.943  0.00  0.00    +0.170 C 
ATOM     14  C   UNL     1     -16.960   4.787  23.876  0.00  0.00    +0.171 C 
ATOM     15  C   UNL     1     -16.704   2.716  25.035  0.00  0.00    +0.133 C 
ATOM     16  C   UNL     1     -15.954   5.560  23.056  0.00  0.00    +0.130 C 
ATOM     17  C   UNL     1     -17.215   2.472  23.628  0.00  0.00    +0.183 C 
ATOM     18  C   UNL     1     -14.699   4.718  23.190  0.00  0.00    +0.185 C 
ENDROOT
BRANCH  16  10
ATOM     10  N   UNL     1     -15.744   6.869  23.636  0.00  0.00    -0.306 N 
ATOM     11  N   UNL     1     -14.204   7.479  21.974  0.00  0.00    -0.211 NA
ATOM     12  N   UNL     1     -14.779   9.004  23.749  0.00  0.00    -0.223 NA
ATOM     19  C   UNL     1     -14.883   7.812  23.104  0.00  0.00    +0.216 A 
ATOM     23  C   UNL     1     -13.374   8.422  21.482  0.00  0.00    +0.111 A 
ATOM     26  C   UNL     1     -13.932   9.901  23.202  0.00  0.00    +0.116 A 
ATOM     27  C   UNL     1     -13.197   9.664  22.059  0.00  0.00    +0.051 A 
ATOM     36  H   UNL     1     -16.285   7.147  24.447  0.00  0.00    +0.149 HD
BRANCH  23  29
ATOM      8  O   UNL     1     -13.219   8.480  19.126  0.00  0.00    -0.461 OA
ATOM     29  C   UNL     1     -12.670   8.041  20.287  0.00  0.00    +0.153 A 
ATOM     31  C   UNL     1     -11.532   7.310  20.042  0.00  0.00    +0.051 A 
ATOM     33  C   UNL     1     -11.370   7.299  18.637  0.00  0.00    +0.042 A 
ATOM     34  C   UNL     1     -12.420   8.023  18.125  0.00  0.00    +0.196 A 
ENDBRANCH  23  29
ENDBRANCH  16  10
BRANCH  15   9
ATOM      9  N   UNL     1     -17.843   2.712  25.985  0.00  0.00    -0.182 NA
ATOM     35  H   UNL     1     -18.381   3.583  26.063  0.00  0.00    +0.148 HD
BRANCH   9   1
ATOM      1  S   UNL     1     -17.872   1.596  27.265  0.00  0.00    +0.062 S 
ATOM      4  O   UNL     1     -17.452   0.295  26.781  0.00  0.00    -0.153 OA
ATOM      5  O   UNL     1     -19.125   1.739  27.981  0.00  0.00    -0.153 OA
BRANCH   1  20
ATOM     20  C   UNL     1     -16.599   2.220  28.322  0.00  0.00    +0.150 A 
ATOM     21  C   UNL     1     -16.564   3.566  28.651  0.00  0.00    +0.147 A 
ATOM     22  C   UNL     1     -15.649   1.336  28.804  0.00  0.00    +0.077 A 
ATOM     24  C   UNL     1     -14.636   1.809  29.638  0.00  0.00    +0.122 A 
ATOM     25  C   UNL     1     -15.552   4.039  29.485  0.00  0.00    +0.051 A 
ATOM     28  C   UNL     1     -14.588   3.161  29.979  0.00  0.00    +0.049 A 
BRANCH  21   6
ATOM      6  O   UNL     1     -17.497   4.442  28.180  0.00  0.00    -0.493 OA
ATOM     30  C   UNL     1     -17.219   5.831  28.341  0.00  0.00    +0.277 C 
ENDBRANCH  21   6
BRANCH  24   7
ATOM      7  O   UNL     1     -13.694   0.953  30.119  0.00  0.00    -0.495 OA
ATOM     32  C   UNL     1     -13.869  -0.433  29.832  0.00  0.00    +0.277 C 
ENDBRANCH  24   7
ENDBRANCH   1  20
ENDBRANCH   9   1
ENDBRANCH  15   9
TORSDOF 7
ENDMDL
MODEL 2
REMARK VINA RESULT:      -6.8      2.306      3.762
REMARK  Name = 11912000
REMARK  9 active torsions:
REMARK  status: ('A' for Active; 'I' for Inactive)
REMARK    1  A    between atoms: S_1  and  N_9
REMARK    2  A    between atoms: S_1  and  C_20
REMARK    3  A    between atoms: O_6  and  C_21
REMARK    4  A    between atoms: O_6  and  C_30
REMARK    5  A    between atoms: O_7  and  C_24
REMARK    6  A    between atoms: O_7  and  C_32
REMARK    7  A    between atoms: N_9  and  C_15
REMARK    8  A    between atoms: N_10  and  C_16
REMARK    9  A    between atoms: C_23  and  C_29
REMARK                            x       y       z     vdW  Elec       q    Type
REMARK                         _______ _______ _______ _____ _____    ______ ____
ROOT
ATOM      2  O   UNL     1     -17.193   5.037  25.300  0.00  0.00    -0.370 OA
ATOM      3  O   UNL     1     -16.276   2.205  24.351  0.00  0.00    -0.370 OA
ATOM     13  C   UNL     1     -15.770   3.130  25.329  0.00  0.00    +0.170 C 
ATOM     14  C   UNL     1     -15.960   4.526  24.768  0.00  0.00    +0.171 C 
ATOM     15  C   UNL     1     -16.637   3.107  26.565  0.00  0.00    +0.133 C 
ATOM     16  C   UNL     1     -16.080   4.314  23.278  0.00  0.00    +0.130 C 
ATOM     17  C   UNL     1     -17.747   4.079  26.213  0.00  0.00    +0.183 C 
ATOM     18  C   UNL     1     -16.699   2.931  23.189  0.00  0.00    +0.185 C 
ENDROOT
BRANCH  16  10
ATOM     10  N   UNL     1     -14.768   4.314  22.669  0.00  0.00    -0.306 N 
ATOM     11  N   UNL     1     -14.822   6.631  22.296  0.00  0.00    -0.211 NA
ATOM     12  N   UNL     1     -12.912   5.315  21.639  0.00  0.00    -0.223 NA
ATOM     19  C   UNL     1     -14.149   5.454  22.188  0.00  0.00    +0.216 A 
ATOM     23  C   UNL     1     -14.189   7.721  21.816  0.00  0.00    +0.111 A 
ATOM     26  C   UNL     1     -12.337   6.446  21.181  0.00  0.00    +0.116 A 
ATOM     27  C   UNL     1     -12.934   7.689  21.243  0.00  0.00    +0.051 A 
ATOM     36  H   UNL     1     -14.235   3.453  22.632  0.00  0.00    +0.149 HD
BRANCH  23  29
ATOM      8  O   UNL     1     -15.411   9.458  20.784  0.00  0.00    -0.461 OA
ATOM     29  C   UNL     1     -14.924   8.950  21.945  0.00  0.00    +0.153 A 
ATOM     31  C   UNL     1     -15.257   9.756  23.007  0.00  0.00    +0.051 A 
ATOM     33  C   UNL     1     -16.000  10.832  22.463  0.00  0.00    +0.042 A 
ATOM     34  C   UNL     1     -16.066  10.605  21.109  0.00  0.00    +0.196 A 
ENDBRANCH  23  29
ENDBRANCH  16  10
BRANCH  15   9
ATOM      9  N   UNL     1     -15.868   3.629  27.721  0.00  0.00    -0.182 NA
ATOM     35  H   UNL     1     -14.858   3.440  27.726  0.00  0.00    +0.148 HD
BRANCH   9   1
ATOM      1  S   UNL     1     -16.663   3.957  29.185  0.00  0.00    +0.062 S 
ATOM      4  O   UNL     1     -17.632   2.912  29.454  0.00  0.00    -0.153 OA
ATOM      5  O   UNL     1     -17.069   5.349  29.194  0.00  0.00    -0.153 OA
BRANCH   1  20
ATOM     20  C   UNL     1     -15.348   3.796  30.358  0.00  0.00    +0.150 A 
ATOM     21  C   UNL     1     -14.500   2.702  30.307  0.00  0.00    +0.147 A 
ATOM     22  C   UNL     1     -15.194   4.783  31.317  0.00  0.00    +0.077 A 
ATOM     24  C   UNL     1     -14.164   4.673  32.251  0.00  0.00    +0.122 A 
ATOM     25  C   UNL     1     -13.469   2.592  31.240  0.00  0.00    +0.051 A 
ATOM     28  C   UNL     1     -13.302   3.578  32.212  0.00  0.00    +0.049 A 
BRANCH  21   6
ATOM      6  O   UNL     1     -14.645   1.726  29.365  0.00  0.00    -0.493 OA
ATOM     30  C   UNL     1     -14.602   0.376  29.820  0.00  0.00    +0.277 C 
ENDBRANCH  21   6
BRANCH  24   7
ATOM      7  O   UNL     1     -14.001   5.635  33.200  0.00  0.00    -0.495 OA
ATOM     32  C   UNL     1     -14.205   5.248  34.558  0.00  0.00    +0.277 C 
ENDBRANCH  24   7
ENDBRANCH   1  20
ENDBRANCH   9   1
ENDBRANCH  15   9
TORSDOF 7
ENDMDL
MODEL 3
REMARK VINA RESULT:      -6.6      2.487      9.742
REMARK  Name = 11912000
REMARK  9 active torsions:
REMARK  status: ('A' for Active; 'I' for Inactive)
REMARK    1  A    between atoms: S_1  and  N_9
REMARK    2  A    between atoms: S_1  and  C_20
REMARK    3  A    between atoms: O_6  and  C_21
REMARK    4  A    between atoms: O_6  and  C_30
REMARK    5  A    between atoms: O_7  and  C_24
REMARK    6  A    between atoms: O_7  and  C_32
REMARK    7  A    between atoms: N_9  and  C_15
REMARK    8  A    between atoms: N_10  and  C_16
REMARK    9  A    between atoms: C_23  and  C_29
REMARK                            x       y       z     vdW  Elec       q    Type
REMARK                         _______ _______ _______ _____ _____    ______ ____
ROOT
ATOM      2  O   UNL     1     -13.985   4.792  23.703  0.00  0.00    -0.370 OA
ATOM      3  O   UNL     1     -16.711   3.876  22.481  0.00  0.00    -0.370 OA
ATOM     13  C   UNL     1     -16.147   5.164  22.780  0.00  0.00    +0.170 C 
ATOM     14  C   UNL     1     -15.356   5.022  24.067  0.00  0.00    +0.171 C 
ATOM     15  C   UNL     1     -15.108   5.530  21.747  0.00  0.00    +0.133 C 
ATOM     16  C   UNL     1     -15.938   3.792  24.724  0.00  0.00    +0.130 C 
ATOM     17  C   UNL     1     -13.858   4.854  22.275  0.00  0.00    +0.183 C 
ATOM     18  C   UNL     1     -16.385   2.961  23.536  0.00  0.00    +0.185 C 
ENDROOT
BRANCH  16  10
ATOM     10  N   UNL     1     -17.077   4.158  25.538  0.00  0.00    -0.306 N 
ATOM     11  N   UNL     1     -16.267   2.977  27.397  0.00  0.00    -0.211 NA
ATOM     12  N   UNL     1     -18.357   4.172  27.504  0.00  0.00    -0.223 NA
ATOM     19  C   UNL     1     -17.238   3.757  26.852  0.00  0.00    +0.216 A 
ATOM     23  C   UNL     1     -16.457   2.606  28.680  0.00  0.00    +0.111 A 
ATOM     26  C   UNL     1     -18.482   3.764  28.784  0.00  0.00    +0.116 A 
ATOM     27  C   UNL     1     -17.555   2.973  29.431  0.00  0.00    +0.051 A 
ATOM     36  H   UNL     1     -17.780   4.782  25.159  0.00  0.00    +0.149 HD
BRANCH  23  29
ATOM      8  O   UNL     1     -15.506   0.459  28.938  0.00  0.00    -0.461 OA
ATOM     29  C   UNL     1     -15.413   1.782  29.229  0.00  0.00    +0.153 A 
ATOM     31  C   UNL     1     -14.310   2.033  30.008  0.00  0.00    +0.051 A 
ATOM     33  C   UNL     1     -13.680   0.782  30.209  0.00  0.00    +0.042 A 
ATOM     34  C   UNL     1     -14.445  -0.143  29.538  0.00  0.00    +0.196 A 
ENDBRANCH  23  29
ENDBRANCH  16  10
BRANCH  15   9
ATOM      9  N   UNL     1     -14.913   7.001  21.739  0.00  0.00    -0.182 NA
ATOM     35  H   UNL     1     -14.967   7.479  22.646  0.00  0.00    +0.148 HD
BRANCH   9   1
ATOM      1  S   UNL     1     -15.191   7.881  20.314  0.00  0.00    +0.062 S 
ATOM      4  O   UNL     1     -16.042   9.019  20.607  0.00  0.00    -0.153 OA
ATOM      5  O   UNL     1     -15.548   6.958  19.255  0.00  0.00    -0.153 OA
BRANCH   1  20
ATOM     20  C   UNL     1     -13.574   8.493  19.942  0.00  0.00    +0.150 A 
ATOM     21  C   UNL     1     -12.968   9.415  20.780  0.00  0.00    +0.147 A 
ATOM     22  C   UNL     1     -12.939   8.030  18.801  0.00  0.00    +0.077 A 
ATOM     24  C   UNL     1     -11.663   8.501  18.491  0.00  0.00    +0.122 A 
ATOM     25  C   UNL     1     -11.692   9.886  20.469  0.00  0.00    +0.051 A 
ATOM     28  C   UNL     1     -11.040   9.429  19.324  0.00  0.00    +0.049 A 
BRANCH  21   6
ATOM      6  O   UNL     1     -13.587   9.875  21.904  0.00  0.00    -0.493 OA
ATOM     30  C   UNL     1     -12.755  10.432  22.919  0.00  0.00    +0.277 C 
ENDBRANCH  21   6
BRANCH  24   7
ATOM      7  O   UNL     1     -11.027   8.056  17.372  0.00  0.00    -0.495 OA
ATOM     32  C   UNL     1     -10.361   9.032  16.572  0.00  0.00    +0.277 C 
ENDBRANCH  24   7
ENDBRANCH   1  20
ENDBRANCH   9   1
ENDBRANCH  15   9
TORSDOF 7
ENDMDL
MODEL 4
REMARK VINA RESULT:      -6.5     18.719     22.025
REMARK  Name = 11912000
REMARK  9 active torsions:
REMARK  status: ('A' for Active; 'I' for Inactive)
REMARK    1  A    between atoms: S_1  and  N_9
REMARK    2  A    between atoms: S_1  and  C_20
REMARK    3  A    between atoms: O_6  and  C_21
REMARK    4  A    between atoms: O_6  and  C_30
REMARK    5  A    between atoms: O_7  and  C_24
REMARK    6  A    between atoms: O_7  and  C_32
REMARK    7  A    between atoms: N_9  and  C_15
REMARK    8  A    between atoms: N_10  and  C_16
REMARK    9  A    between atoms: C_23  and  C_29
REMARK                            x       y       z     vdW  Elec       q    Type
REMARK                         _______ _______ _______ _____ _____    ______ ____
ROOT
ATOM      2  O   UNL     1      -6.739 -10.181  16.648  0.00  0.00    -0.370 OA
ATOM      3  O   UNL     1      -4.694 -11.109  18.821  0.00  0.00    -0.370 OA
ATOM     13  C   UNL     1      -5.049 -11.611  17.521  0.00  0.00    +0.170 C 
ATOM     14  C   UNL     1      -6.544 -11.417  17.356  0.00  0.00    +0.171 C 
ATOM     15  C   UNL     1      -4.442 -10.743  16.444  0.00  0.00    +0.133 C 
ATOM     16  C   UNL     1      -7.060 -11.298  18.770  0.00  0.00    +0.130 C 
ATOM     17  C   UNL     1      -5.461  -9.630  16.298  0.00  0.00    +0.183 C 
ATOM     18  C   UNL     1      -5.882 -10.684  19.503  0.00  0.00    +0.185 C 
ENDROOT
BRANCH  16  10
ATOM     10  N   UNL     1      -7.352 -12.611  19.303  0.00  0.00    -0.306 N 
ATOM     11  N   UNL     1      -9.564 -12.027  19.828  0.00  0.00    -0.211 NA
ATOM     12  N   UNL     1      -8.724 -14.238  20.290  0.00  0.00    -0.223 NA
ATOM     19  C   UNL     1      -8.583 -12.969  19.822  0.00  0.00    +0.216 A 
ATOM     23  C   UNL     1     -10.751 -12.411  20.341  0.00  0.00    +0.111 A 
ATOM     26  C   UNL     1      -9.938 -14.554  20.788  0.00  0.00    +0.116 A 
ATOM     27  C   UNL     1     -10.999 -13.673  20.840  0.00  0.00    +0.051 A 
ATOM     36  H   UNL     1      -6.646 -13.337  19.254  0.00  0.00    +0.149 HD
BRANCH  23  29
ATOM      8  O   UNL     1     -12.812 -11.612  21.173  0.00  0.00    -0.461 OA
ATOM     29  C   UNL     1     -11.768 -11.393  20.333  0.00  0.00    +0.153 A 
ATOM     31  C   UNL     1     -11.932 -10.213  19.649  0.00  0.00    +0.051 A 
ATOM     33  C   UNL     1     -13.159  -9.669  20.097  0.00  0.00    +0.042 A 
ATOM     34  C   UNL     1     -13.655 -10.556  21.023  0.00  0.00    +0.196 A 
ENDBRANCH  23  29
ENDBRANCH  16  10
BRANCH  15   9
ATOM      9  N   UNL     1      -4.358 -11.510  15.177  0.00  0.00    -0.182 NA
ATOM     35  H   UNL     1      -4.880 -12.393  15.137  0.00  0.00    +0.148 HD
BRANCH   9   1
ATOM      1  S   UNL     1      -3.042 -11.270  14.131  0.00  0.00    +0.062 S 
ATOM      4  O   UNL     1      -2.559 -12.554  13.660  0.00  0.00    -0.153 OA
ATOM      5  O   UNL     1      -2.127 -10.325  14.740  0.00  0.00    -0.153 OA
BRANCH   1  20
ATOM     20  C   UNL     1      -3.807 -10.443  12.767  0.00  0.00    +0.150 A 
ATOM     21  C   UNL     1      -3.047 -10.046  11.679  0.00  0.00    +0.147 A 
ATOM     22  C   UNL     1      -5.170 -10.205  12.820  0.00  0.00    +0.077 A 
ATOM     24  C   UNL     1      -5.791  -9.553  11.755  0.00  0.00    +0.122 A 
ATOM     25  C   UNL     1      -3.668  -9.394  10.613  0.00  0.00    +0.051 A 
ATOM     28  C   UNL     1      -5.040  -9.147  10.651  0.00  0.00    +0.049 A 
BRANCH  21   6
ATOM      6  O   UNL     1      -1.705 -10.277  11.620  0.00  0.00    -0.493 OA
ATOM     30  C   UNL     1      -0.876  -9.183  11.236  0.00  0.00    +0.277 C 
ENDBRANCH  21   6
BRANCH  24   7
ATOM      7  O   UNL     1      -7.130  -9.311  11.792  0.00  0.00    -0.495 OA
ATOM     32  C   UNL     1      -7.813  -9.624  13.004  0.00  0.00    +0.277 C 
ENDBRANCH  24   7
ENDBRANCH   1  20
ENDBRANCH   9   1
ENDBRANCH  15   9
TORSDOF 7
ENDMDL
MODEL 5
REMARK VINA RESULT:      -6.5     30.000     34.921
REMARK  Name = 11912000
REMARK  9 active torsions:
REMARK  status: ('A' for Active; 'I' for Inactive)
REMARK    1  A    between atoms: S_1  and  N_9
REMARK    2  A    between atoms: S_1  and  C_20
REMARK    3  A    between atoms: O_6  and  C_21
REMARK    4  A    between atoms: O_6  and  C_30
REMARK    5  A    between atoms: O_7  and  C_24
REMARK    6  A    between atoms: O_7  and  C_32
REMARK    7  A    between atoms: N_9  and  C_15
REMARK    8  A    between atoms: N_10  and  C_16
REMARK    9  A    between atoms: C_23  and  C_29
REMARK                            x       y       z     vdW  Elec       q    Type
REMARK                         _______ _______ _______ _____ _____    ______ ____
ROOT
ATOM      2  O   UNL     1      13.854   7.011   6.099  0.00  0.00    -0.370 OA
ATOM      3  O   UNL     1      15.147   9.853   6.206  0.00  0.00    -0.370 OA
ATOM     13  C   UNL     1      13.978   9.324   5.558  0.00  0.00    +0.170 C 
ATOM     14  C   UNL     1      14.317   7.922   5.089  0.00  0.00    +0.171 C 
ATOM     15  C   UNL     1      12.872   9.120   6.564  0.00  0.00    +0.133 C 
ATOM     16  C   UNL     1      15.826   7.909   5.023  0.00  0.00    +0.130 C 
ATOM     17  C   UNL     1      13.183   7.748   7.131  0.00  0.00    +0.183 C 
ATOM     18  C   UNL     1      16.214   8.899   6.105  0.00  0.00    +0.185 C 
ENDROOT
BRANCH  16  10
ATOM     10  N   UNL     1      16.269   8.381   3.730  0.00  0.00    -0.306 N 
ATOM     11  N   UNL     1      15.127   6.675   2.593  0.00  0.00    -0.211 NA
ATOM     12  N   UNL     1      16.410   8.322   1.388  0.00  0.00    -0.223 NA
ATOM     19  C   UNL     1      15.925   7.774   2.535  0.00  0.00    +0.216 A 
ATOM     23  C   UNL     1      14.811   6.110   1.410  0.00  0.00    +0.111 A 
ATOM     26  C   UNL     1      16.054   7.706   0.242  0.00  0.00    +0.116 A 
ATOM     27  C   UNL     1      15.249   6.586   0.190  0.00  0.00    +0.051 A 
ATOM     36  H   UNL     1      16.820   9.230   3.671  0.00  0.00    +0.149 HD
BRANCH  23  29
ATOM      8  O   UNL     1      12.756   5.158   2.081  0.00  0.00    -0.461 OA
ATOM     29  C   UNL     1      13.966   4.949   1.502  0.00  0.00    +0.153 A 
ATOM     31  C   UNL     1      14.108   3.634   1.130  0.00  0.00    +0.051 A 
ATOM     33  C   UNL     1      12.904   2.991   1.503  0.00  0.00    +0.042 A 
ATOM     34  C   UNL     1      12.115   3.960   2.077  0.00  0.00    +0.196 A 
ENDBRANCH  23  29
ENDBRANCH  16  10
BRANCH  15   9
ATOM      9  N   UNL     1      11.564   9.084   5.866  0.00  0.00    -0.182 NA
ATOM     35  H   UNL     1      11.495   9.615   4.989  0.00  0.00    +0.148 HD
BRANCH   9   1
ATOM      1  S   UNL     1      10.151   8.722   6.736  0.00  0.00    +0.062 S 
ATOM      4  O   UNL     1       9.006   9.302   6.060  0.00  0.00    -0.153 OA
ATOM      5  O   UNL     1      10.384   8.994   8.140  0.00  0.00    -0.153 OA
BRANCH   1  20
ATOM     20  C   UNL     1      10.055   6.965   6.559  0.00  0.00    +0.150 A 
ATOM     21  C   UNL     1      10.217   6.380   5.314  0.00  0.00    +0.147 A 
ATOM     22  C   UNL     1       9.814   6.200   7.689  0.00  0.00    +0.077 A 
ATOM     24  C   UNL     1       9.734   4.813   7.570  0.00  0.00    +0.122 A 
ATOM     25  C   UNL     1      10.136   4.992   5.195  0.00  0.00    +0.051 A 
ATOM     28  C   UNL     1       9.895   4.209   6.324  0.00  0.00    +0.049 A 
BRANCH  21   6
ATOM      6  O   UNL     1      10.454   7.126   4.198  0.00  0.00    -0.493 OA
ATOM     30  C   UNL     1       9.671   6.831   3.043  0.00  0.00    +0.277 C 
ENDBRANCH  21   6
BRANCH  24   7
ATOM      7  O   UNL     1       9.497   4.048   8.671  0.00  0.00    -0.495 OA
ATOM     32  C   UNL     1       9.359   4.728   9.917  0.00  0.00    +0.277 C 
ENDBRANCH  24   7
ENDBRANCH   1  20
ENDBRANCH   9   1
ENDBRANCH  15   9
TORSDOF 7
ENDMDL
MODEL 6
REMARK VINA RESULT:      -6.5     23.392     26.470
REMARK  Name = 11912000
REMARK  9 active torsions:
REMARK  status: ('A' for Active; 'I' for Inactive)
REMARK    1  A    between atoms: S_1  and  N_9
REMARK    2  A    between atoms: S_1  and  C_20
REMARK    3  A    between atoms: O_6  and  C_21
REMARK    4  A    between atoms: O_6  and  C_30
REMARK    5  A    between atoms: O_7  and  C_24
REMARK    6  A    between atoms: O_7  and  C_32
REMARK    7  A    between atoms: N_9  and  C_15
REMARK    8  A    between atoms: N_10  and  C_16
REMARK    9  A    between atoms: C_23  and  C_29
REMARK                            x       y       z     vdW  Elec       q    Type
REMARK                         _______ _______ _______ _____ _____    ______ ____
ROOT
ATOM      2  O   UNL     1      -6.047 -11.472  10.119  0.00  0.00    -0.370 OA
ATOM      3  O   UNL     1      -4.135  -9.024   9.782  0.00  0.00    -0.370 OA
ATOM     13  C   UNL     1      -4.074 -10.392   9.343  0.00  0.00    +0.170 C 
ATOM     14  C   UNL     1      -4.667 -11.246  10.447  0.00  0.00    +0.171 C 
ATOM     15  C   UNL     1      -5.003 -10.605   8.172  0.00  0.00    +0.133 C 
ATOM     16  C   UNL     1      -4.556 -10.384  11.683  0.00  0.00    +0.130 C 
ATOM     17  C   UNL     1      -6.335 -10.875   8.846  0.00  0.00    +0.183 C 
ATOM     18  C   UNL     1      -4.658  -8.979  11.117  0.00  0.00    +0.185 C 
ENDROOT
BRANCH  16  10
ATOM     10  N   UNL     1      -3.266 -10.579  12.308  0.00  0.00    -0.306 N 
ATOM     11  N   UNL     1      -4.174 -10.461  14.469  0.00  0.00    -0.211 NA
ATOM     12  N   UNL     1      -1.812 -10.809  14.136  0.00  0.00    -0.223 NA
ATOM     19  C   UNL     1      -3.079 -10.617  13.678  0.00  0.00    +0.216 A 
ATOM     23  C   UNL     1      -3.955 -10.505  15.799  0.00  0.00    +0.111 A 
ATOM     26  C   UNL     1      -1.666 -10.842  15.477  0.00  0.00    +0.116 A 
ATOM     27  C   UNL     1      -2.711 -10.695  16.366  0.00  0.00    +0.051 A 
ATOM     36  H   UNL     1      -2.452 -10.750  11.729  0.00  0.00    +0.149 HD
BRANCH  23  29
ATOM      8  O   UNL     1      -6.097  -9.547  16.073  0.00  0.00    -0.461 OA
ATOM     29  C   UNL     1      -5.131 -10.337  16.610  0.00  0.00    +0.153 A 
ATOM     31  C   UNL     1      -5.515 -10.805  17.843  0.00  0.00    +0.051 A 
ATOM     33  C   UNL     1      -6.803 -10.269  18.081  0.00  0.00    +0.042 A 
ATOM     34  C   UNL     1      -7.112  -9.511  16.976  0.00  0.00    +0.196 A 
ENDBRANCH  23  29
ENDBRANCH  16  10
BRANCH  15   9
ATOM      9  N   UNL     1      -4.578 -11.805   7.412  0.00  0.00    -0.182 NA
ATOM     35  H   UNL     1      -3.660 -12.200   7.650  0.00  0.00    +0.148 HD
BRANCH   9   1
ATOM      1  S   UNL     1      -5.253 -12.122   5.887  0.00  0.00    +0.062 S 
ATOM      4  O   UNL     1      -5.559 -10.869   5.224  0.00  0.00    -0.153 OA
ATOM      5  O   UNL     1      -6.275 -13.140   6.030  0.00  0.00    -0.153 OA
BRANCH   1  20
ATOM     20  C   UNL     1      -3.895 -12.871   5.035  0.00  0.00    +0.150 A 
ATOM     21  C   UNL     1      -3.133 -13.844   5.661  0.00  0.00    +0.147 A 
ATOM     22  C   UNL     1      -3.619 -12.460   3.742  0.00  0.00    +0.077 A 
ATOM     24  C   UNL     1      -2.552 -13.037   3.055  0.00  0.00    +0.122 A 
ATOM     25  C   UNL     1      -2.066 -14.422   4.973  0.00  0.00    +0.051 A 
ATOM     28  C   UNL     1      -1.775 -14.019   3.670  0.00  0.00    +0.049 A 
BRANCH  21   6
ATOM      6  O   UNL     1      -3.399 -14.254   6.934  0.00  0.00    -0.493 OA
ATOM     30  C   UNL     1      -3.723 -15.630   7.116  0.00  0.00    +0.277 C 
ENDBRANCH  21   6
BRANCH  24   7
ATOM      7  O   UNL     1      -2.268 -12.643   1.783  0.00  0.00    -0.495 OA
ATOM     32  C   UNL     1      -2.543 -13.573   0.738  0.00  0.00    +0.277 C 
ENDBRANCH  24   7
ENDBRANCH   1  20
ENDBRANCH   9   1
ENDBRANCH  15   9
TORSDOF 7
ENDMDL
MODEL 7
REMARK VINA RESULT:      -6.5     18.971     21.546
REMARK  Name = 11912000
REMARK  9 active torsions:
REMARK  status: ('A' for Active; 'I' for Inactive)
REMARK    1  A    between atoms: S_1  and  N_9
REMARK    2  A    between atoms: S_1  and  C_20
REMARK    3  A    between atoms: O_6  and  C_21
REMARK    4  A    between atoms: O_6  and  C_30
REMARK    5  A    between atoms: O_7  and  C_24
REMARK    6  A    between atoms: O_7  and  C_32
REMARK    7  A    between atoms: N_9  and  C_15
REMARK    8  A    between atoms: N_10  and  C_16
REMARK    9  A    between atoms: C_23  and  C_29
REMARK                            x       y       z     vdW  Elec       q    Type
REMARK                         _______ _______ _______ _____ _____    ______ ____
ROOT
ATOM      2  O   UNL     1      -5.673  -9.622  16.596  0.00  0.00    -0.370 OA
ATOM      3  O   UNL     1      -5.299 -11.665  18.929  0.00  0.00    -0.370 OA
ATOM     13  C   UNL     1      -5.514 -11.810  17.515  0.00  0.00    +0.170 C 
ATOM     14  C   UNL     1      -6.468 -10.711  17.089  0.00  0.00    +0.171 C 
ATOM     15  C   UNL     1      -4.242 -11.507  16.761  0.00  0.00    +0.133 C 
ATOM     16  C   UNL     1      -7.168 -10.313  18.368  0.00  0.00    +0.130 C 
ATOM     17  C   UNL     1      -4.288  -9.998  16.618  0.00  0.00    +0.183 C 
ATOM     18  C   UNL     1      -6.115 -10.594  19.424  0.00  0.00    +0.185 C 
ENDROOT
BRANCH  16  10
ATOM     10  N   UNL     1      -8.327 -11.152  18.580  0.00  0.00    -0.306 N 
ATOM     11  N   UNL     1      -9.774  -9.591  17.593  0.00  0.00    -0.211 NA
ATOM     12  N   UNL     1     -10.610 -11.680  18.457  0.00  0.00    -0.223 NA
ATOM     19  C   UNL     1      -9.608 -10.797  18.199  0.00  0.00    +0.216 A 
ATOM     23  C   UNL     1     -11.037  -9.277  17.234  0.00  0.00    +0.111 A 
ATOM     26  C   UNL     1     -11.846 -11.302  18.071  0.00  0.00    +0.116 A 
ATOM     27  C   UNL     1     -12.123 -10.102  17.449  0.00  0.00    +0.051 A 
ATOM     36  H   UNL     1      -8.207 -12.075  18.982  0.00  0.00    +0.149 HD
BRANCH  23  29
ATOM      8  O   UNL     1     -10.030  -7.449  16.129  0.00  0.00    -0.461 OA
ATOM     29  C   UNL     1     -11.181  -7.996  16.596  0.00  0.00    +0.153 A 
ATOM     31  C   UNL     1     -12.250  -7.171  16.344  0.00  0.00    +0.051 A 
ATOM     33  C   UNL     1     -11.723  -6.041  15.675  0.00  0.00    +0.042 A 
ATOM     34  C   UNL     1     -10.369  -6.257  15.569  0.00  0.00    +0.196 A 
ENDBRANCH  23  29
ENDBRANCH  16  10
BRANCH  15   9
ATOM      9  N   UNL     1      -4.298 -12.136  15.419  0.00  0.00    -0.182 NA
ATOM     35  H   UNL     1      -5.115 -12.726  15.219  0.00  0.00    +0.148 HD
BRANCH   9   1
ATOM      1  S   UNL     1      -2.867 -12.365  14.533  0.00  0.00    +0.062 S 
ATOM      4  O   UNL     1      -2.664 -13.782  14.301  0.00  0.00    -0.153 OA
ATOM      5  O   UNL     1      -1.815 -11.565  15.128  0.00  0.00    -0.153 OA
BRANCH   1  20
ATOM     20  C   UNL     1      -3.274 -11.613  12.984  0.00  0.00    +0.150 A 
ATOM     21  C   UNL     1      -4.455 -11.941  12.339  0.00  0.00    +0.147 A 
ATOM     22  C   UNL     1      -2.386 -10.699  12.441  0.00  0.00    +0.077 A 
ATOM     24  C   UNL     1      -2.688 -10.096  11.220  0.00  0.00    +0.122 A 
ATOM     25  C   UNL     1      -4.757 -11.338  11.118  0.00  0.00    +0.051 A 
ATOM     28  C   UNL     1      -3.874 -10.415  10.559  0.00  0.00    +0.049 A 
BRANCH  21   6
ATOM      6  O   UNL     1      -5.334 -12.840  12.868  0.00  0.00    -0.493 OA
ATOM     30  C   UNL     1      -6.651 -12.855  12.323  0.00  0.00    +0.277 C 
ENDBRANCH  21   6
BRANCH  24   7
ATOM      7  O   UNL     1      -1.826  -9.196  10.673  0.00  0.00    -0.495 OA
ATOM     32  C   UNL     1      -0.605  -8.958  11.372  0.00  0.00    +0.277 C 
ENDBRANCH  24   7
ENDBRANCH   1  20
ENDBRANCH   9   1
ENDBRANCH  15   9
TORSDOF 7
ENDMDL
MODEL 8
REMARK VINA RESULT:      -6.5     27.636     30.802
REMARK  Name = 11912000
REMARK  9 active torsions:
REMARK  status: ('A' for Active; 'I' for Inactive)
REMARK    1  A    between atoms: S_1  and  N_9
REMARK    2  A    between atoms: S_1  and  C_20
REMARK    3  A    between atoms: O_6  and  C_21
REMARK    4  A    between atoms: O_6  and  C_30
REMARK    5  A    between atoms: O_7  and  C_24
REMARK    6  A    between atoms: O_7  and  C_32
REMARK    7  A    between atoms: N_9  and  C_15
REMARK    8  A    between atoms: N_10  and  C_16
REMARK    9  A    between atoms: C_23  and  C_29
REMARK                            x       y       z     vdW  Elec       q    Type
REMARK                         _______ _______ _______ _____ _____    ______ ____
ROOT
ATOM      2  O   UNL     1      11.687  11.318  25.525  0.00  0.00    -0.370 OA
ATOM      3  O   UNL     1      12.734  13.543  23.598  0.00  0.00    -0.370 OA
ATOM     13  C   UNL     1      13.096  12.168  23.807  0.00  0.00    +0.170 C 
ATOM     14  C   UNL     1      12.983  11.893  25.294  0.00  0.00    +0.171 C 
ATOM     15  C   UNL     1      12.066  11.257  23.184  0.00  0.00    +0.133 C 
ATOM     16  C   UNL     1      13.072  13.259  25.931  0.00  0.00    +0.130 C 
ATOM     17  C   UNL     1      11.013  11.149  24.270  0.00  0.00    +0.183 C 
ATOM     18  C   UNL     1      12.475  14.161  24.866  0.00  0.00    +0.185 C 
ENDROOT
BRANCH  16  10
ATOM     10  N   UNL     1      14.456  13.609  26.164  0.00  0.00    -0.306 N 
ATOM     11  N   UNL     1      14.396  12.825  28.376  0.00  0.00    -0.211 NA
ATOM     12  N   UNL     1      16.412  13.769  27.451  0.00  0.00    -0.223 NA
ATOM     19  C   UNL     1      15.107  13.395  27.366  0.00  0.00    +0.216 A 
ATOM     23  C   UNL     1      15.062  12.631  29.532  0.00  0.00    +0.111 A 
ATOM     26  C   UNL     1      17.016  13.545  28.636  0.00  0.00    +0.116 A 
ATOM     27  C   UNL     1      16.386  12.974  29.723  0.00  0.00    +0.051 A 
ATOM     36  H   UNL     1      15.011  13.983  25.402  0.00  0.00    +0.149 HD
BRANCH  23  29
ATOM      8  O   UNL     1      14.354  10.674  30.649  0.00  0.00    -0.461 OA
ATOM     29  C   UNL     1      14.285  12.028  30.582  0.00  0.00    +0.153 A 
ATOM     31  C   UNL     1      13.459  12.523  31.562  0.00  0.00    +0.051 A 
ATOM     33  C   UNL     1      12.990  11.398  32.282  0.00  0.00    +0.042 A 
ATOM     34  C   UNL     1      13.562  10.298  31.688  0.00  0.00    +0.196 A 
ENDBRANCH  23  29
ENDBRANCH  16  10
BRANCH  15   9
ATOM      9  N   UNL     1      12.665   9.923  22.938  0.00  0.00    -0.182 NA
ATOM     35  H   UNL     1      13.627   9.781  23.270  0.00  0.00    +0.148 HD
BRANCH   9   1
ATOM      1  S   UNL     1      12.059   8.940  21.693  0.00  0.00    +0.062 S 
ATOM      4  O   UNL     1      11.474   9.775  20.660  0.00  0.00    -0.153 OA
ATOM      5  O   UNL     1      11.291   7.861  22.281  0.00  0.00    -0.153 OA
BRANCH   1  20
ATOM     20  C   UNL     1      13.539   8.224  21.040  0.00  0.00    +0.150 A 
ATOM     21  C   UNL     1      13.491   7.450  19.893  0.00  0.00    +0.147 A 
ATOM     22  C   UNL     1      14.733   8.457  21.703  0.00  0.00    +0.077 A 
ATOM     24  C   UNL     1      15.911   7.901  21.205  0.00  0.00    +0.122 A 
ATOM     25  C   UNL     1      14.669   6.893  19.394  0.00  0.00    +0.051 A 
ATOM     28  C   UNL     1      15.879   7.119  20.050  0.00  0.00    +0.049 A 
BRANCH  21   6
ATOM      6  O   UNL     1      12.320   7.217  19.235  0.00  0.00    -0.493 OA
ATOM     30  C   UNL     1      12.275   7.557  17.851  0.00  0.00    +0.277 C 
ENDBRANCH  21   6
BRANCH  24   7
ATOM      7  O   UNL     1      17.092   8.119  21.846  0.00  0.00    -0.495 OA
ATOM     32  C   UNL     1      18.205   8.506  21.042  0.00  0.00    +0.277 C 
ENDBRANCH  24   7
ENDBRANCH   1  20
ENDBRANCH   9   1
ENDBRANCH  15   9
TORSDOF 7
ENDMDL
MODEL 9
REMARK VINA RESULT:      -6.5     31.446     36.085
REMARK  Name = 11912000
REMARK  9 active torsions:
REMARK  status: ('A' for Active; 'I' for Inactive)
REMARK    1  A    between atoms: S_1  and  N_9
REMARK    2  A    between atoms: S_1  and  C_20
REMARK    3  A    between atoms: O_6  and  C_21
REMARK    4  A    between atoms: O_6  and  C_30
REMARK    5  A    between atoms: O_7  and  C_24
REMARK    6  A    between atoms: O_7  and  C_32
REMARK    7  A    between atoms: N_9  and  C_15
REMARK    8  A    between atoms: N_10  and  C_16
REMARK    9  A    between atoms: C_23  and  C_29
REMARK                            x       y       z     vdW  Elec       q    Type
REMARK                         _______ _______ _______ _____ _____    ______ ____
ROOT
ATOM      2  O   UNL     1      14.446   6.869   6.648  0.00  0.00    -0.370 OA
ATOM      3  O   UNL     1      12.905   9.287   5.407  0.00  0.00    -0.370 OA
ATOM     13  C   UNL     1      12.861   7.868   5.181  0.00  0.00    +0.170 C 
ATOM     14  C   UNL     1      14.280   7.347   5.304  0.00  0.00    +0.171 C 
ATOM     15  C   UNL     1      12.119   7.184   6.305  0.00  0.00    +0.133 C 
ATOM     16  C   UNL     1      15.142   8.566   5.071  0.00  0.00    +0.130 C 
ATOM     17  C   UNL     1      13.200   6.989   7.350  0.00  0.00    +0.183 C 
ATOM     18  C   UNL     1      14.268   9.694   5.588  0.00  0.00    +0.185 C 
ENDROOT
BRANCH  16  10
ATOM     10  N   UNL     1      15.392   8.734   3.656  0.00  0.00    -0.306 N 
ATOM     11  N   UNL     1      17.666   8.200   3.882  0.00  0.00    -0.211 NA
ATOM     12  N   UNL     1      16.729   8.742   1.729  0.00  0.00    -0.223 NA
ATOM     19  C   UNL     1      16.632   8.553   3.072  0.00  0.00    +0.216 A 
ATOM     23  C   UNL     1      18.860   8.032   3.278  0.00  0.00    +0.111 A 
ATOM     26  C   UNL     1      17.953   8.556   1.191  0.00  0.00    +0.116 A 
ATOM     27  C   UNL     1      19.066   8.197   1.924  0.00  0.00    +0.051 A 
ATOM     36  H   UNL     1      14.618   8.945   3.035  0.00  0.00    +0.149 HD
BRANCH  23  29
ATOM      8  O   UNL     1      19.852   8.162   5.418  0.00  0.00    -0.461 OA
ATOM     29  C   UNL     1      19.934   7.658   4.160  0.00  0.00    +0.153 A 
ATOM     31  C   UNL     1      21.060   6.885   4.018  0.00  0.00    +0.051 A 
ATOM     33  C   UNL     1      21.716   6.915   5.272  0.00  0.00    +0.042 A 
ATOM     34  C   UNL     1      20.942   7.704   6.089  0.00  0.00    +0.196 A 
ENDBRANCH  23  29
ENDBRANCH  16  10
BRANCH  15   9
ATOM      9  N   UNL     1      11.628   5.862   5.845  0.00  0.00    -0.182 NA
ATOM     35  H   UNL     1      12.242   5.338   5.209  0.00  0.00    +0.148 HD
BRANCH   9   1
ATOM      1  S   UNL     1       9.964   5.525   5.864  0.00  0.00    +0.062 S 
ATOM      4  O   UNL     1       9.398   5.957   7.128  0.00  0.00    -0.153 OA
ATOM      5  O   UNL     1       9.756   4.168   5.398  0.00  0.00    -0.153 OA
BRANCH   1  20
ATOM     20  C   UNL     1       9.359   6.604   4.600  0.00  0.00    +0.150 A 
ATOM     21  C   UNL     1       9.876   6.532   3.317  0.00  0.00    +0.147 A 
ATOM     22  C   UNL     1       8.366   7.512   4.927  0.00  0.00    +0.077 A 
ATOM     24  C   UNL     1       7.877   8.372   3.944  0.00  0.00    +0.122 A 
ATOM     25  C   UNL     1       9.387   7.391   2.334  0.00  0.00    +0.051 A 
ATOM     28  C   UNL     1       8.387   8.312   2.647  0.00  0.00    +0.049 A 
BRANCH  21   6
ATOM      6  O   UNL     1      10.854   5.640   2.988  0.00  0.00    -0.493 OA
ATOM     30  C   UNL     1      10.529   4.656   2.008  0.00  0.00    +0.277 C 
ENDBRANCH  21   6
BRANCH  24   7
ATOM      7  O   UNL     1       6.901   9.271   4.250  0.00  0.00    -0.495 OA
ATOM     32  C   UNL     1       6.307   9.980   3.164  0.00  0.00    +0.277 C 
ENDBRANCH  24   7
ENDBRANCH   1  20
ENDBRANCH   9   1
ENDBRANCH  15   9
TORSDOF 7
ENDMDL
MODEL 10
REMARK VINA RESULT:      -6.5      2.000      2.942
REMARK  Name = 11912000
REMARK  9 active torsions:
REMARK  status: ('A' for Active; 'I' for Inactive)
REMARK    1  A    between atoms: S_1  and  N_9
REMARK    2  A    between atoms: S_1  and  C_20
REMARK    3  A    between atoms: O_6  and  C_21
REMARK    4  A    between atoms: O_6  and  C_30
REMARK    5  A    between atoms: O_7  and  C_24
REMARK    6  A    between atoms: O_7  and  C_32
REMARK    7  A    between atoms: N_9  and  C_15
REMARK    8  A    between atoms: N_10  and  C_16
REMARK    9  A    between atoms: C_23  and  C_29
REMARK                            x       y       z     vdW  Elec       q    Type
REMARK                         _______ _______ _______ _____ _____    ______ ____
ROOT
ATOM      2  O   UNL     1     -17.053   4.938  25.213  0.00  0.00    -0.370 OA
ATOM      3  O   UNL     1     -16.508   2.346  23.557  0.00  0.00    -0.370 OA
ATOM     13  C   UNL     1     -15.923   2.896  24.749  0.00  0.00    +0.170 C 
ATOM     14  C   UNL     1     -15.881   4.402  24.577  0.00  0.00    +0.171 C 
ATOM     15  C   UNL     1     -16.844   2.685  25.927  0.00  0.00    +0.133 C 
ATOM     16  C   UNL     1     -15.957   4.606  23.082  0.00  0.00    +0.130 C 
ATOM     17  C   UNL     1     -17.784   3.871  25.834  0.00  0.00    +0.183 C 
ATOM     18  C   UNL     1     -16.764   3.405  22.624  0.00  0.00    +0.185 C 
ENDROOT
BRANCH  16  10
ATOM     10  N   UNL     1     -14.630   4.566  22.508  0.00  0.00    -0.306 N 
ATOM     11  N   UNL     1     -14.607   6.881  22.124  0.00  0.00    -0.211 NA
ATOM     12  N   UNL     1     -12.720   5.506  21.523  0.00  0.00    -0.223 NA
ATOM     19  C   UNL     1     -13.966   5.684  22.038  0.00  0.00    +0.216 A 
ATOM     23  C   UNL     1     -13.929   7.950  21.656  0.00  0.00    +0.111 A 
ATOM     26  C   UNL     1     -12.100   6.618  21.074  0.00  0.00    +0.116 A 
ATOM     27  C   UNL     1     -12.661   7.878  21.116  0.00  0.00    +0.051 A 
ATOM     36  H   UNL     1     -14.122   3.688  22.488  0.00  0.00    +0.149 HD
BRANCH  23  29
ATOM      8  O   UNL     1     -14.813   9.660  23.025  0.00  0.00    -0.461 OA
ATOM     29  C   UNL     1     -14.632   9.201  21.760  0.00  0.00    +0.153 A 
ATOM     31  C   UNL     1     -15.182  10.065  20.845  0.00  0.00    +0.051 A 
ATOM     33  C   UNL     1     -15.737  11.128  21.596  0.00  0.00    +0.042 A 
ATOM     34  C   UNL     1     -15.487  10.835  22.916  0.00  0.00    +0.196 A 
ENDBRANCH  23  29
ENDBRANCH  16  10
BRANCH  15   9
ATOM      9  N   UNL     1     -16.066   2.764  27.187  0.00  0.00    -0.182 NA
ATOM     35  H   UNL     1     -15.091   3.078  27.108  0.00  0.00    +0.148 HD
BRANCH   9   1
ATOM      1  S   UNL     1     -16.539   1.841  28.531  0.00  0.00    +0.062 S 
ATOM      4  O   UNL     1     -15.881   0.548  28.486  0.00  0.00    -0.153 OA
ATOM      5  O   UNL     1     -17.980   1.921  28.670  0.00  0.00    -0.153 OA
BRANCH   1  20
ATOM     20  C   UNL     1     -15.839   2.761  29.870  0.00  0.00    +0.150 A 
ATOM     21  C   UNL     1     -16.035   4.130  29.952  0.00  0.00    +0.147 A 
ATOM     22  C   UNL     1     -15.097   2.081  30.821  0.00  0.00    +0.077 A 
ATOM     24  C   UNL     1     -14.536   2.789  31.884  0.00  0.00    +0.122 A 
ATOM     25  C   UNL     1     -15.474   4.838  31.014  0.00  0.00    +0.051 A 
ATOM     28  C   UNL     1     -14.725   4.168  31.981  0.00  0.00    +0.049 A 
BRANCH  21   6
ATOM      6  O   UNL     1     -16.764   4.806  29.019  0.00  0.00    -0.493 OA
ATOM     30  C   UNL     1     -16.910   6.212  29.205  0.00  0.00    +0.277 C 
ENDBRANCH  21   6
BRANCH  24   7
ATOM      7  O   UNL     1     -13.803   2.135  32.827  0.00  0.00    -0.495 OA
ATOM     32  C   UNL     1     -14.516   1.564  33.922  0.00  0.00    +0.277 C 
ENDBRANCH  24   7
ENDBRANCH   1  20
ENDBRANCH   9   1
ENDBRANCH  15   9
TORSDOF 7
ENDMDL
