MODEL 1
REMARK VINA RESULT:      -7.6      0.000      0.000
REMARK  Name = 45783260
REMARK  8 active torsions:
REMARK  status: ('A' for Active; 'I' for Inactive)
REMARK    1  A    between atoms: O_3  and  C_27
REMARK    2  A    between atoms: O_3  and  C_28
REMARK    3  A    between atoms: N_4  and  C_13
REMARK    4  A    between atoms: N_5  and  C_8
REMARK    5  A    between atoms: N_5  and  C_14
REMARK    6  A    between atoms: C_9  and  C_12
REMARK    7  A    between atoms: C_14  and  C_15
REMARK    8  A    between atoms: C_16  and  C_19
REMARK                            x       y       z     vdW  Elec       q    Type
REMARK                         _______ _______ _______ _____ _____    ______ ____
ROOT
ATOM      4  N   UNL     1      11.645   6.632  21.607  0.00  0.00    -0.293 NA
ATOM      8  C   UNL     1      10.400   8.679  21.559  0.00  0.00    +0.070 C 
ATOM      9  C   UNL     1      12.004   7.395  20.395  0.00  0.00    +0.147 C 
ATOM     10  C   UNL     1      11.708   8.841  20.800  0.00  0.00    +0.048 C 
ATOM     11  C   UNL     1      10.584   7.366  22.317  0.00  0.00    +0.103 C 
ATOM     13  C   UNL     1      11.276   5.251  21.324  0.00  0.00    +0.105 C 
ENDROOT
BRANCH   9  12
ATOM      2  O   UNL     1      13.680   7.351  18.618  0.00  0.00    -0.336 OA
ATOM      6  N   UNL     1      14.494   6.900  20.655  0.00  0.00    -0.190 NA
ATOM      7  N   UNL     1      15.051   7.125  18.449  0.00  0.00    -0.056 NA
ATOM     12  C   UNL     1      13.435   7.200  19.947  0.00  0.00    +0.245 A 
ATOM     16  C   UNL     1      15.461   6.865  19.694  0.00  0.00    +0.202 A 
BRANCH  16  19
ATOM     19  C   UNL     1      16.828   6.567  20.010  0.00  0.00    +0.023 A 
ATOM     22  C   UNL     1      17.537   5.644  19.241  0.00  0.00    +0.015 A 
ATOM     23  C   UNL     1      17.449   7.201  21.087  0.00  0.00    +0.015 A 
ATOM     25  C   UNL     1      18.866   5.353  19.550  0.00  0.00    +0.046 A 
ATOM     26  C   UNL     1      18.778   6.910  21.395  0.00  0.00    +0.046 A 
ATOM     27  C   UNL     1      19.486   5.987  20.627  0.00  0.00    +0.120 A 
BRANCH  27   3
ATOM      3  O   UNL     1      20.783   5.705  20.928  0.00  0.00    -0.495 OA
ATOM     28  C   UNL     1      21.116   5.581  22.311  0.00  0.00    +0.277 C 
ENDBRANCH  27   3
ENDBRANCH  16  19
ENDBRANCH   9  12
BRANCH   8   5
ATOM      5  N   UNL     1      10.087   9.813  22.411  0.00  0.00    -0.308 NA
ATOM     29  H   UNL     1       9.447   9.517  23.148  0.00  0.00    +0.123 HD
BRANCH   5  14
ATOM     14  C   UNL     1      11.297  10.372  23.005  0.00  0.00    +0.116 C 
BRANCH  14  15
ATOM      1  F   UNL     1      10.356  15.419  25.327  0.00  0.00    -0.205 F 
ATOM     15  C   UNL     1      11.045  11.720  23.626  0.00  0.00    -0.033 A 
ATOM     17  C   UNL     1      10.993  11.850  25.013  0.00  0.00    +0.008 A 
ATOM     18  C   UNL     1      10.864  12.839  22.813  0.00  0.00    +0.008 A 
ATOM     20  C   UNL     1      10.760  13.100  25.588  0.00  0.00    +0.038 A 
ATOM     21  C   UNL     1      10.631  14.089  23.387  0.00  0.00    +0.038 A 
ATOM     24  C   UNL     1      10.579  14.219  24.776  0.00  0.00    +0.123 A 
ENDBRANCH  14  15
ENDBRANCH   5  14
ENDBRANCH   8   5
TORSDOF 6
ENDMDL
MODEL 2
REMARK VINA RESULT:      -7.3      5.582     11.728
REMARK  Name = 45783260
REMARK  8 active torsions:
REMARK  status: ('A' for Active; 'I' for Inactive)
REMARK    1  A    between atoms: O_3  and  C_27
REMARK    2  A    between atoms: O_3  and  C_28
REMARK    3  A    between atoms: N_4  and  C_13
REMARK    4  A    between atoms: N_5  and  C_8
REMARK    5  A    between atoms: N_5  and  C_14
REMARK    6  A    between atoms: C_9  and  C_12
REMARK    7  A    between atoms: C_14  and  C_15
REMARK    8  A    between atoms: C_16  and  C_19
REMARK                            x       y       z     vdW  Elec       q    Type
REMARK                         _______ _______ _______ _____ _____    ______ ____
ROOT
ATOM      4  N   UNL     1      19.768   6.253  21.945  0.00  0.00    -0.293 NA
ATOM      8  C   UNL     1      21.445   4.890  20.908  0.00  0.00    +0.070 C 
ATOM      9  C   UNL     1      19.527   6.203  20.488  0.00  0.00    +0.147 C 
ATOM     10  C   UNL     1      20.169   4.876  20.080  0.00  0.00    +0.048 C 
ATOM     11  C   UNL     1      21.006   5.510  22.233  0.00  0.00    +0.103 C 
ATOM     13  C   UNL     1      19.795   7.611  22.473  0.00  0.00    +0.105 C 
ENDROOT
BRANCH   9  12
ATOM      2  O   UNL     1      17.714   5.685  18.936  0.00  0.00    -0.336 OA
ATOM      6  N   UNL     1      17.073   6.858  20.733  0.00  0.00    -0.190 NA
ATOM      7  N   UNL     1      16.336   5.891  18.796  0.00  0.00    -0.056 NA
ATOM     12  C   UNL     1      18.067   6.285  20.104  0.00  0.00    +0.245 A 
ATOM     16  C   UNL     1      16.032   6.590  19.893  0.00  0.00    +0.202 A 
BRANCH  16  19
ATOM     19  C   UNL     1      14.699   7.033  20.180  0.00  0.00    +0.023 A 
ATOM     22  C   UNL     1      14.347   7.392  21.481  0.00  0.00    +0.015 A 
ATOM     23  C   UNL     1      13.752   7.104  19.157  0.00  0.00    +0.015 A 
ATOM     25  C   UNL     1      13.049   7.821  21.761  0.00  0.00    +0.046 A 
ATOM     26  C   UNL     1      12.454   7.533  19.437  0.00  0.00    +0.046 A 
ATOM     27  C   UNL     1      12.103   7.892  20.737  0.00  0.00    +0.120 A 
BRANCH  27   3
ATOM      3  O   UNL     1      10.837   8.312  21.008  0.00  0.00    -0.495 OA
ATOM     28  C   UNL     1      10.572   8.759  22.338  0.00  0.00    +0.277 C 
ENDBRANCH  27   3
ENDBRANCH  16  19
ENDBRANCH   9  12
BRANCH   8   5
ATOM      5  N   UNL     1      22.055   3.579  21.044  0.00  0.00    -0.308 NA
ATOM     29  H   UNL     1      22.913   3.546  20.494  0.00  0.00    +0.123 HD
BRANCH   5  14
ATOM     14  C   UNL     1      22.353   3.281  22.440  0.00  0.00    +0.116 C 
BRANCH  14  15
ATOM      1  F   UNL     1      26.327  -0.681  22.940  0.00  0.00    -0.205 F 
ATOM     15  C   UNL     1      23.415   2.222  22.574  0.00  0.00    -0.033 A 
ATOM     17  C   UNL     1      23.676   1.650  23.819  0.00  0.00    +0.008 A 
ATOM     18  C   UNL     1      24.138   1.814  21.454  0.00  0.00    +0.008 A 
ATOM     20  C   UNL     1      24.659   0.669  23.942  0.00  0.00    +0.038 A 
ATOM     21  C   UNL     1      25.123   0.835  21.577  0.00  0.00    +0.038 A 
ATOM     24  C   UNL     1      25.383   0.261  22.822  0.00  0.00    +0.123 A 
ENDBRANCH  14  15
ENDBRANCH   5  14
ENDBRANCH   8   5
TORSDOF 6
ENDMDL
MODEL 3
REMARK VINA RESULT:      -7.0     27.279     29.884
REMARK  Name = 45783260
REMARK  8 active torsions:
REMARK  status: ('A' for Active; 'I' for Inactive)
REMARK    1  A    between atoms: O_3  and  C_27
REMARK    2  A    between atoms: O_3  and  C_28
REMARK    3  A    between atoms: N_4  and  C_13
REMARK    4  A    between atoms: N_5  and  C_8
REMARK    5  A    between atoms: N_5  and  C_14
REMARK    6  A    between atoms: C_9  and  C_12
REMARK    7  A    between atoms: C_14  and  C_15
REMARK    8  A    between atoms: C_16  and  C_19
REMARK                            x       y       z     vdW  Elec       q    Type
REMARK                         _______ _______ _______ _____ _____    ______ ____
ROOT
ATOM      4  N   UNL     1      -6.070 -11.850  16.953  0.00  0.00    -0.293 NA
ATOM      8  C   UNL     1      -4.090 -10.606  16.427  0.00  0.00    +0.070 C 
ATOM      9  C   UNL     1      -6.196 -10.480  17.489  0.00  0.00    +0.147 C 
ATOM     10  C   UNL     1      -5.278  -9.668  16.573  0.00  0.00    +0.048 C 
ATOM     11  C   UNL     1      -4.733 -11.990  16.353  0.00  0.00    +0.103 C 
ATOM     13  C   UNL     1      -6.349 -12.880  17.945  0.00  0.00    +0.105 C 
ENDROOT
BRANCH   9  12
ATOM      2  O   UNL     1      -8.432 -10.447  18.471  0.00  0.00    -0.336 OA
ATOM      6  N   UNL     1      -8.185  -9.081  16.714  0.00  0.00    -0.190 NA
ATOM      7  N   UNL     1      -9.671  -9.822  18.286  0.00  0.00    -0.056 NA
ATOM     12  C   UNL     1      -7.613  -9.953  17.505  0.00  0.00    +0.245 A 
ATOM     16  C   UNL     1      -9.446  -9.033  17.232  0.00  0.00    +0.202 A 
BRANCH  16  19
ATOM     19  C   UNL     1     -10.458  -8.184  16.674  0.00  0.00    +0.023 A 
ATOM     22  C   UNL     1     -10.100  -6.988  16.050  0.00  0.00    +0.015 A 
ATOM     23  C   UNL     1     -11.801  -8.552  16.757  0.00  0.00    +0.015 A 
ATOM     25  C   UNL     1     -11.085  -6.161  15.509  0.00  0.00    +0.046 A 
ATOM     26  C   UNL     1     -12.786  -7.725  16.216  0.00  0.00    +0.046 A 
ATOM     27  C   UNL     1     -12.428  -6.530  15.592  0.00  0.00    +0.120 A 
BRANCH  27   3
ATOM      3  O   UNL     1     -13.389  -5.725  15.064  0.00  0.00    -0.495 OA
ATOM     28  C   UNL     1     -13.211  -5.301  13.713  0.00  0.00    +0.277 C 
ENDBRANCH  27   3
ENDBRANCH  16  19
ENDBRANCH   9  12
BRANCH   8   5
ATOM      5  N   UNL     1      -3.243 -10.288  15.290  0.00  0.00    -0.308 NA
ATOM     29  H   UNL     1      -2.266 -10.293  15.584  0.00  0.00    +0.123 HD
BRANCH   5  14
ATOM     14  C   UNL     1      -3.438 -11.245  14.208  0.00  0.00    +0.116 C 
BRANCH  14  15
ATOM      1  F   UNL     1      -3.589  -8.719   9.174  0.00  0.00    -0.205 F 
ATOM     15  C   UNL     1      -3.479 -10.570  12.862  0.00  0.00    -0.033 A 
ATOM     17  C   UNL     1      -4.697 -10.146  12.332  0.00  0.00    +0.008 A 
ATOM     18  C   UNL     1      -2.299 -10.370  12.146  0.00  0.00    +0.008 A 
ATOM     20  C   UNL     1      -4.734  -9.520  11.086  0.00  0.00    +0.038 A 
ATOM     21  C   UNL     1      -2.335  -9.745  10.900  0.00  0.00    +0.038 A 
ATOM     24  C   UNL     1      -3.554  -9.320  10.370  0.00  0.00    +0.123 A 
ENDBRANCH  14  15
ENDBRANCH   5  14
ENDBRANCH   8   5
TORSDOF 6
ENDMDL
MODEL 4
REMARK VINA RESULT:      -6.9     26.734     30.237
REMARK  Name = 45783260
REMARK  8 active torsions:
REMARK  status: ('A' for Active; 'I' for Inactive)
REMARK    1  A    between atoms: O_3  and  C_27
REMARK    2  A    between atoms: O_3  and  C_28
REMARK    3  A    between atoms: N_4  and  C_13
REMARK    4  A    between atoms: N_5  and  C_8
REMARK    5  A    between atoms: N_5  and  C_14
REMARK    6  A    between atoms: C_9  and  C_12
REMARK    7  A    between atoms: C_14  and  C_15
REMARK    8  A    between atoms: C_16  and  C_19
REMARK                            x       y       z     vdW  Elec       q    Type
REMARK                         _______ _______ _______ _____ _____    ______ ____
ROOT
ATOM      4  N   UNL     1      -7.595 -12.987  17.749  0.00  0.00    -0.293 NA
ATOM      8  C   UNL     1      -5.393 -12.507  18.566  0.00  0.00    +0.070 C 
ATOM      9  C   UNL     1      -7.685 -12.017  18.859  0.00  0.00    +0.147 C 
ATOM     10  C   UNL     1      -6.319 -11.329  18.824  0.00  0.00    +0.048 C 
ATOM     11  C   UNL     1      -6.185 -13.379  17.591  0.00  0.00    +0.103 C 
ATOM     13  C   UNL     1      -8.478 -14.134  17.920  0.00  0.00    +0.105 C 
ENDROOT
BRANCH   9  12
ATOM      2  O   UNL     1      -9.668 -10.943  19.797  0.00  0.00    -0.336 OA
ATOM      6  N   UNL     1      -9.149 -10.258  17.728  0.00  0.00    -0.190 NA
ATOM      7  N   UNL     1     -10.634  -9.992  19.447  0.00  0.00    -0.056 NA
ATOM     12  C   UNL     1      -8.831 -11.039  18.730  0.00  0.00    +0.245 A 
ATOM     16  C   UNL     1     -10.260  -9.636  18.214  0.00  0.00    +0.202 A 
BRANCH  16  19
ATOM     19  C   UNL     1     -10.976  -8.660  17.443  0.00  0.00    +0.023 A 
ATOM     22  C   UNL     1     -10.360  -7.457  17.096  0.00  0.00    +0.015 A 
ATOM     23  C   UNL     1     -12.288  -8.913  17.043  0.00  0.00    +0.015 A 
ATOM     25  C   UNL     1     -11.056  -6.507  16.348  0.00  0.00    +0.046 A 
ATOM     26  C   UNL     1     -12.984  -7.963  16.295  0.00  0.00    +0.046 A 
ATOM     27  C   UNL     1     -12.368  -6.761  15.948  0.00  0.00    +0.120 A 
BRANCH  27   3
ATOM      3  O   UNL     1     -13.048  -5.835  15.217  0.00  0.00    -0.495 OA
ATOM     28  C   UNL     1     -12.471  -5.439  13.973  0.00  0.00    +0.277 C 
ENDBRANCH  27   3
ENDBRANCH  16  19
ENDBRANCH   9  12
BRANCH   8   5
ATOM      5  N   UNL     1      -4.085 -12.112  18.074  0.00  0.00    -0.308 NA
ATOM     29  H   UNL     1      -3.781 -12.769  17.354  0.00  0.00    +0.123 HD
BRANCH   5  14
ATOM     14  C   UNL     1      -4.116 -10.761  17.527  0.00  0.00    +0.116 C 
BRANCH  14  15
ATOM      1  F   UNL     1      -1.627 -10.483  12.480  0.00  0.00    -0.205 F 
ATOM     15  C   UNL     1      -3.451 -10.687  16.178  0.00  0.00    -0.033 A 
ATOM     17  C   UNL     1      -2.067 -10.532  16.091  0.00  0.00    +0.008 A 
ATOM     18  C   UNL     1      -4.217 -10.771  15.016  0.00  0.00    +0.008 A 
ATOM     20  C   UNL     1      -1.451 -10.463  14.841  0.00  0.00    +0.038 A 
ATOM     21  C   UNL     1      -3.602 -10.702  13.767  0.00  0.00    +0.038 A 
ATOM     24  C   UNL     1      -2.218 -10.548  13.679  0.00  0.00    +0.123 A 
ENDBRANCH  14  15
ENDBRANCH   5  14
ENDBRANCH   8   5
TORSDOF 6
ENDMDL
MODEL 5
REMARK VINA RESULT:      -6.9     26.486     29.410
REMARK  Name = 45783260
REMARK  8 active torsions:
REMARK  status: ('A' for Active; 'I' for Inactive)
REMARK    1  A    between atoms: O_3  and  C_27
REMARK    2  A    between atoms: O_3  and  C_28
REMARK    3  A    between atoms: N_4  and  C_13
REMARK    4  A    between atoms: N_5  and  C_8
REMARK    5  A    between atoms: N_5  and  C_14
REMARK    6  A    between atoms: C_9  and  C_12
REMARK    7  A    between atoms: C_14  and  C_15
REMARK    8  A    between atoms: C_16  and  C_19
REMARK                            x       y       z     vdW  Elec       q    Type
REMARK                         _______ _______ _______ _____ _____    ______ ____
ROOT
ATOM      4  N   UNL     1     -12.291   8.707  33.716  0.00  0.00    -0.293 NA
ATOM      8  C   UNL     1     -13.255  10.156  32.067  0.00  0.00    +0.070 C 
ATOM      9  C   UNL     1     -13.658   8.246  33.397  0.00  0.00    +0.147 C 
ATOM     10  C   UNL     1     -13.872   8.770  31.975  0.00  0.00    +0.048 C 
ATOM     11  C   UNL     1     -12.035   9.947  32.964  0.00  0.00    +0.103 C 
ATOM     13  C   UNL     1     -12.061   8.864  35.146  0.00  0.00    +0.105 C 
ENDROOT
BRANCH   9  12
ATOM      2  O   UNL     1     -13.990   6.240  34.750  0.00  0.00    -0.336 OA
ATOM      6  N   UNL     1     -13.874   5.849  32.548  0.00  0.00    -0.190 NA
ATOM      7  N   UNL     1     -14.139   4.857  34.591  0.00  0.00    -0.056 NA
ATOM     12  C   UNL     1     -13.840   6.749  33.498  0.00  0.00    +0.245 A 
ATOM     16  C   UNL     1     -14.060   4.705  33.266  0.00  0.00    +0.202 A 
BRANCH  16  19
ATOM     19  C   UNL     1     -14.163   3.424  32.629  0.00  0.00    +0.023 A 
ATOM     22  C   UNL     1     -13.724   3.260  31.315  0.00  0.00    +0.015 A 
ATOM     23  C   UNL     1     -14.704   2.341  33.323  0.00  0.00    +0.015 A 
ATOM     25  C   UNL     1     -13.826   2.015  30.695  0.00  0.00    +0.046 A 
ATOM     26  C   UNL     1     -14.807   1.096  32.703  0.00  0.00    +0.046 A 
ATOM     27  C   UNL     1     -14.368   0.933  31.390  0.00  0.00    +0.120 A 
BRANCH  27   3
ATOM      3  O   UNL     1     -14.467  -0.283  30.786  0.00  0.00    -0.495 OA
ATOM     28  C   UNL     1     -13.621  -0.521  29.661  0.00  0.00    +0.277 C 
ENDBRANCH  27   3
ENDBRANCH  16  19
ENDBRANCH   9  12
BRANCH   8   5
ATOM      5  N   UNL     1     -12.941  10.732  30.771  0.00  0.00    -0.308 NA
ATOM     29  H   UNL     1     -12.645  11.700  30.893  0.00  0.00    +0.123 HD
BRANCH   5  14
ATOM     14  C   UNL     1     -11.888   9.976  30.102  0.00  0.00    +0.116 C 
BRANCH  14  15
ATOM      1  F   UNL     1     -11.497  11.303  24.640  0.00  0.00    -0.205 F 
ATOM     15  C   UNL     1     -11.783  10.330  28.643  0.00  0.00    -0.033 A 
ATOM     17  C   UNL     1     -10.747   9.806  27.870  0.00  0.00    +0.008 A 
ATOM     18  C   UNL     1     -12.722  11.183  28.063  0.00  0.00    +0.008 A 
ATOM     20  C   UNL     1     -10.650  10.135  26.519  0.00  0.00    +0.038 A 
ATOM     21  C   UNL     1     -12.626  11.513  26.711  0.00  0.00    +0.038 A 
ATOM     24  C   UNL     1     -11.589  10.988  25.939  0.00  0.00    +0.123 A 
ENDBRANCH  14  15
ENDBRANCH   5  14
ENDBRANCH   8   5
TORSDOF 6
ENDMDL
MODEL 6
REMARK VINA RESULT:      -6.8     27.091     29.862
REMARK  Name = 45783260
REMARK  8 active torsions:
REMARK  status: ('A' for Active; 'I' for Inactive)
REMARK    1  A    between atoms: O_3  and  C_27
REMARK    2  A    between atoms: O_3  and  C_28
REMARK    3  A    between atoms: N_4  and  C_13
REMARK    4  A    between atoms: N_5  and  C_8
REMARK    5  A    between atoms: N_5  and  C_14
REMARK    6  A    between atoms: C_9  and  C_12
REMARK    7  A    between atoms: C_14  and  C_15
REMARK    8  A    between atoms: C_16  and  C_19
REMARK                            x       y       z     vdW  Elec       q    Type
REMARK                         _______ _______ _______ _____ _____    ______ ____
ROOT
ATOM      4  N   UNL     1      -4.800 -12.601  16.273  0.00  0.00    -0.293 NA
ATOM      8  C   UNL     1      -2.994 -11.155  15.642  0.00  0.00    +0.070 C 
ATOM      9  C   UNL     1      -4.525 -11.652  17.371  0.00  0.00    +0.147 C 
ATOM     10  C   UNL     1      -3.901 -10.458  16.644  0.00  0.00    +0.048 C 
ATOM     11  C   UNL     1      -3.809 -12.374  15.208  0.00  0.00    +0.103 C 
ATOM     13  C   UNL     1      -4.839 -13.989  16.714  0.00  0.00    +0.105 C 
ENDROOT
BRANCH   9  12
ATOM      2  O   UNL     1      -5.549 -10.999  19.490  0.00  0.00    -0.336 OA
ATOM      6  N   UNL     1      -6.994 -11.157  17.786  0.00  0.00    -0.190 NA
ATOM      7  N   UNL     1      -6.807 -10.675  20.013  0.00  0.00    -0.056 NA
ATOM     12  C   UNL     1      -5.749 -11.269  18.172  0.00  0.00    +0.245 A 
ATOM     16  C   UNL     1      -7.606 -10.791  18.949  0.00  0.00    +0.202 A 
BRANCH  16  19
ATOM     19  C   UNL     1      -9.018 -10.547  19.014  0.00  0.00    +0.023 A 
ATOM     22  C   UNL     1      -9.621  -9.688  18.094  0.00  0.00    +0.015 A 
ATOM     23  C   UNL     1      -9.788 -11.167  19.998  0.00  0.00    +0.015 A 
ATOM     25  C   UNL     1     -10.994  -9.449  18.158  0.00  0.00    +0.046 A 
ATOM     26  C   UNL     1     -11.161 -10.928  20.062  0.00  0.00    +0.046 A 
ATOM     27  C   UNL     1     -11.764 -10.070  19.143  0.00  0.00    +0.120 A 
BRANCH  27   3
ATOM      3  O   UNL     1     -13.103  -9.838  19.206  0.00  0.00    -0.495 OA
ATOM     28  C   UNL     1     -13.651  -9.543  20.491  0.00  0.00    +0.277 C 
ENDBRANCH  27   3
ENDBRANCH  16  19
ENDBRANCH   9  12
BRANCH   8   5
ATOM      5  N   UNL     1      -2.587 -10.297  14.543  0.00  0.00    -0.308 NA
ATOM     29  H   UNL     1      -1.656  -9.925  14.732  0.00  0.00    +0.123 HD
BRANCH   5  14
ATOM     14  C   UNL     1      -2.580 -11.028  13.281  0.00  0.00    +0.116 C 
BRANCH  14  15
ATOM      1  F   UNL     1      -5.296  -8.226   9.218  0.00  0.00    -0.205 F 
ATOM     15  C   UNL     1      -3.306 -10.279  12.195  0.00  0.00    -0.033 A 
ATOM     17  C   UNL     1      -2.619  -9.871  11.052  0.00  0.00    +0.008 A 
ATOM     18  C   UNL     1      -4.664  -9.993  12.333  0.00  0.00    +0.008 A 
ATOM     20  C   UNL     1      -3.292  -9.177  10.046  0.00  0.00    +0.038 A 
ATOM     21  C   UNL     1      -5.336  -9.298  11.328  0.00  0.00    +0.038 A 
ATOM     24  C   UNL     1      -4.650  -8.891  10.183  0.00  0.00    +0.123 A 
ENDBRANCH  14  15
ENDBRANCH   5  14
ENDBRANCH   8   5
TORSDOF 6
ENDMDL
MODEL 7
REMARK VINA RESULT:      -6.8      5.454     11.526
REMARK  Name = 45783260
REMARK  8 active torsions:
REMARK  status: ('A' for Active; 'I' for Inactive)
REMARK    1  A    between atoms: O_3  and  C_27
REMARK    2  A    between atoms: O_3  and  C_28
REMARK    3  A    between atoms: N_4  and  C_13
REMARK    4  A    between atoms: N_5  and  C_8
REMARK    5  A    between atoms: N_5  and  C_14
REMARK    6  A    between atoms: C_9  and  C_12
REMARK    7  A    between atoms: C_14  and  C_15
REMARK    8  A    between atoms: C_16  and  C_19
REMARK                            x       y       z     vdW  Elec       q    Type
REMARK                         _______ _______ _______ _____ _____    ______ ____
ROOT
ATOM      4  N   UNL     1      19.859   6.224  21.895  0.00  0.00    -0.293 NA
ATOM      8  C   UNL     1      21.455   4.766  20.857  0.00  0.00    +0.070 C 
ATOM      9  C   UNL     1      19.568   6.127  20.450  0.00  0.00    +0.147 C 
ATOM     10  C   UNL     1      20.152   4.764  20.073  0.00  0.00    +0.048 C 
ATOM     11  C   UNL     1      21.081   5.451  22.172  0.00  0.00    +0.103 C 
ATOM     13  C   UNL     1      19.947   7.599  22.369  0.00  0.00    +0.105 C 
ENDROOT
BRANCH   9  12
ATOM      2  O   UNL     1      17.706   5.701  18.927  0.00  0.00    -0.336 OA
ATOM      6  N   UNL     1      17.129   6.800  20.791  0.00  0.00    -0.190 NA
ATOM      7  N   UNL     1      16.328   5.930  18.834  0.00  0.00    -0.056 NA
ATOM     12  C   UNL     1      18.099   6.244  20.110  0.00  0.00    +0.245 A 
ATOM     16  C   UNL     1      16.063   6.582  19.969  0.00  0.00    +0.202 A 
BRANCH  16  19
ATOM     19  C   UNL     1      14.744   7.028  20.312  0.00  0.00    +0.023 A 
ATOM     22  C   UNL     1      14.504   7.607  21.559  0.00  0.00    +0.015 A 
ATOM     23  C   UNL     1      13.698   6.882  19.400  0.00  0.00    +0.015 A 
ATOM     25  C   UNL     1      13.221   8.039  21.894  0.00  0.00    +0.046 A 
ATOM     26  C   UNL     1      12.415   7.314  19.734  0.00  0.00    +0.046 A 
ATOM     27  C   UNL     1      12.176   7.892  20.980  0.00  0.00    +0.120 A 
BRANCH  27   3
ATOM      3  O   UNL     1      10.924   8.314  21.305  0.00  0.00    -0.495 OA
ATOM     28  C   UNL     1      10.161   7.477  22.174  0.00  0.00    +0.277 C 
ENDBRANCH  27   3
ENDBRANCH  16  19
ENDBRANCH   9  12
BRANCH   8   5
ATOM      5  N   UNL     1      22.026   3.441  21.024  0.00  0.00    -0.308 NA
ATOM     29  H   UNL     1      22.172   3.018  20.108  0.00  0.00    +0.123 HD
BRANCH   5  14
ATOM     14  C   UNL     1      23.291   3.503  21.747  0.00  0.00    +0.116 C 
BRANCH  14  15
ATOM      1  F   UNL     1      27.554   5.016  18.388  0.00  0.00    -0.205 F 
ATOM     15  C   UNL     1      24.430   3.907  20.849  0.00  0.00    -0.033 A 
ATOM     17  C   UNL     1      24.859   3.048  19.837  0.00  0.00    +0.008 A 
ATOM     18  C   UNL     1      25.057   5.140  21.030  0.00  0.00    +0.008 A 
ATOM     20  C   UNL     1      25.914   3.423  19.006  0.00  0.00    +0.038 A 
ATOM     21  C   UNL     1      26.113   5.515  20.199  0.00  0.00    +0.038 A 
ATOM     24  C   UNL     1      26.541   4.656  19.186  0.00  0.00    +0.123 A 
ENDBRANCH  14  15
ENDBRANCH   5  14
ENDBRANCH   8   5
TORSDOF 6
ENDMDL
MODEL 8
REMARK VINA RESULT:      -6.7     27.319     29.250
REMARK  Name = 45783260
REMARK  8 active torsions:
REMARK  status: ('A' for Active; 'I' for Inactive)
REMARK    1  A    between atoms: O_3  and  C_27
REMARK    2  A    between atoms: O_3  and  C_28
REMARK    3  A    between atoms: N_4  and  C_13
REMARK    4  A    between atoms: N_5  and  C_8
REMARK    5  A    between atoms: N_5  and  C_14
REMARK    6  A    between atoms: C_9  and  C_12
REMARK    7  A    between atoms: C_14  and  C_15
REMARK    8  A    between atoms: C_16  and  C_19
REMARK                            x       y       z     vdW  Elec       q    Type
REMARK                         _______ _______ _______ _____ _____    ______ ____
ROOT
ATOM      4  N   UNL     1      -4.260 -11.629  10.624  0.00  0.00    -0.293 NA
ATOM      8  C   UNL     1      -4.037  -9.762   9.137  0.00  0.00    +0.070 C 
ATOM      9  C   UNL     1      -3.301 -10.661  11.194  0.00  0.00    +0.147 C 
ATOM     10  C   UNL     1      -3.739  -9.336  10.566  0.00  0.00    +0.048 C 
ATOM     11  C   UNL     1      -4.679 -11.140   9.300  0.00  0.00    +0.103 C 
ATOM     13  C   UNL     1      -3.738 -12.989  10.578  0.00  0.00    +0.105 C 
ENDROOT
BRANCH   9  12
ATOM      2  O   UNL     1      -2.084 -10.498  13.305  0.00  0.00    -0.336 OA
ATOM      6  N   UNL     1      -4.305 -10.674  13.540  0.00  0.00    -0.190 NA
ATOM      7  N   UNL     1      -2.334 -10.477  14.683  0.00  0.00    -0.056 NA
ATOM     12  C   UNL     1      -3.299 -10.615  12.705  0.00  0.00    +0.245 A 
ATOM     16  C   UNL     1      -3.664 -10.586  14.741  0.00  0.00    +0.202 A 
BRANCH  16  19
ATOM     19  C   UNL     1      -4.383 -10.607  15.982  0.00  0.00    +0.023 A 
ATOM     22  C   UNL     1      -5.639 -10.005  16.072  0.00  0.00    +0.015 A 
ATOM     23  C   UNL     1      -3.826 -11.228  17.100  0.00  0.00    +0.015 A 
ATOM     25  C   UNL     1      -6.337 -10.024  17.280  0.00  0.00    +0.046 A 
ATOM     26  C   UNL     1      -4.524 -11.247  18.308  0.00  0.00    +0.046 A 
ATOM     27  C   UNL     1      -5.779 -10.645  18.397  0.00  0.00    +0.120 A 
BRANCH  27   3
ATOM      3  O   UNL     1      -6.460 -10.665  19.576  0.00  0.00    -0.495 OA
ATOM     28  C   UNL     1      -7.818 -11.101  19.534  0.00  0.00    +0.277 C 
ENDBRANCH  27   3
ENDBRANCH  16  19
ENDBRANCH   9  12
BRANCH   8   5
ATOM      5  N   UNL     1      -4.862  -8.810   8.415  0.00  0.00    -0.308 NA
ATOM     29  H   UNL     1      -4.293  -8.329   7.718  0.00  0.00    +0.123 HD
BRANCH   5  14
ATOM     14  C   UNL     1      -5.983  -9.476   7.761  0.00  0.00    +0.116 C 
BRANCH  14  15
ATOM      1  F   UNL     1     -10.347  -5.994   7.008  0.00  0.00    -0.205 F 
ATOM     15  C   UNL     1      -7.149  -8.546   7.560  0.00  0.00    -0.033 A 
ATOM     17  C   UNL     1      -7.645  -7.808   8.634  0.00  0.00    +0.008 A 
ATOM     18  C   UNL     1      -7.734  -8.422   6.300  0.00  0.00    +0.008 A 
ATOM     20  C   UNL     1      -8.725  -6.945   8.448  0.00  0.00    +0.038 A 
ATOM     21  C   UNL     1      -8.815  -7.561   6.113  0.00  0.00    +0.038 A 
ATOM     24  C   UNL     1      -9.310  -6.822   7.187  0.00  0.00    +0.123 A 
ENDBRANCH  14  15
ENDBRANCH   5  14
ENDBRANCH   8   5
TORSDOF 6
ENDMDL
MODEL 9
REMARK VINA RESULT:      -6.5      1.850      2.433
REMARK  Name = 45783260
REMARK  8 active torsions:
REMARK  status: ('A' for Active; 'I' for Inactive)
REMARK    1  A    between atoms: O_3  and  C_27
REMARK    2  A    between atoms: O_3  and  C_28
REMARK    3  A    between atoms: N_4  and  C_13
REMARK    4  A    between atoms: N_5  and  C_8
REMARK    5  A    between atoms: N_5  and  C_14
REMARK    6  A    between atoms: C_9  and  C_12
REMARK    7  A    between atoms: C_14  and  C_15
REMARK    8  A    between atoms: C_16  and  C_19
REMARK                            x       y       z     vdW  Elec       q    Type
REMARK                         _______ _______ _______ _____ _____    ______ ____
ROOT
ATOM      4  N   UNL     1      12.356   7.606  21.602  0.00  0.00    -0.293 NA
ATOM      8  C   UNL     1      12.163   9.910  22.236  0.00  0.00    +0.070 C 
ATOM      9  C   UNL     1      13.341   8.406  20.847  0.00  0.00    +0.147 C 
ATOM     10  C   UNL     1      13.576   9.611  21.760  0.00  0.00    +0.048 C 
ATOM     11  C   UNL     1      11.546   8.524  22.420  0.00  0.00    +0.103 C 
ATOM     13  C   UNL     1      11.540   6.751  20.749  0.00  0.00    +0.105 C 
ENDROOT
BRANCH   9  12
ATOM      2  O   UNL     1      14.576   6.822  19.458  0.00  0.00    -0.336 OA
ATOM      6  N   UNL     1      15.779   7.706  21.128  0.00  0.00    -0.190 NA
ATOM      7  N   UNL     1      15.854   6.257  19.360  0.00  0.00    -0.056 NA
ATOM     12  C   UNL     1      14.618   7.664  20.525  0.00  0.00    +0.245 A 
ATOM     16  C   UNL     1      16.505   6.828  20.378  0.00  0.00    +0.202 A 
BRANCH  16  19
ATOM     19  C   UNL     1      17.879   6.542  20.672  0.00  0.00    +0.023 A 
ATOM     22  C   UNL     1      18.538   7.245  21.681  0.00  0.00    +0.015 A 
ATOM     23  C   UNL     1      18.559   5.564  19.946  0.00  0.00    +0.015 A 
ATOM     25  C   UNL     1      19.875   6.969  21.966  0.00  0.00    +0.046 A 
ATOM     26  C   UNL     1      19.897   5.288  20.230  0.00  0.00    +0.046 A 
ATOM     27  C   UNL     1      20.554   5.990  21.240  0.00  0.00    +0.120 A 
BRANCH  27   3
ATOM      3  O   UNL     1      21.859   5.719  21.517  0.00  0.00    -0.495 OA
ATOM     28  C   UNL     1      22.380   6.225  22.746  0.00  0.00    +0.277 C 
ENDBRANCH  27   3
ENDBRANCH  16  19
ENDBRANCH   9  12
BRANCH   8   5
ATOM      5  N   UNL     1      12.122  10.737  23.429  0.00  0.00    -0.308 NA
ATOM     29  H   UNL     1      12.575  10.243  24.199  0.00  0.00    +0.123 HD
BRANCH   5  14
ATOM     14  C   UNL     1      12.788  12.015  23.205  0.00  0.00    +0.116 C 
BRANCH  14  15
ATOM      1  F   UNL     1       9.719  15.435  19.944  0.00  0.00    -0.205 F 
ATOM     15  C   UNL     1      11.968  12.929  22.334  0.00  0.00    -0.033 A 
ATOM     17  C   UNL     1      10.733  13.398  22.783  0.00  0.00    +0.008 A 
ATOM     18  C   UNL     1      12.441  13.305  21.077  0.00  0.00    +0.008 A 
ATOM     20  C   UNL     1       9.974  14.245  21.976  0.00  0.00    +0.038 A 
ATOM     21  C   UNL     1      11.682  14.151  20.269  0.00  0.00    +0.038 A 
ATOM     24  C   UNL     1      10.447  14.621  20.719  0.00  0.00    +0.123 A 
ENDBRANCH  14  15
ENDBRANCH   5  14
ENDBRANCH   8   5
TORSDOF 6
ENDMDL
MODEL 10
REMARK VINA RESULT:      -6.4     27.843     30.392
REMARK  Name = 45783260
REMARK  8 active torsions:
REMARK  status: ('A' for Active; 'I' for Inactive)
REMARK    1  A    between atoms: O_3  and  C_27
REMARK    2  A    between atoms: O_3  and  C_28
REMARK    3  A    between atoms: N_4  and  C_13
REMARK    4  A    between atoms: N_5  and  C_8
REMARK    5  A    between atoms: N_5  and  C_14
REMARK    6  A    between atoms: C_9  and  C_12
REMARK    7  A    between atoms: C_14  and  C_15
REMARK    8  A    between atoms: C_16  and  C_19
REMARK                            x       y       z     vdW  Elec       q    Type
REMARK                         _______ _______ _______ _____ _____    ______ ____
ROOT
ATOM      4  N   UNL     1      -9.332  -9.544   6.112  0.00  0.00    -0.293 NA
ATOM      8  C   UNL     1      -9.921  -7.221   6.069  0.00  0.00    +0.070 C 
ATOM      9  C   UNL     1      -8.109  -8.731   5.950  0.00  0.00    +0.147 C 
ATOM     10  C   UNL     1      -8.500  -7.394   6.583  0.00  0.00    +0.048 C 
ATOM     11  C   UNL     1     -10.492  -8.638   6.107  0.00  0.00    +0.103 C 
ATOM     13  C   UNL     1      -9.447 -10.605   5.120  0.00  0.00    +0.105 C 
ENDROOT
BRANCH   9  12
ATOM      2  O   UNL     1      -6.115 -10.133   5.793  0.00  0.00    -0.336 OA
ATOM      6  N   UNL     1      -6.431  -9.215   7.811  0.00  0.00    -0.190 NA
ATOM      7  N   UNL     1      -5.052 -10.571   6.592  0.00  0.00    -0.056 NA
ATOM     12  C   UNL     1      -6.879  -9.338   6.588  0.00  0.00    +0.245 A 
ATOM     16  C   UNL     1      -5.309  -9.989   7.766  0.00  0.00    +0.202 A 
BRANCH  16  19
ATOM     19  C   UNL     1      -4.463 -10.158   8.912  0.00  0.00    +0.023 A 
ATOM     22  C   UNL     1      -3.783  -9.063   9.447  0.00  0.00    +0.015 A 
ATOM     23  C   UNL     1      -4.319 -11.419   9.492  0.00  0.00    +0.015 A 
ATOM     25  C   UNL     1      -2.959  -9.228  10.560  0.00  0.00    +0.046 A 
ATOM     26  C   UNL     1      -3.495 -11.584  10.606  0.00  0.00    +0.046 A 
ATOM     27  C   UNL     1      -2.816 -10.489  11.140  0.00  0.00    +0.120 A 
BRANCH  27   3
ATOM      3  O   UNL     1      -2.013 -10.652  12.227  0.00  0.00    -0.495 OA
ATOM     28  C   UNL     1      -1.902 -11.971  12.761  0.00  0.00    +0.277 C 
ENDBRANCH  27   3
ENDBRANCH  16  19
ENDBRANCH   9  12
BRANCH   8   5
ATOM      5  N   UNL     1     -10.692  -6.253   6.830  0.00  0.00    -0.308 NA
ATOM     29  H   UNL     1     -11.486  -5.939   6.272  0.00  0.00    +0.123 HD
BRANCH   5  14
ATOM     14  C   UNL     1     -11.168  -6.830   8.082  0.00  0.00    +0.116 C 
BRANCH  14  15
ATOM      1  F   UNL     1     -12.160  -2.875  11.970  0.00  0.00    -0.205 F 
ATOM     15  C   UNL     1     -11.433  -5.773   9.121  0.00  0.00    -0.033 A 
ATOM     17  C   UNL     1     -12.130  -6.099  10.284  0.00  0.00    +0.008 A 
ATOM     18  C   UNL     1     -10.982  -4.469   8.920  0.00  0.00    +0.008 A 
ATOM     20  C   UNL     1     -12.376  -5.120  11.247  0.00  0.00    +0.038 A 
ATOM     21  C   UNL     1     -11.228  -3.489   9.882  0.00  0.00    +0.038 A 
ATOM     24  C   UNL     1     -11.925  -3.815  11.046  0.00  0.00    +0.123 A 
ENDBRANCH  14  15
ENDBRANCH   5  14
ENDBRANCH   8   5
TORSDOF 6
ENDMDL
