MODEL 1
REMARK VINA RESULT:      -6.9      0.000      0.000
REMARK  Name = 25339708
REMARK  11 active torsions:
REMARK  status: ('A' for Active; 'I' for Inactive)
REMARK    1  A    between atoms: O_1  and  C_14
REMARK    2  A    between atoms: N_5  and  C_10
REMARK    3  A    between atoms: N_6  and  C_26
REMARK    4  A    between atoms: C_7  and  C_15
REMARK    5  A    between atoms: C_9  and  C_17
REMARK    6  A    between atoms: C_9  and  C_18
REMARK    7  A    between atoms: C_14  and  C_20
REMARK    8  A    between atoms: C_15  and  C_19
REMARK    9  A    between atoms: C_19  and  C_22
REMARK   10  A    between atoms: C_21  and  C_23
REMARK   11  A    between atoms: C_26  and  C_29
REMARK                            x       y       z     vdW  Elec       q    Type
REMARK                         _______ _______ _______ _____ _____    ______ ____
ROOT
ATOM      7  C   UNL     1      10.251   6.865   4.779  0.00  0.00    -0.007 C 
ATOM      8  C   UNL     1      11.033   6.143   5.927  0.00  0.00    +0.005 C 
ATOM      9  C   UNL     1       9.922   5.660   6.942  0.00  0.00    -0.030 C 
ATOM     10  C   UNL     1       9.149   7.577   5.598  0.00  0.00    +0.080 C 
ATOM     11  C   UNL     1       8.667   6.502   6.584  0.00  0.00    +0.029 C 
ATOM     12  C   UNL     1      11.119   7.821   3.926  0.00  0.00    +0.012 C 
ATOM     13  C   UNL     1      12.098   7.046   6.597  0.00  0.00    +0.039 C 
ATOM     14  C   UNL     1      12.994   7.797   5.611  0.00  0.00    +0.064 C 
ATOM     16  C   UNL     1      12.120   8.665   4.705  0.00  0.00    +0.035 C 
ATOM     17  C   UNL     1       9.644   4.154   6.759  0.00  0.00    +0.011 C 
ATOM     18  C   UNL     1      10.259   5.852   8.435  0.00  0.00    +0.011 C 
ATOM     20  C   UNL     1      14.015   8.656   6.359  0.00  0.00    +0.041 C 
ENDROOT
BRANCH  10   5
ATOM      2  O   UNL     1       8.679  10.356   4.996  0.00  0.00    -0.270 OA
ATOM      5  N   UNL     1       8.049   8.130   4.820  0.00  0.00    -0.308 N 
ATOM     21  C   UNL     1       7.908   9.493   4.584  0.00  0.00    +0.244 C 
ATOM     34  H   UNL     1       7.309   7.494   4.545  0.00  0.00    +0.149 HD
BRANCH  21  23
ATOM     23  C   UNL     1       6.717   9.900   3.795  0.00  0.00    +0.037 A 
ATOM     24  C   UNL     1       5.717  10.669   4.389  0.00  0.00    +0.013 A 
ATOM     25  C   UNL     1       6.600   9.513   2.460  0.00  0.00    +0.013 A 
ATOM     27  C   UNL     1       4.599  11.051   3.647  0.00  0.00    +0.001 A 
ATOM     28  C   UNL     1       5.484   9.896   1.718  0.00  0.00    +0.001 A 
ATOM     30  C   UNL     1       4.482  10.666   2.312  0.00  0.00    +0.000 A 
ENDBRANCH  21  23
ENDBRANCH  10   5
BRANCH  14   1
ATOM      1  O   UNL     1      13.713   6.843   4.830  0.00  0.00    -0.389 OA
ATOM     35  H   UNL     1      13.171   6.038   4.761  0.00  0.00    +0.210 HD
ENDBRANCH  14   1
BRANCH   7  15
ATOM     15  C   UNL     1       9.643   5.850   3.775  0.00  0.00    +0.018 C 
BRANCH  15  19
ATOM     19  C   UNL     1      10.153   6.123   2.375  0.00  0.00    +0.096 C 
BRANCH  19  22
ATOM      3  O   UNL     1      10.064   4.296   0.787  0.00  0.00    -0.276 OA
ATOM      6  N   UNL     1      11.836   4.407   2.281  0.00  0.00    -0.308 N 
ATOM     22  C   UNL     1      10.651   4.851   1.712  0.00  0.00    +0.213 C 
ATOM     36  H   UNL     1      12.260   4.943   3.033  0.00  0.00    +0.149 HD
BRANCH   6  26
ATOM     26  C   UNL     1      12.512   3.223   1.832  0.00  0.00    +0.178 C 
BRANCH  26  29
ATOM      4  O   UNL     1      13.637   3.879  -0.225  0.00  0.00    -0.466 OA
ATOM     29  C   UNL     1      13.778   3.550   1.085  0.00  0.00    +0.122 A 
ATOM     31  C   UNL     1      15.103   3.589   1.453  0.00  0.00    +0.046 A 
ATOM     32  C   UNL     1      15.822   3.967   0.293  0.00  0.00    +0.041 A 
ATOM     33  C   UNL     1      14.884   4.133  -0.699  0.00  0.00    +0.195 A 
ENDBRANCH  26  29
ENDBRANCH   6  26
ENDBRANCH  19  22
ENDBRANCH  15  19
ENDBRANCH   7  15
TORSDOF 8
ENDMDL
MODEL 2
REMARK VINA RESULT:      -6.9     23.814     26.770
REMARK  Name = 25339708
REMARK  11 active torsions:
REMARK  status: ('A' for Active; 'I' for Inactive)
REMARK    1  A    between atoms: O_1  and  C_14
REMARK    2  A    between atoms: N_5  and  C_10
REMARK    3  A    between atoms: N_6  and  C_26
REMARK    4  A    between atoms: C_7  and  C_15
REMARK    5  A    between atoms: C_9  and  C_17
REMARK    6  A    between atoms: C_9  and  C_18
REMARK    7  A    between atoms: C_14  and  C_20
REMARK    8  A    between atoms: C_15  and  C_19
REMARK    9  A    between atoms: C_19  and  C_22
REMARK   10  A    between atoms: C_21  and  C_23
REMARK   11  A    between atoms: C_26  and  C_29
REMARK                            x       y       z     vdW  Elec       q    Type
REMARK                         _______ _______ _______ _____ _____    ______ ____
ROOT
ATOM      7  C   UNL     1      -6.204 -11.426  16.274  0.00  0.00    -0.007 C 
ATOM      8  C   UNL     1      -7.226 -12.324  17.049  0.00  0.00    +0.005 C 
ATOM      9  C   UNL     1      -7.403 -13.615  16.156  0.00  0.00    -0.030 C 
ATOM     10  C   UNL     1      -6.659 -11.682  14.818  0.00  0.00    +0.080 C 
ATOM     11  C   UNL     1      -6.869 -13.203  14.756  0.00  0.00    +0.029 C 
ATOM     12  C   UNL     1      -6.230  -9.935  16.689  0.00  0.00    +0.012 C 
ATOM     13  C   UNL     1      -8.571 -11.607  17.331  0.00  0.00    +0.039 C 
ATOM     14  C   UNL     1      -8.423 -10.196  17.902  0.00  0.00    +0.064 C 
ATOM     16  C   UNL     1      -7.613  -9.345  16.924  0.00  0.00    +0.035 C 
ATOM     17  C   UNL     1      -6.581 -14.785  16.734  0.00  0.00    +0.011 C 
ATOM     18  C   UNL     1      -8.848 -14.135  16.019  0.00  0.00    +0.011 C 
ATOM     20  C   UNL     1      -9.796  -9.571  18.152  0.00  0.00    +0.041 C 
ENDROOT
BRANCH  10   5
ATOM      2  O   UNL     1      -7.020  -9.423  13.065  0.00  0.00    -0.270 OA
ATOM      5  N   UNL     1      -5.742 -11.220  13.785  0.00  0.00    -0.308 N 
ATOM     21  C   UNL     1      -6.007 -10.114  12.986  0.00  0.00    +0.244 C 
ATOM     34  H   UNL     1      -4.940 -11.806  13.581  0.00  0.00    +0.149 HD
BRANCH  21  23
ATOM     23  C   UNL     1      -4.983  -9.788  11.960  0.00  0.00    +0.037 A 
ATOM     24  C   UNL     1      -5.308  -8.954  10.891  0.00  0.00    +0.013 A 
ATOM     25  C   UNL     1      -3.697 -10.317  12.067  0.00  0.00    +0.013 A 
ATOM     27  C   UNL     1      -4.346  -8.647   9.929  0.00  0.00    +0.001 A 
ATOM     28  C   UNL     1      -2.735 -10.010  11.106  0.00  0.00    +0.001 A 
ATOM     30  C   UNL     1      -3.060  -9.174  10.036  0.00  0.00    +0.000 A 
ENDBRANCH  21  23
ENDBRANCH  10   5
BRANCH  14   1
ATOM      1  O   UNL     1      -7.745 -10.281  19.156  0.00  0.00    -0.389 OA
ATOM     35  H   UNL     1      -8.401 -10.497  19.840  0.00  0.00    +0.210 HD
ENDBRANCH  14   1
BRANCH   7  15
ATOM     15  C   UNL     1      -4.743 -11.896  16.501  0.00  0.00    +0.018 C 
BRANCH  15  19
ATOM     19  C   UNL     1      -3.826 -10.703  16.676  0.00  0.00    +0.096 C 
BRANCH  19  22
ATOM      3  O   UNL     1      -1.586 -10.105  15.976  0.00  0.00    -0.276 OA
ATOM      6  N   UNL     1      -2.569 -12.017  15.101  0.00  0.00    -0.308 N 
ATOM     22  C   UNL     1      -2.534 -10.881  15.898  0.00  0.00    +0.213 C 
ATOM     36  H   UNL     1      -3.394 -12.611  15.115  0.00  0.00    +0.149 HD
BRANCH   6  26
ATOM     26  C   UNL     1      -1.469 -12.408  14.266  0.00  0.00    +0.178 C 
BRANCH  26  29
ATOM      4  O   UNL     1      -1.101 -14.696  13.520  0.00  0.00    -0.466 OA
ATOM     29  C   UNL     1      -1.831 -13.561  13.367  0.00  0.00    +0.122 A 
ATOM     31  C   UNL     1      -2.777 -13.723  12.382  0.00  0.00    +0.046 A 
ATOM     32  C   UNL     1      -2.618 -15.045  11.899  0.00  0.00    +0.041 A 
ATOM     33  C   UNL     1      -1.586 -15.594  12.625  0.00  0.00    +0.195 A 
ENDBRANCH  26  29
ENDBRANCH   6  26
ENDBRANCH  19  22
ENDBRANCH  15  19
ENDBRANCH   7  15
TORSDOF 8
ENDMDL
MODEL 3
REMARK VINA RESULT:      -6.9     23.675     26.993
REMARK  Name = 25339708
REMARK  11 active torsions:
REMARK  status: ('A' for Active; 'I' for Inactive)
REMARK    1  A    between atoms: O_1  and  C_14
REMARK    2  A    between atoms: N_5  and  C_10
REMARK    3  A    between atoms: N_6  and  C_26
REMARK    4  A    between atoms: C_7  and  C_15
REMARK    5  A    between atoms: C_9  and  C_17
REMARK    6  A    between atoms: C_9  and  C_18
REMARK    7  A    between atoms: C_14  and  C_20
REMARK    8  A    between atoms: C_15  and  C_19
REMARK    9  A    between atoms: C_19  and  C_22
REMARK   10  A    between atoms: C_21  and  C_23
REMARK   11  A    between atoms: C_26  and  C_29
REMARK                            x       y       z     vdW  Elec       q    Type
REMARK                         _______ _______ _______ _____ _____    ______ ____
ROOT
ATOM      7  C   UNL     1      -3.928 -11.585  12.648  0.00  0.00    -0.007 C 
ATOM      8  C   UNL     1      -3.378 -11.610  11.182  0.00  0.00    +0.005 C 
ATOM      9  C   UNL     1      -3.911 -10.279  10.518  0.00  0.00    -0.030 C 
ATOM     10  C   UNL     1      -5.332 -10.980  12.406  0.00  0.00    +0.080 C 
ATOM     11  C   UNL     1      -5.073  -9.816  11.438  0.00  0.00    +0.029 C 
ATOM     12  C   UNL     1      -3.949 -12.968  13.340  0.00  0.00    +0.012 C 
ATOM     13  C   UNL     1      -3.802 -12.877  10.397  0.00  0.00    +0.039 C 
ATOM     14  C   UNL     1      -3.598 -14.186  11.162  0.00  0.00    +0.064 C 
ATOM     16  C   UNL     1      -4.396 -14.131  12.465  0.00  0.00    +0.035 C 
ATOM     17  C   UNL     1      -2.792  -9.218  10.469  0.00  0.00    +0.011 C 
ATOM     18  C   UNL     1      -4.428 -10.420   9.071  0.00  0.00    +0.011 C 
ATOM     20  C   UNL     1      -4.037 -15.379  10.310  0.00  0.00    +0.041 C 
ENDROOT
BRANCH  10   5
ATOM      2  O   UNL     1      -7.399 -12.410  13.817  0.00  0.00    -0.270 OA
ATOM      5  N   UNL     1      -6.039 -10.542  13.602  0.00  0.00    -0.308 N 
ATOM     21  C   UNL     1      -7.027 -11.308  14.212  0.00  0.00    +0.244 C 
ATOM     34  H   UNL     1      -5.870  -9.594  13.920  0.00  0.00    +0.149 HD
BRANCH  21  23
ATOM     23  C   UNL     1      -7.672 -10.709  15.409  0.00  0.00    +0.037 A 
ATOM     24  C   UNL     1      -7.001  -9.735  16.148  0.00  0.00    +0.013 A 
ATOM     25  C   UNL     1      -8.948 -11.120  15.792  0.00  0.00    +0.013 A 
ATOM     27  C   UNL     1      -7.607  -9.172  17.271  0.00  0.00    +0.001 A 
ATOM     28  C   UNL     1      -9.555 -10.557  16.913  0.00  0.00    +0.001 A 
ATOM     30  C   UNL     1      -8.884  -9.582  17.653  0.00  0.00    +0.000 A 
ENDBRANCH  21  23
ENDBRANCH  10   5
BRANCH  14   1
ATOM      1  O   UNL     1      -2.207 -14.338  11.444  0.00  0.00    -0.389 OA
ATOM     35  H   UNL     1      -1.896 -13.523  11.874  0.00  0.00    +0.210 HD
ENDBRANCH  14   1
BRANCH   7  15
ATOM     15  C   UNL     1      -3.070 -10.674  13.565  0.00  0.00    +0.018 C 
BRANCH  15  19
ATOM     19  C   UNL     1      -2.142 -11.511  14.421  0.00  0.00    +0.096 C 
BRANCH  19  22
ATOM      3  O   UNL     1      -1.297 -10.297  16.338  0.00  0.00    -0.276 OA
ATOM      6  N   UNL     1      -3.232 -11.558  16.565  0.00  0.00    -0.308 N 
ATOM     22  C   UNL     1      -2.151 -11.042  15.865  0.00  0.00    +0.213 C 
ATOM     36  H   UNL     1      -3.899 -12.154  16.083  0.00  0.00    +0.149 HD
BRANCH   6  26
ATOM     26  C   UNL     1      -3.465 -11.265  17.950  0.00  0.00    +0.178 C 
BRANCH  26  29
ATOM      4  O   UNL     1      -5.448 -12.635  17.605  0.00  0.00    -0.466 OA
ATOM     29  C   UNL     1      -4.829 -11.721  18.397  0.00  0.00    +0.122 A 
ATOM     31  C   UNL     1      -5.620 -11.404  19.478  0.00  0.00    +0.046 A 
ATOM     32  C   UNL     1      -6.801 -12.172  19.339  0.00  0.00    +0.041 A 
ATOM     33  C   UNL     1      -6.646 -12.904  18.185  0.00  0.00    +0.195 A 
ENDBRANCH  26  29
ENDBRANCH   6  26
ENDBRANCH  19  22
ENDBRANCH  15  19
ENDBRANCH   7  15
TORSDOF 8
ENDMDL
MODEL 4
REMARK VINA RESULT:      -6.7     22.530     26.103
REMARK  Name = 25339708
REMARK  11 active torsions:
REMARK  status: ('A' for Active; 'I' for Inactive)
REMARK    1  A    between atoms: O_1  and  C_14
REMARK    2  A    between atoms: N_5  and  C_10
REMARK    3  A    between atoms: N_6  and  C_26
REMARK    4  A    between atoms: C_7  and  C_15
REMARK    5  A    between atoms: C_9  and  C_17
REMARK    6  A    between atoms: C_9  and  C_18
REMARK    7  A    between atoms: C_14  and  C_20
REMARK    8  A    between atoms: C_15  and  C_19
REMARK    9  A    between atoms: C_19  and  C_22
REMARK   10  A    between atoms: C_21  and  C_23
REMARK   11  A    between atoms: C_26  and  C_29
REMARK                            x       y       z     vdW  Elec       q    Type
REMARK                         _______ _______ _______ _____ _____    ______ ____
ROOT
ATOM      7  C   UNL     1      18.875  -2.773  24.993  0.00  0.00    -0.007 C 
ATOM      8  C   UNL     1      18.328  -3.131  23.570  0.00  0.00    +0.005 C 
ATOM      9  C   UNL     1      16.968  -2.338  23.438  0.00  0.00    -0.030 C 
ATOM     10  C   UNL     1      17.554  -2.744  25.798  0.00  0.00    +0.080 C 
ATOM     11  C   UNL     1      16.586  -1.963  24.897  0.00  0.00    +0.029 C 
ATOM     12  C   UNL     1      19.923  -3.771  25.538  0.00  0.00    +0.012 C 
ATOM     13  C   UNL     1      18.150  -4.655  23.356  0.00  0.00    +0.039 C 
ATOM     14  C   UNL     1      19.352  -5.495  23.791  0.00  0.00    +0.064 C 
ATOM     16  C   UNL     1      19.627  -5.241  25.273  0.00  0.00    +0.035 C 
ATOM     17  C   UNL     1      17.166  -1.072  22.579  0.00  0.00    +0.011 C 
ATOM     18  C   UNL     1      15.806  -3.116  22.788  0.00  0.00    +0.011 C 
ATOM     20  C   UNL     1      19.090  -6.981  23.538  0.00  0.00    +0.041 C 
ENDROOT
BRANCH  10   5
ATOM      2  O   UNL     1      17.675  -4.157  28.307  0.00  0.00    -0.270 OA
ATOM      5  N   UNL     1      17.645  -2.158  27.129  0.00  0.00    -0.308 N 
ATOM     21  C   UNL     1      17.698  -2.929  28.285  0.00  0.00    +0.244 C 
ATOM     34  H   UNL     1      17.552  -1.151  27.200  0.00  0.00    +0.149 HD
BRANCH  21  23
ATOM     23  C   UNL     1      17.762  -2.180  29.567  0.00  0.00    +0.037 A 
ATOM     24  C   UNL     1      16.625  -2.069  30.366  0.00  0.00    +0.013 A 
ATOM     25  C   UNL     1      18.960  -1.590  29.970  0.00  0.00    +0.013 A 
ATOM     27  C   UNL     1      16.685  -1.367  31.570  0.00  0.00    +0.001 A 
ATOM     28  C   UNL     1      19.021  -0.889  31.174  0.00  0.00    +0.001 A 
ATOM     30  C   UNL     1      17.883  -0.777  31.974  0.00  0.00    +0.000 A 
ENDBRANCH  21  23
ENDBRANCH  10   5
BRANCH  14   1
ATOM      1  O   UNL     1      20.484  -5.111  23.010  0.00  0.00    -0.389 OA
ATOM     35  H   UNL     1      21.096  -5.866  22.973  0.00  0.00    +0.210 HD
ENDBRANCH  14   1
BRANCH   7  15
ATOM     15  C   UNL     1      19.575  -1.388  25.004  0.00  0.00    +0.018 C 
BRANCH  15  19
ATOM     19  C   UNL     1      20.410  -1.229  26.257  0.00  0.00    +0.096 C 
BRANCH  19  22
ATOM      3  O   UNL     1      22.752  -1.292  25.643  0.00  0.00    -0.276 OA
ATOM      6  N   UNL     1      21.744   0.761  26.039  0.00  0.00    -0.308 N 
ATOM     22  C   UNL     1      21.767  -0.623  25.943  0.00  0.00    +0.213 C 
ATOM     36  H   UNL     1      20.875   1.230  26.277  0.00  0.00    +0.149 HD
BRANCH   6  26
ATOM     26  C   UNL     1      22.903   1.570  25.790  0.00  0.00    +0.178 C 
BRANCH  26  29
ATOM      4  O   UNL     1      22.211   2.984  23.932  0.00  0.00    -0.466 OA
ATOM     29  C   UNL     1      23.010   1.964  24.340  0.00  0.00    +0.122 A 
ATOM     31  C   UNL     1      23.773   1.499  23.294  0.00  0.00    +0.046 A 
ATOM     32  C   UNL     1      23.417   2.283  22.170  0.00  0.00    +0.041 A 
ATOM     33  C   UNL     1      22.465   3.172  22.611  0.00  0.00    +0.195 A 
ENDBRANCH  26  29
ENDBRANCH   6  26
ENDBRANCH  19  22
ENDBRANCH  15  19
ENDBRANCH   7  15
TORSDOF 8
ENDMDL
MODEL 5
REMARK VINA RESULT:      -6.6     24.645     28.021
REMARK  Name = 25339708
REMARK  11 active torsions:
REMARK  status: ('A' for Active; 'I' for Inactive)
REMARK    1  A    between atoms: O_1  and  C_14
REMARK    2  A    between atoms: N_5  and  C_10
REMARK    3  A    between atoms: N_6  and  C_26
REMARK    4  A    between atoms: C_7  and  C_15
REMARK    5  A    between atoms: C_9  and  C_17
REMARK    6  A    between atoms: C_9  and  C_18
REMARK    7  A    between atoms: C_14  and  C_20
REMARK    8  A    between atoms: C_15  and  C_19
REMARK    9  A    between atoms: C_19  and  C_22
REMARK   10  A    between atoms: C_21  and  C_23
REMARK   11  A    between atoms: C_26  and  C_29
REMARK                            x       y       z     vdW  Elec       q    Type
REMARK                         _______ _______ _______ _____ _____    ______ ____
ROOT
ATOM      7  C   UNL     1      -6.079 -12.096  15.982  0.00  0.00    -0.007 C 
ATOM      8  C   UNL     1      -5.772 -12.531  17.454  0.00  0.00    +0.005 C 
ATOM      9  C   UNL     1      -4.891 -11.365  18.054  0.00  0.00    -0.030 C 
ATOM     10  C   UNL     1      -4.728 -11.451  15.596  0.00  0.00    +0.080 C 
ATOM     11  C   UNL     1      -4.366 -10.589  16.814  0.00  0.00    +0.029 C 
ATOM     12  C   UNL     1      -6.509 -13.259  15.055  0.00  0.00    +0.012 C 
ATOM     13  C   UNL     1      -5.073 -13.910  17.546  0.00  0.00    +0.039 C 
ATOM     14  C   UNL     1      -5.727 -15.003  16.698  0.00  0.00    +0.064 C 
ATOM     16  C   UNL     1      -5.737 -14.559  15.235  0.00  0.00    +0.035 C 
ATOM     17  C   UNL     1      -5.750 -10.449  18.952  0.00  0.00    +0.011 C 
ATOM     18  C   UNL     1      -3.697 -11.813  18.921  0.00  0.00    +0.011 C 
ATOM     20  C   UNL     1      -4.976 -16.326  16.854  0.00  0.00    +0.041 C 
ENDROOT
BRANCH  10   5
ATOM      2  O   UNL     1      -3.678 -12.249  13.033  0.00  0.00    -0.270 OA
ATOM      5  N   UNL     1      -4.735 -10.671  14.365  0.00  0.00    -0.308 N 
ATOM     21  C   UNL     1      -4.200 -11.146  13.173  0.00  0.00    +0.244 C 
ATOM     34  H   UNL     1      -5.044  -9.707  14.428  0.00  0.00    +0.149 HD
BRANCH  21  23
ATOM     23  C   UNL     1      -4.261 -10.219  12.014  0.00  0.00    +0.037 A 
ATOM     24  C   UNL     1      -3.171 -10.108  11.152  0.00  0.00    +0.013 A 
ATOM     25  C   UNL     1      -5.410  -9.460  11.788  0.00  0.00    +0.013 A 
ATOM     27  C   UNL     1      -3.230  -9.237  10.063  0.00  0.00    +0.001 A 
ATOM     28  C   UNL     1      -5.469  -8.592  10.700  0.00  0.00    +0.001 A 
ATOM     30  C   UNL     1      -4.379  -8.480   9.836  0.00  0.00    +0.000 A 
ENDBRANCH  21  23
ENDBRANCH  10   5
BRANCH  14   1
ATOM      1  O   UNL     1      -7.063 -15.200  17.159  0.00  0.00    -0.389 OA
ATOM     35  H   UNL     1      -7.106 -14.920  18.089  0.00  0.00    +0.210 HD
ENDBRANCH  14   1
BRANCH   7  15
ATOM     15  C   UNL     1      -7.237 -11.065  15.920  0.00  0.00    +0.018 C 
BRANCH  15  19
ATOM     19  C   UNL     1      -8.450 -11.588  16.660  0.00  0.00    +0.096 C 
BRANCH  19  22
ATOM      3  O   UNL     1      -9.580 -10.671  18.596  0.00  0.00    -0.276 OA
ATOM      6  N   UNL     1      -9.130  -9.284  16.790  0.00  0.00    -0.308 N 
ATOM     22  C   UNL     1      -9.116 -10.492  17.473  0.00  0.00    +0.213 C 
ATOM     36  H   UNL     1      -8.704  -9.227  15.868  0.00  0.00    +0.149 HD
BRANCH   6  26
ATOM     26  C   UNL     1      -9.704  -8.091  17.343  0.00  0.00    +0.178 C 
BRANCH  26  29
ATOM      4  O   UNL     1     -10.950  -8.099  15.252  0.00  0.00    -0.466 OA
ATOM     29  C   UNL     1     -10.599  -7.390  16.356  0.00  0.00    +0.122 A 
ATOM     31  C   UNL     1     -11.162  -6.135  16.324  0.00  0.00    +0.046 A 
ATOM     32  C   UNL     1     -11.908  -6.070  15.123  0.00  0.00    +0.041 A 
ATOM     33  C   UNL     1     -11.747  -7.290  14.507  0.00  0.00    +0.195 A 
ENDBRANCH  26  29
ENDBRANCH   6  26
ENDBRANCH  19  22
ENDBRANCH  15  19
ENDBRANCH   7  15
TORSDOF 8
ENDMDL
MODEL 6
REMARK VINA RESULT:      -6.5     31.871     36.040
REMARK  Name = 25339708
REMARK  11 active torsions:
REMARK  status: ('A' for Active; 'I' for Inactive)
REMARK    1  A    between atoms: O_1  and  C_14
REMARK    2  A    between atoms: N_5  and  C_10
REMARK    3  A    between atoms: N_6  and  C_26
REMARK    4  A    between atoms: C_7  and  C_15
REMARK    5  A    between atoms: C_9  and  C_17
REMARK    6  A    between atoms: C_9  and  C_18
REMARK    7  A    between atoms: C_14  and  C_20
REMARK    8  A    between atoms: C_15  and  C_19
REMARK    9  A    between atoms: C_19  and  C_22
REMARK   10  A    between atoms: C_21  and  C_23
REMARK   11  A    between atoms: C_26  and  C_29
REMARK                            x       y       z     vdW  Elec       q    Type
REMARK                         _______ _______ _______ _____ _____    ______ ____
ROOT
ATOM      7  C   UNL     1      -1.838  10.444  37.702  0.00  0.00    -0.007 C 
ATOM      8  C   UNL     1      -2.760  11.704  37.824  0.00  0.00    +0.005 C 
ATOM      9  C   UNL     1      -2.374  12.367  39.205  0.00  0.00    -0.030 C 
ATOM     10  C   UNL     1      -1.832   9.962  39.172  0.00  0.00    +0.080 C 
ATOM     11  C   UNL     1      -1.627  11.249  39.985  0.00  0.00    +0.029 C 
ATOM     12  C   UNL     1      -2.343   9.385  36.694  0.00  0.00    +0.012 C 
ATOM     13  C   UNL     1      -4.268  11.362  37.730  0.00  0.00    +0.039 C 
ATOM     14  C   UNL     1      -4.630  10.435  36.569  0.00  0.00    +0.064 C 
ATOM     16  C   UNL     1      -3.844   9.131  36.709  0.00  0.00    +0.035 C 
ATOM     17  C   UNL     1      -1.455  13.586  38.978  0.00  0.00    +0.011 C 
ATOM     18  C   UNL     1      -3.558  12.879  40.050  0.00  0.00    +0.011 C 
ATOM     20  C   UNL     1      -6.135  10.158  36.552  0.00  0.00    +0.041 C 
ENDROOT
BRANCH  10   5
ATOM      2  O   UNL     1      -2.287   7.149  39.605  0.00  0.00    -0.270 OA
ATOM      5  N   UNL     1      -0.832   8.953  39.497  0.00  0.00    -0.308 N 
ATOM     21  C   UNL     1      -1.153   7.614  39.688  0.00  0.00    +0.244 C 
ATOM     34  H   UNL     1       0.107   9.279  39.696  0.00  0.00    +0.149 HD
BRANCH  21  23
ATOM     23  C   UNL     1      -0.023   6.716  40.040  0.00  0.00    +0.037 A 
ATOM     24  C   UNL     1       0.064   5.448  39.465  0.00  0.00    +0.013 A 
ATOM     25  C   UNL     1       0.950   7.141  40.944  0.00  0.00    +0.013 A 
ATOM     27  C   UNL     1       1.126   4.606  39.795  0.00  0.00    +0.001 A 
ATOM     28  C   UNL     1       2.012   6.300  41.272  0.00  0.00    +0.001 A 
ATOM     30  C   UNL     1       2.100   5.031  40.698  0.00  0.00    +0.000 A 
ENDBRANCH  21  23
ENDBRANCH  10   5
BRANCH  14   1
ATOM      1  O   UNL     1      -4.290  11.083  35.344  0.00  0.00    -0.389 OA
ATOM     35  H   UNL     1      -3.945  10.411  34.732  0.00  0.00    +0.210 HD
ENDBRANCH  14   1
BRANCH   7  15
ATOM     15  C   UNL     1      -0.411  10.824  37.226  0.00  0.00    +0.018 C 
BRANCH  15  19
ATOM     19  C   UNL     1      -0.298  10.674  35.723  0.00  0.00    +0.096 C 
BRANCH  19  22
ATOM      3  O   UNL     1      -1.602  12.413  34.656  0.00  0.00    -0.276 OA
ATOM      6  N   UNL     1       0.695  12.681  34.844  0.00  0.00    -0.308 N 
ATOM     22  C   UNL     1      -0.503  12.004  35.019  0.00  0.00    +0.213 C 
ATOM     36  H   UNL     1       1.556  12.270  35.195  0.00  0.00    +0.149 HD
BRANCH   6  26
ATOM     26  C   UNL     1       0.771  13.963  34.203  0.00  0.00    +0.178 C 
BRANCH  26  29
ATOM      4  O   UNL     1       1.340  12.581  32.281  0.00  0.00    -0.466 OA
ATOM     29  C   UNL     1       1.138  13.840  32.748  0.00  0.00    +0.122 A 
ATOM     31  C   UNL     1       1.323  14.763  31.744  0.00  0.00    +0.046 A 
ATOM     32  C   UNL     1       1.659  14.022  30.586  0.00  0.00    +0.041 A 
ATOM     33  C   UNL     1       1.655  12.699  30.965  0.00  0.00    +0.195 A 
ENDBRANCH  26  29
ENDBRANCH   6  26
ENDBRANCH  19  22
ENDBRANCH  15  19
ENDBRANCH   7  15
TORSDOF 8
ENDMDL
MODEL 7
REMARK VINA RESULT:      -6.3     24.974     27.626
REMARK  Name = 25339708
REMARK  11 active torsions:
REMARK  status: ('A' for Active; 'I' for Inactive)
REMARK    1  A    between atoms: O_1  and  C_14
REMARK    2  A    between atoms: N_5  and  C_10
REMARK    3  A    between atoms: N_6  and  C_26
REMARK    4  A    between atoms: C_7  and  C_15
REMARK    5  A    between atoms: C_9  and  C_17
REMARK    6  A    between atoms: C_9  and  C_18
REMARK    7  A    between atoms: C_14  and  C_20
REMARK    8  A    between atoms: C_15  and  C_19
REMARK    9  A    between atoms: C_19  and  C_22
REMARK   10  A    between atoms: C_21  and  C_23
REMARK   11  A    between atoms: C_26  and  C_29
REMARK                            x       y       z     vdW  Elec       q    Type
REMARK                         _______ _______ _______ _____ _____    ______ ____
ROOT
ATOM      7  C   UNL     1      -6.556 -11.286  15.922  0.00  0.00    -0.007 C 
ATOM      8  C   UNL     1      -5.962 -12.723  16.102  0.00  0.00    +0.005 C 
ATOM      9  C   UNL     1      -7.150 -13.707  15.762  0.00  0.00    -0.030 C 
ATOM     10  C   UNL     1      -7.980 -11.501  16.487  0.00  0.00    +0.080 C 
ATOM     11  C   UNL     1      -8.430 -12.831  15.863  0.00  0.00    +0.029 C 
ATOM     12  C   UNL     1      -5.754 -10.175  16.641  0.00  0.00    +0.012 C 
ATOM     13  C   UNL     1      -5.377 -12.964  17.516  0.00  0.00    +0.039 C 
ATOM     14  C   UNL     1      -4.462 -11.845  18.017  0.00  0.00    +0.064 C 
ATOM     16  C   UNL     1      -5.244 -10.531  18.031  0.00  0.00    +0.035 C 
ATOM     17  C   UNL     1      -6.985 -14.277  14.338  0.00  0.00    +0.011 C 
ATOM     18  C   UNL     1      -7.290 -14.927  16.695  0.00  0.00    +0.011 C 
ATOM     20  C   UNL     1      -3.929 -12.171  19.413  0.00  0.00    +0.041 C 
ENDROOT
BRANCH  10   5
ATOM      2  O   UNL     1      -9.377  -9.897  18.431  0.00  0.00    -0.270 OA
ATOM      5  N   UNL     1      -8.929 -10.429  16.218  0.00  0.00    -0.308 N 
ATOM     21  C   UNL     1      -9.555  -9.710  17.230  0.00  0.00    +0.244 C 
ATOM     34  H   UNL     1      -9.215 -10.294  15.254  0.00  0.00    +0.149 HD
BRANCH  21  23
ATOM     23  C   UNL     1     -10.517  -8.667  16.791  0.00  0.00    +0.037 A 
ATOM     24  C   UNL     1     -10.055  -7.406  16.417  0.00  0.00    +0.013 A 
ATOM     25  C   UNL     1     -11.882  -8.950  16.753  0.00  0.00    +0.013 A 
ATOM     27  C   UNL     1     -10.958  -6.427  16.004  0.00  0.00    +0.001 A 
ATOM     28  C   UNL     1     -12.785  -7.972  16.339  0.00  0.00    +0.001 A 
ATOM     30  C   UNL     1     -12.323  -6.710  15.964  0.00  0.00    +0.000 A 
ENDBRANCH  21  23
ENDBRANCH  10   5
BRANCH  14   1
ATOM      1  O   UNL     1      -3.345 -11.741  17.134  0.00  0.00    -0.389 OA
ATOM     35  H   UNL     1      -3.674 -11.471  16.260  0.00  0.00    +0.210 HD
ENDBRANCH  14   1
BRANCH   7  15
ATOM     15  C   UNL     1      -6.597 -10.867  14.428  0.00  0.00    +0.018 C 
BRANCH  15  19
ATOM     19  C   UNL     1      -5.458  -9.920  14.113  0.00  0.00    +0.096 C 
BRANCH  19  22
ATOM      3  O   UNL     1      -4.387 -10.924  12.186  0.00  0.00    -0.276 OA
ATOM      6  N   UNL     1      -3.265 -10.903  14.217  0.00  0.00    -0.308 N 
ATOM     22  C   UNL     1      -4.336 -10.632  13.378  0.00  0.00    +0.213 C 
ATOM     36  H   UNL     1      -3.305 -10.607  15.189  0.00  0.00    +0.149 HD
BRANCH   6  26
ATOM     26  C   UNL     1      -2.078 -11.571  13.763  0.00  0.00    +0.178 C 
BRANCH  26  29
ATOM      4  O   UNL     1      -3.149 -13.524  14.746  0.00  0.00    -0.466 OA
ATOM     29  C   UNL     1      -2.188 -13.066  13.902  0.00  0.00    +0.122 A 
ATOM     31  C   UNL     1      -1.500 -14.116  13.339  0.00  0.00    +0.046 A 
ATOM     32  C   UNL     1      -2.076 -15.294  13.872  0.00  0.00    +0.041 A 
ATOM     33  C   UNL     1      -3.075 -14.879  14.722  0.00  0.00    +0.195 A 
ENDBRANCH  26  29
ENDBRANCH   6  26
ENDBRANCH  19  22
ENDBRANCH  15  19
ENDBRANCH   7  15
TORSDOF 8
ENDMDL
MODEL 8
REMARK VINA RESULT:      -6.3     24.816     28.219
REMARK  Name = 25339708
REMARK  11 active torsions:
REMARK  status: ('A' for Active; 'I' for Inactive)
REMARK    1  A    between atoms: O_1  and  C_14
REMARK    2  A    between atoms: N_5  and  C_10
REMARK    3  A    between atoms: N_6  and  C_26
REMARK    4  A    between atoms: C_7  and  C_15
REMARK    5  A    between atoms: C_9  and  C_17
REMARK    6  A    between atoms: C_9  and  C_18
REMARK    7  A    between atoms: C_14  and  C_20
REMARK    8  A    between atoms: C_15  and  C_19
REMARK    9  A    between atoms: C_19  and  C_22
REMARK   10  A    between atoms: C_21  and  C_23
REMARK   11  A    between atoms: C_26  and  C_29
REMARK                            x       y       z     vdW  Elec       q    Type
REMARK                         _______ _______ _______ _____ _____    ______ ____
ROOT
ATOM      7  C   UNL     1      -6.973 -11.153  16.265  0.00  0.00    -0.007 C 
ATOM      8  C   UNL     1      -6.896 -11.748  17.711  0.00  0.00    +0.005 C 
ATOM      9  C   UNL     1      -5.501 -11.271  18.280  0.00  0.00    -0.030 C 
ATOM     10  C   UNL     1      -5.503 -11.326  15.816  0.00  0.00    +0.080 C 
ATOM     11  C   UNL     1      -4.686 -10.851  17.027  0.00  0.00    +0.029 C 
ATOM     12  C   UNL     1      -7.999 -11.856  15.345  0.00  0.00    +0.012 C 
ATOM     13  C   UNL     1      -7.055 -13.288  17.742  0.00  0.00    +0.039 C 
ATOM     14  C   UNL     1      -8.228 -13.815  16.914  0.00  0.00    +0.064 C 
ATOM     16  C   UNL     1      -8.050 -13.374  15.461  0.00  0.00    +0.035 C 
ATOM     17  C   UNL     1      -5.692 -10.077  19.238  0.00  0.00    +0.011 C 
ATOM     18  C   UNL     1      -4.711 -12.331  19.074  0.00  0.00    +0.011 C 
ATOM     20  C   UNL     1      -8.310 -15.340  17.008  0.00  0.00    +0.041 C 
ENDROOT
BRANCH  10   5
ATOM      2  O   UNL     1      -5.027 -12.472  13.214  0.00  0.00    -0.270 OA
ATOM      5  N   UNL     1      -5.131 -10.614  14.600  0.00  0.00    -0.308 N 
ATOM     21  C   UNL     1      -4.922 -11.260  13.387  0.00  0.00    +0.244 C 
ATOM     34  H   UNL     1      -4.913  -9.628  14.688  0.00  0.00    +0.149 HD
BRANCH  21  23
ATOM     23  C   UNL     1      -4.522 -10.396  12.247  0.00  0.00    +0.037 A 
ATOM     24  C   UNL     1      -5.420  -9.460  11.733  0.00  0.00    +0.013 A 
ATOM     25  C   UNL     1      -3.249 -10.520  11.691  0.00  0.00    +0.013 A 
ATOM     27  C   UNL     1      -5.043  -8.648  10.664  0.00  0.00    +0.001 A 
ATOM     28  C   UNL     1      -2.872  -9.707  10.623  0.00  0.00    +0.001 A 
ATOM     30  C   UNL     1      -3.770  -8.771  10.109  0.00  0.00    +0.000 A 
ENDBRANCH  21  23
ENDBRANCH  10   5
BRANCH  14   1
ATOM      1  O   UNL     1      -9.439 -13.278  17.444  0.00  0.00    -0.389 OA
ATOM     35  H   UNL     1      -9.701 -13.819  18.208  0.00  0.00    +0.210 HD
ENDBRANCH  14   1
BRANCH   7  15
ATOM     15  C   UNL     1      -7.387  -9.658  16.282  0.00  0.00    +0.018 C 
BRANCH  15  19
ATOM     19  C   UNL     1      -8.806  -9.497  15.778  0.00  0.00    +0.096 C 
BRANCH  19  22
ATOM      3  O   UNL     1      -9.623  -8.104  17.582  0.00  0.00    -0.276 OA
ATOM      6  N   UNL     1      -9.869  -7.374  15.393  0.00  0.00    -0.308 N 
ATOM     22  C   UNL     1      -9.468  -8.268  16.375  0.00  0.00    +0.213 C 
ATOM     36  H   UNL     1      -9.682  -7.587  14.417  0.00  0.00    +0.149 HD
BRANCH   6  26
ATOM     26  C   UNL     1     -10.521  -6.133  15.700  0.00  0.00    +0.178 C 
BRANCH  26  29
ATOM      4  O   UNL     1     -12.224  -5.285  14.180  0.00  0.00    -0.466 OA
ATOM     29  C   UNL     1     -11.948  -6.116  15.218  0.00  0.00    +0.122 A 
ATOM     31  C   UNL     1     -13.082  -6.786  15.616  0.00  0.00    +0.046 A 
ATOM     32  C   UNL     1     -14.121  -6.336  14.766  0.00  0.00    +0.041 A 
ATOM     33  C   UNL     1     -13.548  -5.425  13.911  0.00  0.00    +0.195 A 
ENDBRANCH  26  29
ENDBRANCH   6  26
ENDBRANCH  19  22
ENDBRANCH  15  19
ENDBRANCH   7  15
TORSDOF 8
ENDMDL
MODEL 9
REMARK VINA RESULT:      -6.2     25.608     29.026
REMARK  Name = 25339708
REMARK  11 active torsions:
REMARK  status: ('A' for Active; 'I' for Inactive)
REMARK    1  A    between atoms: O_1  and  C_14
REMARK    2  A    between atoms: N_5  and  C_10
REMARK    3  A    between atoms: N_6  and  C_26
REMARK    4  A    between atoms: C_7  and  C_15
REMARK    5  A    between atoms: C_9  and  C_17
REMARK    6  A    between atoms: C_9  and  C_18
REMARK    7  A    between atoms: C_14  and  C_20
REMARK    8  A    between atoms: C_15  and  C_19
REMARK    9  A    between atoms: C_19  and  C_22
REMARK   10  A    between atoms: C_21  and  C_23
REMARK   11  A    between atoms: C_26  and  C_29
REMARK                            x       y       z     vdW  Elec       q    Type
REMARK                         _______ _______ _______ _____ _____    ______ ____
ROOT
ATOM      7  C   UNL     1      -6.021 -12.212  16.040  0.00  0.00    -0.007 C 
ATOM      8  C   UNL     1      -5.702 -12.650  17.508  0.00  0.00    +0.005 C 
ATOM      9  C   UNL     1      -4.856 -11.464  18.119  0.00  0.00    -0.030 C 
ATOM     10  C   UNL     1      -4.689 -11.523  15.660  0.00  0.00    +0.080 C 
ATOM     11  C   UNL     1      -4.353 -10.661  16.887  0.00  0.00    +0.029 C 
ATOM     12  C   UNL     1      -6.416 -13.378  15.103  0.00  0.00    +0.012 C 
ATOM     13  C   UNL     1      -4.963 -14.009  17.588  0.00  0.00    +0.039 C 
ATOM     14  C   UNL     1      -5.583 -15.112  16.730  0.00  0.00    +0.064 C 
ATOM     16  C   UNL     1      -5.606 -14.656  15.271  0.00  0.00    +0.035 C 
ATOM     17  C   UNL     1      -5.742 -10.582  19.024  0.00  0.00    +0.011 C 
ATOM     18  C   UNL     1      -3.650 -11.884  18.984  0.00  0.00    +0.011 C 
ATOM     20  C   UNL     1      -4.794 -16.414  16.876  0.00  0.00    +0.041 C 
ENDROOT
BRANCH  10   5
ATOM      2  O   UNL     1      -3.585 -12.253  13.100  0.00  0.00    -0.270 OA
ATOM      5  N   UNL     1      -4.719 -10.733  14.437  0.00  0.00    -0.308 N 
ATOM     21  C   UNL     1      -4.155 -11.174  13.245  0.00  0.00    +0.244 C 
ATOM     34  H   UNL     1      -5.068  -9.783  14.506  0.00  0.00    +0.149 HD
BRANCH  21  23
ATOM     23  C   UNL     1      -4.245 -10.239  12.094  0.00  0.00    +0.037 A 
ATOM     24  C   UNL     1      -5.411  -9.504  11.883  0.00  0.00    +0.013 A 
ATOM     25  C   UNL     1      -3.163 -10.097  11.225  0.00  0.00    +0.013 A 
ATOM     27  C   UNL     1      -5.495  -8.626  10.803  0.00  0.00    +0.001 A 
ATOM     28  C   UNL     1      -3.246  -9.218  10.146  0.00  0.00    +0.001 A 
ATOM     30  C   UNL     1      -4.413  -8.482   9.935  0.00  0.00    +0.000 A 
ENDBRANCH  21  23
ENDBRANCH  10   5
BRANCH  14   1
ATOM      1  O   UNL     1      -6.914 -15.353  17.189  0.00  0.00    -0.389 OA
ATOM     35  H   UNL     1      -7.469 -15.550  16.415  0.00  0.00    +0.210 HD
ENDBRANCH  14   1
BRANCH   7  15
ATOM     15  C   UNL     1      -7.209 -11.214  15.986  0.00  0.00    +0.018 C 
BRANCH  15  19
ATOM     19  C   UNL     1      -8.426 -11.805  16.667  0.00  0.00    +0.096 C 
BRANCH  19  22
ATOM      3  O   UNL     1      -9.161  -9.644  17.474  0.00  0.00    -0.276 OA
ATOM      6  N   UNL     1      -9.340 -11.490  18.869  0.00  0.00    -0.308 N 
ATOM     22  C   UNL     1      -9.009 -10.844  17.687  0.00  0.00    +0.213 C 
ATOM     36  H   UNL     1      -9.194 -12.493  18.947  0.00  0.00    +0.149 HD
BRANCH   6  26
ATOM     26  C   UNL     1      -9.910 -10.801  19.992  0.00  0.00    +0.178 C 
BRANCH  26  29
ATOM      4  O   UNL     1     -12.060 -11.903  20.290  0.00  0.00    -0.466 OA
ATOM     29  C   UNL     1     -11.414 -10.766  19.924  0.00  0.00    +0.122 A 
ATOM     31  C   UNL     1     -12.316  -9.794  19.557  0.00  0.00    +0.046 A 
ATOM     32  C   UNL     1     -13.599 -10.373  19.707  0.00  0.00    +0.041 A 
ATOM     33  C   UNL     1     -13.389 -11.656  20.156  0.00  0.00    +0.195 A 
ENDBRANCH  26  29
ENDBRANCH   6  26
ENDBRANCH  19  22
ENDBRANCH  15  19
ENDBRANCH   7  15
TORSDOF 8
ENDMDL
MODEL 10
REMARK VINA RESULT:      -6.2     27.121     31.360
REMARK  Name = 25339708
REMARK  11 active torsions:
REMARK  status: ('A' for Active; 'I' for Inactive)
REMARK    1  A    between atoms: O_1  and  C_14
REMARK    2  A    between atoms: N_5  and  C_10
REMARK    3  A    between atoms: N_6  and  C_26
REMARK    4  A    between atoms: C_7  and  C_15
REMARK    5  A    between atoms: C_9  and  C_17
REMARK    6  A    between atoms: C_9  and  C_18
REMARK    7  A    between atoms: C_14  and  C_20
REMARK    8  A    between atoms: C_15  and  C_19
REMARK    9  A    between atoms: C_19  and  C_22
REMARK   10  A    between atoms: C_21  and  C_23
REMARK   11  A    between atoms: C_26  and  C_29
REMARK                            x       y       z     vdW  Elec       q    Type
REMARK                         _______ _______ _______ _____ _____    ______ ____
ROOT
ATOM      7  C   UNL     1     -13.429   8.306  20.733  0.00  0.00    -0.007 C 
ATOM      8  C   UNL     1     -13.562   9.271  19.508  0.00  0.00    +0.005 C 
ATOM      9  C   UNL     1     -15.115   9.410  19.258  0.00  0.00    -0.030 C 
ATOM     10  C   UNL     1     -14.571   7.308  20.426  0.00  0.00    +0.080 C 
ATOM     11  C   UNL     1     -15.746   8.206  20.011  0.00  0.00    +0.029 C 
ATOM     12  C   UNL     1     -12.036   7.645  20.871  0.00  0.00    +0.012 C 
ATOM     13  C   UNL     1     -12.801   8.768  18.255  0.00  0.00    +0.039 C 
ATOM     14  C   UNL     1     -11.369   8.307  18.533  0.00  0.00    +0.064 C 
ATOM     16  C   UNL     1     -11.400   7.182  19.567  0.00  0.00    +0.035 C 
ATOM     17  C   UNL     1     -15.634  10.747  19.828  0.00  0.00    +0.011 C 
ATOM     18  C   UNL     1     -15.556   9.378  17.780  0.00  0.00    +0.011 C 
ATOM     20  C   UNL     1     -10.697   7.835  17.242  0.00  0.00    +0.041 C 
ENDROOT
BRANCH  10   5
ATOM      2  O   UNL     1     -16.275   4.989  20.273  0.00  0.00    -0.270 OA
ATOM      5  N   UNL     1     -14.933   6.414  21.518  0.00  0.00    -0.308 N 
ATOM     21  C   UNL     1     -15.767   5.316  21.343  0.00  0.00    +0.244 C 
ATOM     34  H   UNL     1     -14.647   6.685  22.452  0.00  0.00    +0.149 HD
BRANCH  21  23
ATOM     23  C   UNL     1     -16.061   4.519  22.561  0.00  0.00    +0.037 A 
ATOM     24  C   UNL     1     -15.160   4.514  23.626  0.00  0.00    +0.013 A 
ATOM     25  C   UNL     1     -17.239   3.776  22.640  0.00  0.00    +0.013 A 
ATOM     27  C   UNL     1     -15.437   3.767  24.770  0.00  0.00    +0.001 A 
ATOM     28  C   UNL     1     -17.517   3.029  23.784  0.00  0.00    +0.001 A 
ATOM     30  C   UNL     1     -16.616   3.024  24.850  0.00  0.00    +0.000 A 
ENDBRANCH  21  23
ENDBRANCH  10   5
BRANCH  14   1
ATOM      1  O   UNL     1     -10.623   9.416  19.035  0.00  0.00    -0.389 OA
ATOM     35  H   UNL     1     -10.280   9.176  19.913  0.00  0.00    +0.210 HD
ENDBRANCH  14   1
BRANCH   7  15
ATOM     15  C   UNL     1     -13.671   9.047  22.074  0.00  0.00    +0.018 C 
BRANCH  15  19
ATOM     19  C   UNL     1     -12.773  10.262  22.176  0.00  0.00    +0.096 C 
BRANCH  19  22
ATOM      3  O   UNL     1     -12.793  12.217  23.606  0.00  0.00    -0.276 OA
ATOM      6  N   UNL     1     -13.485  10.178  24.472  0.00  0.00    -0.308 N 
ATOM     22  C   UNL     1     -13.007  11.015  23.474  0.00  0.00    +0.213 C 
ATOM     36  H   UNL     1     -13.649   9.197  24.264  0.00  0.00    +0.149 HD
BRANCH   6  26
ATOM     26  C   UNL     1     -13.786  10.648  25.794  0.00  0.00    +0.178 C 
BRANCH  26  29
ATOM      4  O   UNL     1     -12.946  10.460  28.071  0.00  0.00    -0.466 OA
ATOM     29  C   UNL     1     -12.646  10.405  26.748  0.00  0.00    +0.122 A 
ATOM     31  C   UNL     1     -11.310  10.129  26.565  0.00  0.00    +0.046 A 
ATOM     32  C   UNL     1     -10.755  10.007  27.862  0.00  0.00    +0.041 A 
ATOM     33  C   UNL     1     -11.790  10.216  28.742  0.00  0.00    +0.195 A 
ENDBRANCH  26  29
ENDBRANCH   6  26
ENDBRANCH  19  22
ENDBRANCH  15  19
ENDBRANCH   7  15
TORSDOF 8
ENDMDL
