MODEL 1
REMARK VINA RESULT:      -8.1      0.000      0.000
REMARK  Name = 45360647
REMARK  9 active torsions:
REMARK  status: ('A' for Active; 'I' for Inactive)
REMARK    1  A    between atoms: N_5  and  C_9
REMARK    2  A    between atoms: N_5  and  C_17
REMARK    3  A    between atoms: N_7  and  C_30
REMARK    4  A    between atoms: N_7  and  C_33
REMARK    5  A    between atoms: N_7  and  C_34
REMARK    6  A    between atoms: C_10  and  C_14
REMARK    7  A    between atoms: C_14  and  C_16
REMARK    8  A    between atoms: C_16  and  C_18
REMARK    9  A    between atoms: C_17  and  C_19
REMARK                            x       y       z     vdW  Elec       q    Type
REMARK                         _______ _______ _______ _____ _____    ______ ____
ROOT
ATOM      1  O   UNL     1     -18.411   1.499  21.794  0.00  0.00    -0.274 OA
ATOM      3  N   UNL     1     -17.152   3.989  24.146  0.00  0.00    -0.286 NA
ATOM      4  N   UNL     1     -17.538   1.223  23.876  0.00  0.00    -0.313 N 
ATOM      8  C   UNL     1     -17.945   3.519  23.003  0.00  0.00    +0.145 C 
ATOM      9  C   UNL     1     -16.124   4.989  22.355  0.00  0.00    +0.070 C 
ATOM     10  C   UNL     1     -17.285   3.171  25.346  0.00  0.00    +0.075 C 
ATOM     11  C   UNL     1     -17.300   4.197  21.784  0.00  0.00    +0.048 C 
ATOM     12  C   UNL     1     -15.804   4.262  23.654  0.00  0.00    +0.104 C 
ATOM     13  C   UNL     1     -16.890   1.729  25.064  0.00  0.00    +0.123 C 
ATOM     15  C   UNL     1     -17.963   2.003  22.828  0.00  0.00    +0.230 C 
ATOM     35  H   UNL     1     -17.576   0.216  23.756  0.00  0.00    +0.149 HD
ENDROOT
BRANCH   9   5
ATOM      5  N   UNL     1     -14.994   5.069  21.443  0.00  0.00    -0.308 NA
ATOM     36  H   UNL     1     -14.838   4.152  21.024  0.00  0.00    +0.123 HD
BRANCH   5  17
ATOM     17  C   UNL     1     -13.784   5.480  22.145  0.00  0.00    +0.116 C 
BRANCH  17  19
ATOM     19  C   UNL     1     -13.141   6.680  21.500  0.00  0.00    -0.033 A 
ATOM     24  C   UNL     1     -13.737   7.936  21.613  0.00  0.00    +0.007 A 
ATOM     25  C   UNL     1     -11.949   6.535  20.789  0.00  0.00    +0.007 A 
ATOM     28  C   UNL     1     -13.143   9.047  21.016  0.00  0.00    +0.023 A 
ATOM     29  C   UNL     1     -11.356   7.646  20.192  0.00  0.00    +0.023 A 
ATOM     30  C   UNL     1     -11.952   8.902  20.305  0.00  0.00    +0.029 A 
BRANCH  30   7
ATOM      7  N   UNL     1     -11.350  10.025  19.700  0.00  0.00    -0.336 N 
ATOM     33  C   UNL     1     -10.155   9.873  18.893  0.00  0.00    +0.129 C 
ATOM     34  C   UNL     1     -11.914  11.348  19.885  0.00  0.00    +0.129 C 
ENDBRANCH  30   7
ENDBRANCH  17  19
ENDBRANCH   5  17
ENDBRANCH   9   5
BRANCH  10  14
ATOM     14  C   UNL     1     -16.503   3.731  26.536  0.00  0.00    +0.029 C 
BRANCH  14  16
ATOM     16  C   UNL     1     -16.037   2.642  27.490  0.00  0.00    +0.098 C 
BRANCH  16  18
ATOM      2  O   UNL     1     -15.865   4.415  29.054  0.00  0.00    -0.275 OA
ATOM      6  N   UNL     1     -15.488   2.249  29.838  0.00  0.00    -0.271 N 
ATOM     18  C   UNL     1     -15.788   3.199  28.872  0.00  0.00    +0.220 C 
ATOM     20  C   UNL     1     -15.396   0.791  29.617  0.00  0.00    +0.118 C 
ATOM     21  C   UNL     1     -15.215   2.511  31.197  0.00  0.00    +0.039 A 
ATOM     22  C   UNL     1     -15.048   0.136  30.959  0.00  0.00    +0.056 C 
ATOM     23  C   UNL     1     -14.958   1.314  31.871  0.00  0.00    -0.024 A 
ATOM     26  C   UNL     1     -15.182   3.722  31.872  0.00  0.00    +0.024 A 
ATOM     27  C   UNL     1     -14.662   1.300  33.226  0.00  0.00    +0.005 A 
ATOM     31  C   UNL     1     -14.883   3.716  33.238  0.00  0.00    +0.002 A 
ATOM     32  C   UNL     1     -14.625   2.514  33.911  0.00  0.00    +0.000 A 
ENDBRANCH  16  18
ENDBRANCH  14  16
ENDBRANCH  10  14
TORSDOF 7
ENDMDL
MODEL 2
REMARK VINA RESULT:      -8.1      1.611      2.152
REMARK  Name = 45360647
REMARK  9 active torsions:
REMARK  status: ('A' for Active; 'I' for Inactive)
REMARK    1  A    between atoms: N_5  and  C_9
REMARK    2  A    between atoms: N_5  and  C_17
REMARK    3  A    between atoms: N_7  and  C_30
REMARK    4  A    between atoms: N_7  and  C_33
REMARK    5  A    between atoms: N_7  and  C_34
REMARK    6  A    between atoms: C_10  and  C_14
REMARK    7  A    between atoms: C_14  and  C_16
REMARK    8  A    between atoms: C_16  and  C_18
REMARK    9  A    between atoms: C_17  and  C_19
REMARK                            x       y       z     vdW  Elec       q    Type
REMARK                         _______ _______ _______ _____ _____    ______ ____
ROOT
ATOM      1  O   UNL     1     -18.000   0.495  23.047  0.00  0.00    -0.274 OA
ATOM      3  N   UNL     1     -16.821   3.172  25.228  0.00  0.00    -0.286 NA
ATOM      4  N   UNL     1     -17.098   0.382  25.132  0.00  0.00    -0.313 N 
ATOM      8  C   UNL     1     -17.604   2.602  24.125  0.00  0.00    +0.145 C 
ATOM      9  C   UNL     1     -15.850   4.100  23.368  0.00  0.00    +0.070 C 
ATOM     10  C   UNL     1     -16.910   2.425  26.478  0.00  0.00    +0.075 C 
ATOM     11  C   UNL     1     -16.998   3.229  22.859  0.00  0.00    +0.048 C 
ATOM     12  C   UNL     1     -15.490   3.468  24.705  0.00  0.00    +0.104 C 
ATOM     13  C   UNL     1     -16.460   0.985  26.279  0.00  0.00    +0.123 C 
ATOM     15  C   UNL     1     -17.563   1.079  24.043  0.00  0.00    +0.230 C 
ATOM     35  H   UNL     1     -17.097  -0.631  25.074  0.00  0.00    +0.149 HD
ENDROOT
BRANCH   9   5
ATOM      5  N   UNL     1     -14.732   4.169  22.440  0.00  0.00    -0.308 NA
ATOM     36  H   UNL     1     -14.225   3.284  22.463  0.00  0.00    +0.123 HD
BRANCH   5  17
ATOM     17  C   UNL     1     -13.819   5.247  22.800  0.00  0.00    +0.116 C 
BRANCH  17  19
ATOM     19  C   UNL     1     -13.466   6.103  21.612  0.00  0.00    -0.033 A 
ATOM     24  C   UNL     1     -12.129   6.291  21.260  0.00  0.00    +0.007 A 
ATOM     25  C   UNL     1     -14.476   6.708  20.863  0.00  0.00    +0.007 A 
ATOM     28  C   UNL     1     -11.802   7.084  20.161  0.00  0.00    +0.023 A 
ATOM     29  C   UNL     1     -14.148   7.501  19.764  0.00  0.00    +0.023 A 
ATOM     30  C   UNL     1     -12.812   7.689  19.412  0.00  0.00    +0.029 A 
BRANCH  30   7
ATOM      7  N   UNL     1     -12.482   8.491  18.301  0.00  0.00    -0.336 N 
ATOM     33  C   UNL     1     -11.367   9.416  18.367  0.00  0.00    +0.129 C 
ATOM     34  C   UNL     1     -13.259   8.407  17.079  0.00  0.00    +0.129 C 
ENDBRANCH  30   7
ENDBRANCH  17  19
ENDBRANCH   5  17
ENDBRANCH   9   5
BRANCH  10  14
ATOM     14  C   UNL     1     -16.141   3.087  27.622  0.00  0.00    +0.029 C 
BRANCH  14  16
ATOM     16  C   UNL     1     -16.028   2.188  28.844  0.00  0.00    +0.098 C 
BRANCH  16  18
ATOM      2  O   UNL     1     -17.628   3.195  30.274  0.00  0.00    -0.275 OA
ATOM      6  N   UNL     1     -15.398   3.226  30.964  0.00  0.00    -0.271 N 
ATOM     18  C   UNL     1     -16.440   2.922  30.099  0.00  0.00    +0.220 C 
ATOM     20  C   UNL     1     -13.973   2.898  30.750  0.00  0.00    +0.118 C 
ATOM     21  C   UNL     1     -15.518   3.904  32.195  0.00  0.00    +0.039 A 
ATOM     22  C   UNL     1     -13.187   3.418  31.959  0.00  0.00    +0.056 C 
ATOM     23  C   UNL     1     -14.262   4.031  32.794  0.00  0.00    -0.024 A 
ATOM     26  C   UNL     1     -16.651   4.410  32.815  0.00  0.00    +0.024 A 
ATOM     27  C   UNL     1     -14.109   4.662  34.019  0.00  0.00    +0.005 A 
ATOM     31  C   UNL     1     -16.505   5.049  34.051  0.00  0.00    +0.002 A 
ATOM     32  C   UNL     1     -15.244   5.174  34.649  0.00  0.00    +0.000 A 
ENDBRANCH  16  18
ENDBRANCH  14  16
ENDBRANCH  10  14
TORSDOF 7
ENDMDL
MODEL 3
REMARK VINA RESULT:      -7.7      1.754      2.829
REMARK  Name = 45360647
REMARK  9 active torsions:
REMARK  status: ('A' for Active; 'I' for Inactive)
REMARK    1  A    between atoms: N_5  and  C_9
REMARK    2  A    between atoms: N_5  and  C_17
REMARK    3  A    between atoms: N_7  and  C_30
REMARK    4  A    between atoms: N_7  and  C_33
REMARK    5  A    between atoms: N_7  and  C_34
REMARK    6  A    between atoms: C_10  and  C_14
REMARK    7  A    between atoms: C_14  and  C_16
REMARK    8  A    between atoms: C_16  and  C_18
REMARK    9  A    between atoms: C_17  and  C_19
REMARK                            x       y       z     vdW  Elec       q    Type
REMARK                         _______ _______ _______ _____ _____    ______ ____
ROOT
ATOM      1  O   UNL     1     -17.659   4.595  20.137  0.00  0.00    -0.274 OA
ATOM      3  N   UNL     1     -15.771   5.219  23.197  0.00  0.00    -0.286 NA
ATOM      4  N   UNL     1     -17.357   3.265  21.956  0.00  0.00    -0.313 N 
ATOM      8  C   UNL     1     -16.500   5.602  21.982  0.00  0.00    +0.145 C 
ATOM      9  C   UNL     1     -14.127   6.103  21.863  0.00  0.00    +0.070 C 
ATOM     10  C   UNL     1     -16.458   4.233  24.024  0.00  0.00    +0.075 C 
ATOM     11  C   UNL     1     -15.430   6.229  21.074  0.00  0.00    +0.048 C 
ATOM     12  C   UNL     1     -14.394   4.937  22.804  0.00  0.00    +0.104 C 
ATOM     13  C   UNL     1     -16.744   2.967  23.231  0.00  0.00    +0.123 C 
ATOM     15  C   UNL     1     -17.197   4.445  21.272  0.00  0.00    +0.230 C 
ATOM     35  H   UNL     1     -17.841   2.510  21.482  0.00  0.00    +0.149 HD
ENDROOT
BRANCH   9   5
ATOM      5  N   UNL     1     -12.962   5.909  21.014  0.00  0.00    -0.308 NA
ATOM     36  H   UNL     1     -12.568   4.985  21.196  0.00  0.00    +0.123 HD
BRANCH   5  17
ATOM     17  C   UNL     1     -11.946   6.919  21.282  0.00  0.00    +0.116 C 
BRANCH  17  19
ATOM     19  C   UNL     1     -11.568   7.677  20.036  0.00  0.00    -0.033 A 
ATOM     24  C   UNL     1     -12.180   7.372  18.821  0.00  0.00    +0.007 A 
ATOM     25  C   UNL     1     -10.607   8.686  20.099  0.00  0.00    +0.007 A 
ATOM     28  C   UNL     1     -11.831   8.074  17.667  0.00  0.00    +0.023 A 
ATOM     29  C   UNL     1     -10.257   9.388  18.945  0.00  0.00    +0.023 A 
ATOM     30  C   UNL     1     -10.869   9.082  17.730  0.00  0.00    +0.029 A 
BRANCH  30   7
ATOM      7  N   UNL     1     -10.515   9.792  16.565  0.00  0.00    -0.336 N 
ATOM     33  C   UNL     1     -10.749   9.218  15.254  0.00  0.00    +0.129 C 
ATOM     34  C   UNL     1      -9.903  11.103  16.662  0.00  0.00    +0.129 C 
ENDBRANCH  30   7
ENDBRANCH  17  19
ENDBRANCH   5  17
ENDBRANCH   9   5
BRANCH  10  14
ATOM     14  C   UNL     1     -15.704   3.913  25.316  0.00  0.00    +0.029 C 
BRANCH  14  16
ATOM     16  C   UNL     1     -16.626   3.841  26.524  0.00  0.00    +0.098 C 
BRANCH  16  18
ATOM      2  O   UNL     1     -16.443   1.502  26.864  0.00  0.00    -0.275 OA
ATOM      6  N   UNL     1     -15.932   2.894  28.667  0.00  0.00    -0.271 N 
ATOM     18  C   UNL     1     -16.326   2.621  27.364  0.00  0.00    +0.220 C 
ATOM     20  C   UNL     1     -15.793   4.239  29.264  0.00  0.00    +0.118 C 
ATOM     21  C   UNL     1     -15.599   1.936  29.647  0.00  0.00    +0.039 A 
ATOM     22  C   UNL     1     -15.331   4.060  30.715  0.00  0.00    +0.056 C 
ATOM     23  C   UNL     1     -15.248   2.574  30.839  0.00  0.00    -0.024 A 
ATOM     26  C   UNL     1     -15.583   0.552  29.556  0.00  0.00    +0.024 A 
ATOM     27  C   UNL     1     -14.876   1.850  31.961  0.00  0.00    +0.005 A 
ATOM     31  C   UNL     1     -15.210  -0.186  30.684  0.00  0.00    +0.002 A 
ATOM     32  C   UNL     1     -14.859   0.458  31.878  0.00  0.00    +0.000 A 
ENDBRANCH  16  18
ENDBRANCH  14  16
ENDBRANCH  10  14
TORSDOF 7
ENDMDL
MODEL 4
REMARK VINA RESULT:      -7.7     20.496     24.066
REMARK  Name = 45360647
REMARK  9 active torsions:
REMARK  status: ('A' for Active; 'I' for Inactive)
REMARK    1  A    between atoms: N_5  and  C_9
REMARK    2  A    between atoms: N_5  and  C_17
REMARK    3  A    between atoms: N_7  and  C_30
REMARK    4  A    between atoms: N_7  and  C_33
REMARK    5  A    between atoms: N_7  and  C_34
REMARK    6  A    between atoms: C_10  and  C_14
REMARK    7  A    between atoms: C_14  and  C_16
REMARK    8  A    between atoms: C_16  and  C_18
REMARK    9  A    between atoms: C_17  and  C_19
REMARK                            x       y       z     vdW  Elec       q    Type
REMARK                         _______ _______ _______ _____ _____    ______ ____
ROOT
ATOM      1  O   UNL     1      -2.765 -14.503  13.862  0.00  0.00    -0.274 OA
ATOM      3  N   UNL     1      -2.285 -11.230  12.322  0.00  0.00    -0.286 NA
ATOM      4  N   UNL     1      -3.984 -13.462  12.249  0.00  0.00    -0.313 N 
ATOM      8  C   UNL     1      -1.862 -12.433  13.050  0.00  0.00    +0.145 C 
ATOM      9  C   UNL     1      -1.843 -10.434  14.429  0.00  0.00    +0.070 C 
ATOM     10  C   UNL     1      -3.051 -11.498  11.110  0.00  0.00    +0.075 C 
ATOM     11  C   UNL     1      -1.527 -11.930  14.463  0.00  0.00    +0.048 C 
ATOM     12  C   UNL     1      -2.859 -10.312  13.302  0.00  0.00    +0.104 C 
ATOM     13  C   UNL     1      -4.295 -12.315  11.428  0.00  0.00    +0.123 C 
ATOM     15  C   UNL     1      -2.913 -13.538  13.107  0.00  0.00    +0.230 C 
ATOM     35  H   UNL     1      -4.665 -14.213  12.281  0.00  0.00    +0.149 HD
ENDROOT
BRANCH   9   5
ATOM      5  N   UNL     1      -2.325  -9.924  15.702  0.00  0.00    -0.308 NA
ATOM     36  H   UNL     1      -1.571  -9.415  16.165  0.00  0.00    +0.123 HD
BRANCH   5  17
ATOM     17  C   UNL     1      -2.764 -11.011  16.568  0.00  0.00    +0.116 C 
BRANCH  17  19
ATOM     19  C   UNL     1      -4.192 -10.834  17.012  0.00  0.00    -0.033 A 
ATOM     24  C   UNL     1      -5.025  -9.939  16.340  0.00  0.00    +0.007 A 
ATOM     25  C   UNL     1      -4.683 -11.565  18.094  0.00  0.00    +0.007 A 
ATOM     28  C   UNL     1      -6.348  -9.773  16.750  0.00  0.00    +0.023 A 
ATOM     29  C   UNL     1      -6.005 -11.399  18.504  0.00  0.00    +0.023 A 
ATOM     30  C   UNL     1      -6.838 -10.504  17.832  0.00  0.00    +0.029 A 
BRANCH  30   7
ATOM      7  N   UNL     1      -8.175 -10.338  18.248  0.00  0.00    -0.336 N 
ATOM     33  C   UNL     1      -9.067  -9.457  17.519  0.00  0.00    +0.129 C 
ATOM     34  C   UNL     1      -8.673 -11.039  19.415  0.00  0.00    +0.129 C 
ENDBRANCH  30   7
ENDBRANCH  17  19
ENDBRANCH   5  17
ENDBRANCH   9   5
BRANCH  10  14
ATOM     14  C   UNL     1      -3.410 -10.226  10.341  0.00  0.00    +0.029 C 
BRANCH  14  16
ATOM     16  C   UNL     1      -4.389 -10.489   9.207  0.00  0.00    +0.098 C 
BRANCH  16  18
ATOM      2  O   UNL     1      -5.846  -8.979  10.310  0.00  0.00    -0.275 OA
ATOM      6  N   UNL     1      -6.156  -9.292   8.018  0.00  0.00    -0.271 N 
ATOM     18  C   UNL     1      -5.538  -9.509   9.241  0.00  0.00    +0.220 C 
ATOM     20  C   UNL     1      -5.785  -9.930   6.737  0.00  0.00    +0.118 C 
ATOM     21  C   UNL     1      -7.247  -8.429   7.784  0.00  0.00    +0.039 A 
ATOM     22  C   UNL     1      -6.729  -9.392   5.656  0.00  0.00    +0.056 C 
ATOM     23  C   UNL     1      -7.602  -8.463   6.434  0.00  0.00    -0.024 A 
ATOM     26  C   UNL     1      -7.938  -7.622   8.676  0.00  0.00    +0.024 A 
ATOM     27  C   UNL     1      -8.650  -7.697   5.945  0.00  0.00    +0.005 A 
ATOM     31  C   UNL     1      -8.997  -6.847   8.191  0.00  0.00    +0.002 A 
ATOM     32  C   UNL     1      -9.351  -6.884   6.835  0.00  0.00    +0.000 A 
ENDBRANCH  16  18
ENDBRANCH  14  16
ENDBRANCH  10  14
TORSDOF 7
ENDMDL
MODEL 5
REMARK VINA RESULT:      -7.7     27.267     30.728
REMARK  Name = 45360647
REMARK  9 active torsions:
REMARK  status: ('A' for Active; 'I' for Inactive)
REMARK    1  A    between atoms: N_5  and  C_9
REMARK    2  A    between atoms: N_5  and  C_17
REMARK    3  A    between atoms: N_7  and  C_30
REMARK    4  A    between atoms: N_7  and  C_33
REMARK    5  A    between atoms: N_7  and  C_34
REMARK    6  A    between atoms: C_10  and  C_14
REMARK    7  A    between atoms: C_14  and  C_16
REMARK    8  A    between atoms: C_16  and  C_18
REMARK    9  A    between atoms: C_17  and  C_19
REMARK                            x       y       z     vdW  Elec       q    Type
REMARK                         _______ _______ _______ _____ _____    ______ ____
ROOT
ATOM      1  O   UNL     1      13.751  15.568  26.142  0.00  0.00    -0.274 OA
ATOM      3  N   UNL     1      12.984  12.048  25.560  0.00  0.00    -0.286 NA
ATOM      4  N   UNL     1      12.001  14.624  25.039  0.00  0.00    -0.313 N 
ATOM      8  C   UNL     1      13.618  13.174  26.257  0.00  0.00    +0.145 C 
ATOM      9  C   UNL     1      15.211  11.762  25.088  0.00  0.00    +0.070 C 
ATOM     10  C   UNL     1      11.559  12.225  25.305  0.00  0.00    +0.075 C 
ATOM     11  C   UNL     1      15.121  12.996  25.986  0.00  0.00    +0.048 C 
ATOM     12  C   UNL     1      13.840  11.701  24.429  0.00  0.00    +0.104 C 
ATOM     13  C   UNL     1      11.308  13.482  24.486  0.00  0.00    +0.123 C 
ATOM     15  C   UNL     1      13.148  14.549  25.791  0.00  0.00    +0.230 C 
ATOM     35  H   UNL     1      11.686  15.545  24.754  0.00  0.00    +0.149 HD
ENDROOT
BRANCH   9   5
ATOM      5  N   UNL     1      16.309  11.828  24.137  0.00  0.00    -0.308 NA
ATOM     36  H   UNL     1      16.801  12.715  24.256  0.00  0.00    +0.123 HD
BRANCH   5  17
ATOM     17  C   UNL     1      15.819  11.739  22.767  0.00  0.00    +0.116 C 
BRANCH  17  19
ATOM     19  C   UNL     1      16.250  10.459  22.099  0.00  0.00    -0.033 A 
ATOM     24  C   UNL     1      17.529  10.354  21.553  0.00  0.00    +0.007 A 
ATOM     25  C   UNL     1      15.370   9.379  22.028  0.00  0.00    +0.007 A 
ATOM     28  C   UNL     1      17.929   9.169  20.935  0.00  0.00    +0.023 A 
ATOM     29  C   UNL     1      15.769   8.195  21.409  0.00  0.00    +0.023 A 
ATOM     30  C   UNL     1      17.049   8.089  20.863  0.00  0.00    +0.029 A 
BRANCH  30   7
ATOM      7  N   UNL     1      17.451   6.892  20.238  0.00  0.00    -0.336 N 
ATOM     33  C   UNL     1      16.560   6.203  19.326  0.00  0.00    +0.129 C 
ATOM     34  C   UNL     1      18.760   6.328  20.507  0.00  0.00    +0.129 C 
ENDBRANCH  30   7
ENDBRANCH  17  19
ENDBRANCH   5  17
ENDBRANCH   9   5
BRANCH  10  14
ATOM     14  C   UNL     1      10.918  11.003  24.645  0.00  0.00    +0.029 C 
BRANCH  14  16
ATOM     16  C   UNL     1      10.638  11.221  23.166  0.00  0.00    +0.098 C 
BRANCH  16  18
ATOM      2  O   UNL     1      10.527   8.897  22.714  0.00  0.00    -0.275 OA
ATOM      6  N   UNL     1      11.791  10.216  21.261  0.00  0.00    -0.271 N 
ATOM     18  C   UNL     1      10.977   9.988  22.361  0.00  0.00    +0.220 C 
ATOM     20  C   UNL     1      12.329  11.527  20.841  0.00  0.00    +0.118 C 
ATOM     21  C   UNL     1      12.249   9.237  20.355  0.00  0.00    +0.039 A 
ATOM     22  C   UNL     1      13.168  11.304  19.577  0.00  0.00    +0.056 C 
ATOM     23  C   UNL     1      13.044   9.830  19.372  0.00  0.00    -0.024 A 
ATOM     26  C   UNL     1      12.010   7.870  20.340  0.00  0.00    +0.024 A 
ATOM     27  C   UNL     1      13.617   9.078  18.358  0.00  0.00    +0.005 A 
ATOM     31  C   UNL     1      12.585   7.104  19.320  0.00  0.00    +0.002 A 
ATOM     32  C   UNL     1      13.383   7.703  18.336  0.00  0.00    +0.000 A 
ENDBRANCH  16  18
ENDBRANCH  14  16
ENDBRANCH  10  14
TORSDOF 7
ENDMDL
MODEL 6
REMARK VINA RESULT:      -7.6     19.738     22.302
REMARK  Name = 45360647
REMARK  9 active torsions:
REMARK  status: ('A' for Active; 'I' for Inactive)
REMARK    1  A    between atoms: N_5  and  C_9
REMARK    2  A    between atoms: N_5  and  C_17
REMARK    3  A    between atoms: N_7  and  C_30
REMARK    4  A    between atoms: N_7  and  C_33
REMARK    5  A    between atoms: N_7  and  C_34
REMARK    6  A    between atoms: C_10  and  C_14
REMARK    7  A    between atoms: C_14  and  C_16
REMARK    8  A    between atoms: C_16  and  C_18
REMARK    9  A    between atoms: C_17  and  C_19
REMARK                            x       y       z     vdW  Elec       q    Type
REMARK                         _______ _______ _______ _____ _____    ______ ____
ROOT
ATOM      1  O   UNL     1      -7.616 -12.565  19.045  0.00  0.00    -0.274 OA
ATOM      3  N   UNL     1      -5.265 -10.269  17.456  0.00  0.00    -0.286 NA
ATOM      4  N   UNL     1      -5.611 -12.988  18.058  0.00  0.00    -0.313 N 
ATOM      8  C   UNL     1      -6.367 -10.635  18.355  0.00  0.00    +0.145 C 
ATOM      9  C   UNL     1      -7.085  -9.268  16.480  0.00  0.00    +0.070 C 
ATOM     10  C   UNL     1      -4.090 -11.126  17.567  0.00  0.00    +0.075 C 
ATOM     11  C   UNL     1      -7.602  -9.952  17.746  0.00  0.00    +0.048 C 
ATOM     12  C   UNL     1      -5.839 -10.070  16.128  0.00  0.00    +0.104 C 
ATOM     13  C   UNL     1      -4.453 -12.579  17.297  0.00  0.00    +0.123 C 
ATOM     15  C   UNL     1      -6.597 -12.137  18.494  0.00  0.00    +0.230 C 
ATOM     35  H   UNL     1      -5.765 -13.984  18.176  0.00  0.00    +0.149 HD
ENDROOT
BRANCH   9   5
ATOM      5  N   UNL     1      -8.070  -9.228  15.410  0.00  0.00    -0.308 NA
ATOM     36  H   UNL     1      -9.005  -9.274  15.816  0.00  0.00    +0.123 HD
BRANCH   5  17
ATOM     17  C   UNL     1      -7.895 -10.352  14.497  0.00  0.00    +0.116 C 
BRANCH  17  19
ATOM     19  C   UNL     1      -7.895  -9.909  13.058  0.00  0.00    -0.033 A 
ATOM     24  C   UNL     1      -8.985 -10.202  12.238  0.00  0.00    +0.007 A 
ATOM     25  C   UNL     1      -6.806  -9.206  12.544  0.00  0.00    +0.007 A 
ATOM     28  C   UNL     1      -8.986  -9.792  10.905  0.00  0.00    +0.023 A 
ATOM     29  C   UNL     1      -6.806  -8.797  11.211  0.00  0.00    +0.023 A 
ATOM     30  C   UNL     1      -7.896  -9.089  10.391  0.00  0.00    +0.029 A 
BRANCH  30   7
ATOM      7  N   UNL     1      -7.896  -8.676   9.044  0.00  0.00    -0.336 N 
ATOM     33  C   UNL     1      -7.487  -9.589   7.994  0.00  0.00    +0.129 C 
ATOM     34  C   UNL     1      -8.295  -7.327   8.690  0.00  0.00    +0.129 C 
ENDBRANCH  30   7
ENDBRANCH  17  19
ENDBRANCH   5  17
ENDBRANCH   9   5
BRANCH  10  14
ATOM     14  C   UNL     1      -2.938 -10.672  16.670  0.00  0.00    +0.029 C 
BRANCH  14  16
ATOM     16  C   UNL     1      -2.677 -11.639  15.524  0.00  0.00    +0.098 C 
BRANCH  16  18
ATOM      2  O   UNL     1      -1.823  -9.952  14.094  0.00  0.00    -0.275 OA
ATOM      6  N   UNL     1      -3.420 -11.405  13.209  0.00  0.00    -0.271 N 
ATOM     18  C   UNL     1      -2.592 -10.907  14.205  0.00  0.00    +0.220 C 
ATOM     20  C   UNL     1      -4.342 -12.552  13.344  0.00  0.00    +0.118 C 
ATOM     21  C   UNL     1      -3.528 -10.902  11.895  0.00  0.00    +0.039 A 
ATOM     22  C   UNL     1      -5.047 -12.748  11.997  0.00  0.00    +0.056 C 
ATOM     23  C   UNL     1      -4.456 -11.653  11.171  0.00  0.00    -0.024 A 
ATOM     26  C   UNL     1      -2.865  -9.837  11.303  0.00  0.00    +0.024 A 
ATOM     27  C   UNL     1      -4.744 -11.359   9.846  0.00  0.00    +0.005 A 
ATOM     31  C   UNL     1      -3.150  -9.533   9.968  0.00  0.00    +0.002 A 
ATOM     32  C   UNL     1      -4.083 -10.289   9.244  0.00  0.00    +0.000 A 
ENDBRANCH  16  18
ENDBRANCH  14  16
ENDBRANCH  10  14
TORSDOF 7
ENDMDL
MODEL 7
REMARK VINA RESULT:      -7.6     19.327     21.543
REMARK  Name = 45360647
REMARK  9 active torsions:
REMARK  status: ('A' for Active; 'I' for Inactive)
REMARK    1  A    between atoms: N_5  and  C_9
REMARK    2  A    between atoms: N_5  and  C_17
REMARK    3  A    between atoms: N_7  and  C_30
REMARK    4  A    between atoms: N_7  and  C_33
REMARK    5  A    between atoms: N_7  and  C_34
REMARK    6  A    between atoms: C_10  and  C_14
REMARK    7  A    between atoms: C_14  and  C_16
REMARK    8  A    between atoms: C_16  and  C_18
REMARK    9  A    between atoms: C_17  and  C_19
REMARK                            x       y       z     vdW  Elec       q    Type
REMARK                         _______ _______ _______ _____ _____    ______ ____
ROOT
ATOM      1  O   UNL     1     -10.537 -11.706  18.476  0.00  0.00    -0.274 OA
ATOM      3  N   UNL     1      -7.357  -9.983  17.993  0.00  0.00    -0.286 NA
ATOM      4  N   UNL     1      -8.413 -12.476  18.730  0.00  0.00    -0.313 N 
ATOM      8  C   UNL     1      -8.801 -10.065  18.244  0.00  0.00    +0.145 C 
ATOM      9  C   UNL     1      -8.267  -9.087  16.086  0.00  0.00    +0.070 C 
ATOM     10  C   UNL     1      -6.552 -10.878  18.817  0.00  0.00    +0.075 C 
ATOM     11  C   UNL     1      -9.444  -9.442  16.994  0.00  0.00    +0.048 C 
ATOM     12  C   UNL     1      -7.166 -10.033  16.546  0.00  0.00    +0.104 C 
ATOM     13  C   UNL     1      -6.980 -12.325  18.619  0.00  0.00    +0.123 C 
ATOM     15  C   UNL     1      -9.323 -11.481  18.468  0.00  0.00    +0.230 C 
ATOM     35  H   UNL     1      -8.773 -13.409  18.900  0.00  0.00    +0.149 HD
ENDROOT
BRANCH   9   5
ATOM      5  N   UNL     1      -8.581  -9.207  14.671  0.00  0.00    -0.308 NA
ATOM     36  H   UNL     1      -9.593  -9.263  14.559  0.00  0.00    +0.123 HD
BRANCH   5  17
ATOM     17  C   UNL     1      -7.973 -10.403  14.101  0.00  0.00    +0.116 C 
BRANCH  17  19
ATOM     19  C   UNL     1      -7.368 -10.134  12.749  0.00  0.00    -0.033 A 
ATOM     24  C   UNL     1      -7.809 -10.846  11.633  0.00  0.00    +0.007 A 
ATOM     25  C   UNL     1      -6.367  -9.172  12.611  0.00  0.00    +0.007 A 
ATOM     28  C   UNL     1      -7.249 -10.597  10.380  0.00  0.00    +0.023 A 
ATOM     29  C   UNL     1      -5.807  -8.923  11.359  0.00  0.00    +0.023 A 
ATOM     30  C   UNL     1      -6.247  -9.635  10.243  0.00  0.00    +0.029 A 
BRANCH  30   7
ATOM      7  N   UNL     1      -5.680  -9.383   8.977  0.00  0.00    -0.336 N 
ATOM     33  C   UNL     1      -4.253  -9.166   8.841  0.00  0.00    +0.129 C 
ATOM     34  C   UNL     1      -6.518  -9.330   7.795  0.00  0.00    +0.129 C 
ENDBRANCH  30   7
ENDBRANCH  17  19
ENDBRANCH   5  17
ENDBRANCH   9   5
BRANCH  10  14
ATOM     14  C   UNL     1      -5.050 -10.713  18.580  0.00  0.00    +0.029 C 
BRANCH  14  16
ATOM     16  C   UNL     1      -4.456 -11.867  17.786  0.00  0.00    +0.098 C 
BRANCH  16  18
ATOM      2  O   UNL     1      -2.801 -10.552  16.712  0.00  0.00    -0.275 OA
ATOM      6  N   UNL     1      -4.156 -11.891  15.362  0.00  0.00    -0.271 N 
ATOM     18  C   UNL     1      -3.716 -11.365  16.568  0.00  0.00    +0.220 C 
ATOM     20  C   UNL     1      -5.253 -12.866  15.193  0.00  0.00    +0.118 C 
ATOM     21  C   UNL     1      -3.634 -11.584  14.087  0.00  0.00    +0.039 A 
ATOM     22  C   UNL     1      -5.385 -13.166  13.695  0.00  0.00    +0.056 C 
ATOM     23  C   UNL     1      -4.320 -12.302  13.105  0.00  0.00    -0.024 A 
ATOM     26  C   UNL     1      -2.602 -10.724  13.742  0.00  0.00    +0.024 A 
ATOM     27  C   UNL     1      -3.995 -12.178  11.763  0.00  0.00    +0.005 A 
ATOM     31  C   UNL     1      -2.269 -10.592  12.390  0.00  0.00    +0.002 A 
ATOM     32  C   UNL     1      -2.960 -11.314  11.407  0.00  0.00    +0.000 A 
ENDBRANCH  16  18
ENDBRANCH  14  16
ENDBRANCH  10  14
TORSDOF 7
ENDMDL
MODEL 8
REMARK VINA RESULT:      -7.5     27.398     30.757
REMARK  Name = 45360647
REMARK  9 active torsions:
REMARK  status: ('A' for Active; 'I' for Inactive)
REMARK    1  A    between atoms: N_5  and  C_9
REMARK    2  A    between atoms: N_5  and  C_17
REMARK    3  A    between atoms: N_7  and  C_30
REMARK    4  A    between atoms: N_7  and  C_33
REMARK    5  A    between atoms: N_7  and  C_34
REMARK    6  A    between atoms: C_10  and  C_14
REMARK    7  A    between atoms: C_14  and  C_16
REMARK    8  A    between atoms: C_16  and  C_18
REMARK    9  A    between atoms: C_17  and  C_19
REMARK                            x       y       z     vdW  Elec       q    Type
REMARK                         _______ _______ _______ _____ _____    ______ ____
ROOT
ATOM      1  O   UNL     1      15.072  13.034  27.625  0.00  0.00    -0.274 OA
ATOM      3  N   UNL     1      13.376  11.809  24.634  0.00  0.00    -0.286 NA
ATOM      4  N   UNL     1      13.018  13.556  26.801  0.00  0.00    -0.313 N 
ATOM      8  C   UNL     1      14.356  11.751  25.727  0.00  0.00    +0.145 C 
ATOM      9  C   UNL     1      15.384  12.038  23.546  0.00  0.00    +0.070 C 
ATOM     10  C   UNL     1      12.022  12.145  25.059  0.00  0.00    +0.075 C 
ATOM     11  C   UNL     1      15.719  11.870  25.028  0.00  0.00    +0.048 C 
ATOM     12  C   UNL     1      13.971  12.605  23.564  0.00  0.00    +0.104 C 
ATOM     13  C   UNL     1      11.997  13.483  25.781  0.00  0.00    +0.123 C 
ATOM     15  C   UNL     1      14.193  12.845  26.779  0.00  0.00    +0.230 C 
ATOM     35  H   UNL     1      12.912  14.265  27.519  0.00  0.00    +0.149 HD
ENDROOT
BRANCH   9   5
ATOM      5  N   UNL     1      16.337  12.877  22.837  0.00  0.00    -0.308 NA
ATOM     36  H   UNL     1      16.092  13.857  22.985  0.00  0.00    +0.123 HD
BRANCH   5  17
ATOM     17  C   UNL     1      16.318  12.595  21.407  0.00  0.00    +0.116 C 
BRANCH  17  19
ATOM     19  C   UNL     1      16.576  11.139  21.119  0.00  0.00    -0.033 A 
ATOM     24  C   UNL     1      15.605  10.373  20.474  0.00  0.00    +0.007 A 
ATOM     25  C   UNL     1      17.786  10.557  21.496  0.00  0.00    +0.007 A 
ATOM     28  C   UNL     1      15.843   9.025  20.207  0.00  0.00    +0.023 A 
ATOM     29  C   UNL     1      18.024   9.209  21.230  0.00  0.00    +0.023 A 
ATOM     30  C   UNL     1      17.053   8.443  20.585  0.00  0.00    +0.029 A 
BRANCH  30   7
ATOM      7  N   UNL     1      17.295   7.081  20.316  0.00  0.00    -0.336 N 
ATOM     33  C   UNL     1      18.537   6.459  20.731  0.00  0.00    +0.129 C 
ATOM     34  C   UNL     1      16.307   6.285  19.614  0.00  0.00    +0.129 C 
ENDBRANCH  30   7
ENDBRANCH  17  19
ENDBRANCH   5  17
ENDBRANCH   9   5
BRANCH  10  14
ATOM     14  C   UNL     1      11.017  12.124  23.905  0.00  0.00    +0.029 C 
BRANCH  14  16
ATOM     16  C   UNL     1      10.808  10.727  23.341  0.00  0.00    +0.098 C 
BRANCH  16  18
ATOM      2  O   UNL     1      11.459  11.665  21.264  0.00  0.00    -0.275 OA
ATOM      6  N   UNL     1      11.577   9.344  21.481  0.00  0.00    -0.271 N 
ATOM     18  C   UNL     1      11.314  10.633  21.921  0.00  0.00    +0.220 C 
ATOM     20  C   UNL     1      11.402   8.108  22.272  0.00  0.00    +0.118 C 
ATOM     21  C   UNL     1      12.055   8.988  20.202  0.00  0.00    +0.039 A 
ATOM     22  C   UNL     1      11.818   6.925  21.390  0.00  0.00    +0.056 C 
ATOM     23  C   UNL     1      12.205   7.602  20.116  0.00  0.00    -0.024 A 
ATOM     26  C   UNL     1      12.364   9.801  19.120  0.00  0.00    +0.024 A 
ATOM     27  C   UNL     1      12.664   6.998  18.956  0.00  0.00    +0.005 A 
ATOM     31  C   UNL     1      12.827   9.198  17.946  0.00  0.00    +0.002 A 
ATOM     32  C   UNL     1      12.976   7.807  17.863  0.00  0.00    +0.000 A 
ENDBRANCH  16  18
ENDBRANCH  14  16
ENDBRANCH  10  14
TORSDOF 7
ENDMDL
MODEL 9
REMARK VINA RESULT:      -7.3     17.802     20.770
REMARK  Name = 45360647
REMARK  9 active torsions:
REMARK  status: ('A' for Active; 'I' for Inactive)
REMARK    1  A    between atoms: N_5  and  C_9
REMARK    2  A    between atoms: N_5  and  C_17
REMARK    3  A    between atoms: N_7  and  C_30
REMARK    4  A    between atoms: N_7  and  C_33
REMARK    5  A    between atoms: N_7  and  C_34
REMARK    6  A    between atoms: C_10  and  C_14
REMARK    7  A    between atoms: C_14  and  C_16
REMARK    8  A    between atoms: C_16  and  C_18
REMARK    9  A    between atoms: C_17  and  C_19
REMARK                            x       y       z     vdW  Elec       q    Type
REMARK                         _______ _______ _______ _____ _____    ______ ____
ROOT
ATOM      1  O   UNL     1      -9.049 -13.078  19.304  0.00  0.00    -0.274 OA
ATOM      3  N   UNL     1      -6.324 -10.971  18.095  0.00  0.00    -0.286 NA
ATOM      4  N   UNL     1      -7.261 -13.615  18.006  0.00  0.00    -0.313 N 
ATOM      8  C   UNL     1      -7.427 -11.336  18.995  0.00  0.00    +0.145 C 
ATOM      9  C   UNL     1      -7.914  -9.379  17.642  0.00  0.00    +0.070 C 
ATOM     10  C   UNL     1      -5.378 -12.051  17.837  0.00  0.00    +0.075 C 
ATOM     11  C   UNL     1      -8.501 -10.268  18.739  0.00  0.00    +0.048 C 
ATOM     12  C   UNL     1      -6.913 -10.291  16.945  0.00  0.00    +0.104 C 
ATOM     13  C   UNL     1      -6.086 -13.260  17.243  0.00  0.00    +0.123 C 
ATOM     15  C   UNL     1      -7.993 -12.734  18.765  0.00  0.00    +0.230 C 
ATOM     35  H   UNL     1      -7.637 -14.549  17.878  0.00  0.00    +0.149 HD
ENDROOT
BRANCH   9   5
ATOM      5  N   UNL     1      -8.923  -8.836  16.747  0.00  0.00    -0.308 NA
ATOM     36  H   UNL     1      -8.469  -8.233  16.059  0.00  0.00    +0.123 HD
BRANCH   5  17
ATOM     17  C   UNL     1      -9.908  -8.054  17.484  0.00  0.00    +0.116 C 
BRANCH  17  19
ATOM     19  C   UNL     1     -10.936  -7.441  16.569  0.00  0.00    -0.033 A 
ATOM     24  C   UNL     1     -10.596  -6.351  15.768  0.00  0.00    +0.007 A 
ATOM     25  C   UNL     1     -12.228  -7.964  16.522  0.00  0.00    +0.007 A 
ATOM     28  C   UNL     1     -11.547  -5.783  14.920  0.00  0.00    +0.023 A 
ATOM     29  C   UNL     1     -13.180  -7.397  15.675  0.00  0.00    +0.023 A 
ATOM     30  C   UNL     1     -12.839  -6.307  14.874  0.00  0.00    +0.029 A 
BRANCH  30   7
ATOM      7  N   UNL     1     -13.802  -5.733  14.018  0.00  0.00    -0.336 N 
ATOM     33  C   UNL     1     -13.543  -4.465  13.366  0.00  0.00    +0.129 C 
ATOM     34  C   UNL     1     -15.068  -6.401  13.786  0.00  0.00    +0.129 C 
ENDBRANCH  30   7
ENDBRANCH  17  19
ENDBRANCH   5  17
ENDBRANCH   9   5
BRANCH  10  14
ATOM     14  C   UNL     1      -4.206 -11.614  16.956  0.00  0.00    +0.029 C 
BRANCH  14  16
ATOM     16  C   UNL     1      -4.027 -12.510  15.740  0.00  0.00    +0.098 C 
BRANCH  16  18
ATOM      2  O   UNL     1      -1.991 -11.790  14.764  0.00  0.00    -0.275 OA
ATOM      6  N   UNL     1      -3.968 -11.260  13.641  0.00  0.00    -0.271 N 
ATOM     18  C   UNL     1      -3.218 -11.817  14.668  0.00  0.00    +0.220 C 
ATOM     20  C   UNL     1      -5.441 -11.296  13.530  0.00  0.00    +0.118 C 
ATOM     21  C   UNL     1      -3.454 -10.563  12.528  0.00  0.00    +0.039 A 
ATOM     22  C   UNL     1      -5.829 -10.565  12.239  0.00  0.00    +0.056 C 
ATOM     23  C   UNL     1      -4.500 -10.148  11.700  0.00  0.00    -0.024 A 
ATOM     26  C   UNL     1      -2.137 -10.274  12.200  0.00  0.00    +0.024 A 
ATOM     27  C   UNL     1      -4.258  -9.440  10.533  0.00  0.00    +0.005 A 
ATOM     31  C   UNL     1      -1.885  -9.559  11.025  0.00  0.00    +0.002 A 
ATOM     32  C   UNL     1      -2.937  -9.145  10.197  0.00  0.00    +0.000 A 
ENDBRANCH  16  18
ENDBRANCH  14  16
ENDBRANCH  10  14
TORSDOF 7
ENDMDL
MODEL 10
REMARK VINA RESULT:      -7.3     19.781     21.503
REMARK  Name = 45360647
REMARK  9 active torsions:
REMARK  status: ('A' for Active; 'I' for Inactive)
REMARK    1  A    between atoms: N_5  and  C_9
REMARK    2  A    between atoms: N_5  and  C_17
REMARK    3  A    between atoms: N_7  and  C_30
REMARK    4  A    between atoms: N_7  and  C_33
REMARK    5  A    between atoms: N_7  and  C_34
REMARK    6  A    between atoms: C_10  and  C_14
REMARK    7  A    between atoms: C_14  and  C_16
REMARK    8  A    between atoms: C_16  and  C_18
REMARK    9  A    between atoms: C_17  and  C_19
REMARK                            x       y       z     vdW  Elec       q    Type
REMARK                         _______ _______ _______ _____ _____    ______ ____
ROOT
ATOM      1  O   UNL     1      -6.385 -15.089  13.976  0.00  0.00    -0.274 OA
ATOM      3  N   UNL     1      -5.145 -12.215  15.851  0.00  0.00    -0.286 NA
ATOM      4  N   UNL     1      -5.597 -14.972  16.106  0.00  0.00    -0.313 N 
ATOM      8  C   UNL     1      -5.908 -12.882  14.789  0.00  0.00    +0.145 C 
ATOM      9  C   UNL     1      -4.025 -11.603  13.944  0.00  0.00    +0.070 C 
ATOM     10  C   UNL     1      -5.344 -12.781  17.181  0.00  0.00    +0.075 C 
ATOM     11  C   UNL     1      -5.201 -12.467  13.489  0.00  0.00    +0.048 C 
ATOM     12  C   UNL     1      -3.773 -12.069  15.371  0.00  0.00    +0.104 C 
ATOM     13  C   UNL     1      -4.979 -14.258  17.199  0.00  0.00    +0.123 C 
ATOM     15  C   UNL     1      -5.962 -14.402  14.910  0.00  0.00    +0.230 C 
ATOM     35  H   UNL     1      -5.658 -15.982  16.182  0.00  0.00    +0.149 HD
ENDROOT
BRANCH   9   5
ATOM      5  N   UNL     1      -2.860 -11.724  13.081  0.00  0.00    -0.308 NA
ATOM     36  H   UNL     1      -2.042 -11.932  13.654  0.00  0.00    +0.123 HD
BRANCH   5  17
ATOM     17  C   UNL     1      -2.623 -10.487  12.347  0.00  0.00    +0.116 C 
BRANCH  17  19
ATOM     19  C   UNL     1      -3.301 -10.494  11.003  0.00  0.00    -0.033 A 
ATOM     24  C   UNL     1      -3.627 -11.705  10.391  0.00  0.00    +0.007 A 
ATOM     25  C   UNL     1      -3.606  -9.289  10.369  0.00  0.00    +0.007 A 
ATOM     28  C   UNL     1      -4.255 -11.712   9.146  0.00  0.00    +0.023 A 
ATOM     29  C   UNL     1      -4.233  -9.296   9.123  0.00  0.00    +0.023 A 
ATOM     30  C   UNL     1      -4.558 -10.507   8.512  0.00  0.00    +0.029 A 
BRANCH  30   7
ATOM      7  N   UNL     1      -5.193 -10.513   7.253  0.00  0.00    -0.336 N 
ATOM     33  C   UNL     1      -4.738 -11.406   6.205  0.00  0.00    +0.129 C 
ATOM     34  C   UNL     1      -6.303  -9.620   6.987  0.00  0.00    +0.129 C 
ENDBRANCH  30   7
ENDBRANCH  17  19
ENDBRANCH   5  17
ENDBRANCH   9   5
BRANCH  10  14
ATOM     14  C   UNL     1      -4.591 -12.016  18.270  0.00  0.00    +0.029 C 
BRANCH  14  16
ATOM     16  C   UNL     1      -5.236 -10.676  18.592  0.00  0.00    +0.098 C 
BRANCH  16  18
ATOM      2  O   UNL     1      -6.794 -11.544  20.154  0.00  0.00    -0.275 OA
ATOM      6  N   UNL     1      -7.631 -10.221  18.422  0.00  0.00    -0.271 N 
ATOM     18  C   UNL     1      -6.631 -10.863  19.141  0.00  0.00    +0.220 C 
ATOM     20  C   UNL     1      -7.433  -9.404  17.207  0.00  0.00    +0.118 C 
ATOM     21  C   UNL     1      -9.008 -10.240  18.726  0.00  0.00    +0.039 A 
ATOM     22  C   UNL     1      -8.806  -8.891  16.760  0.00  0.00    +0.056 C 
ATOM     23  C   UNL     1      -9.714  -9.483  17.788  0.00  0.00    -0.024 A 
ATOM     26  C   UNL     1      -9.672 -10.873  19.766  0.00  0.00    +0.024 A 
ATOM     27  C   UNL     1     -11.091  -9.342  17.865  0.00  0.00    +0.005 A 
ATOM     31  C   UNL     1     -11.062 -10.737  19.850  0.00  0.00    +0.002 A 
ATOM     32  C   UNL     1     -11.767  -9.977  18.907  0.00  0.00    +0.000 A 
ENDBRANCH  16  18
ENDBRANCH  14  16
ENDBRANCH  10  14
TORSDOF 7
ENDMDL
