MODEL 1
REMARK VINA RESULT:      -8.0      0.000      0.000
REMARK  Name = 7142490
REMARK  2 active torsions:
REMARK  status: ('A' for Active; 'I' for Inactive)
REMARK    1  A    between atoms: C_10  and  C_17
REMARK    2  A    between atoms: C_26  and  C_28
REMARK                            x       y       z     vdW  Elec       q    Type
REMARK                         _______ _______ _______ _____ _____    ______ ____
ROOT
ATOM      1  O   UNL     1      24.448   5.216  23.959  0.00  0.00    -0.275 OA
ATOM      2  O   UNL     1      22.418   7.978  21.946  0.00  0.00    -0.273 OA
ATOM      3  O   UNL     1      18.599   5.213  19.555  0.00  0.00    -0.270 OA
ATOM      6  N   UNL     1      22.876   5.034  22.250  0.00  0.00    -0.298 N 
ATOM      7  N   UNL     1      20.281   5.619  21.091  0.00  0.00    -0.283 N 
ATOM      9  N   UNL     1      20.282   8.560  21.418  0.00  0.00    -0.283 N 
ATOM     11  C   UNL     1      20.718   6.301  22.302  0.00  0.00    +0.180 C 
ATOM     12  C   UNL     1      21.767   5.501  23.085  0.00  0.00    +0.139 C 
ATOM     13  C   UNL     1      22.562   4.688  20.862  0.00  0.00    +0.127 C 
ATOM     14  C   UNL     1      21.071   4.472  20.643  0.00  0.00    +0.128 C 
ATOM     17  C   UNL     1      24.157   4.932  22.800  0.00  0.00    +0.219 C 
ATOM     20  C   UNL     1      21.231   7.659  21.852  0.00  0.00    +0.239 C 
ATOM     21  C   UNL     1      19.073   5.903  20.460  0.00  0.00    +0.249 C 
ATOM     22  C   UNL     1      18.314   7.115  20.869  0.00  0.00    +0.059 A 
ATOM     23  C   UNL     1      18.904   8.344  21.205  0.00  0.00    +0.046 A 
ATOM     24  C   UNL     1      16.916   7.039  20.725  0.00  0.00    +0.023 A 
ATOM     25  C   UNL     1      18.087   9.482  21.323  0.00  0.00    +0.024 A 
ATOM     26  C   UNL     1      16.116   8.169  20.891  0.00  0.00    -0.017 A 
ATOM     27  C   UNL     1      16.704   9.394  21.177  0.00  0.00    +0.010 A 
ATOM     36  H   UNL     1      20.600   9.524  21.335  0.00  0.00    +0.155 HD
ENDROOT
BRANCH  26  28
ATOM      4  O   UNL     1      11.542   8.236  22.638  0.00  0.00    -0.453 OA
ATOM      5  O   UNL     1      10.593   7.810  20.465  0.00  0.00    -0.453 OA
ATOM     28  C   UNL     1      14.680   8.069  20.744  0.00  0.00    -0.014 A 
ATOM     29  C   UNL     1      13.856   8.222  21.863  0.00  0.00    +0.058 A 
ATOM     30  C   UNL     1      14.125   7.820  19.476  0.00  0.00    +0.012 A 
ATOM     31  C   UNL     1      12.493   8.119  21.672  0.00  0.00    +0.167 A 
ATOM     32  C   UNL     1      11.951   7.875  20.431  0.00  0.00    +0.166 A 
ATOM     33  C   UNL     1      12.742   7.721  19.312  0.00  0.00    +0.050 A 
ATOM     34  C   UNL     1      10.339   8.041  21.865  0.00  0.00    +0.466 C 
ENDBRANCH  26  28
BRANCH  17  10
ATOM      8  N   UNL     1      27.787   2.999  21.654  0.00  0.00    -0.316 NA
ATOM     10  C   UNL     1      25.246   4.423  21.904  0.00  0.00    +0.078 C 
ATOM     15  C   UNL     1      25.342   2.899  22.003  0.00  0.00    +0.028 C 
ATOM     16  C   UNL     1      26.582   5.067  22.274  0.00  0.00    +0.028 C 
ATOM     18  C   UNL     1      26.541   2.366  21.221  0.00  0.00    +0.081 C 
ATOM     19  C   UNL     1      27.734   4.451  21.483  0.00  0.00    +0.081 C 
ATOM     35  H   UNL     1      27.939   2.789  22.641  0.00  0.00    +0.122 HD
ENDBRANCH  17  10
TORSDOF 2
ENDMDL
MODEL 2
REMARK VINA RESULT:      -7.7     29.022     33.536
REMARK  Name = 7142490
REMARK  2 active torsions:
REMARK  status: ('A' for Active; 'I' for Inactive)
REMARK    1  A    between atoms: C_10  and  C_17
REMARK    2  A    between atoms: C_26  and  C_28
REMARK                            x       y       z     vdW  Elec       q    Type
REMARK                         _______ _______ _______ _____ _____    ______ ____
ROOT
ATOM      1  O   UNL     1      -1.594 -10.054  11.587  0.00  0.00    -0.275 OA
ATOM      2  O   UNL     1      -3.984 -11.943   9.034  0.00  0.00    -0.273 OA
ATOM      3  O   UNL     1      -8.108  -8.674   8.545  0.00  0.00    -0.270 OA
ATOM      6  N   UNL     1      -3.832  -9.721  11.035  0.00  0.00    -0.298 N 
ATOM      7  N   UNL     1      -5.952  -9.301   9.098  0.00  0.00    -0.283 N 
ATOM      9  N   UNL     1      -5.338 -11.530   7.252  0.00  0.00    -0.283 N 
ATOM     11  C   UNL     1      -4.606  -9.641   8.656  0.00  0.00    +0.180 C 
ATOM     12  C   UNL     1      -3.531  -9.253   9.680  0.00  0.00    +0.139 C 
ATOM     13  C   UNL     1      -5.244  -9.769  11.422  0.00  0.00    +0.127 C 
ATOM     14  C   UNL     1      -6.124  -8.934  10.504  0.00  0.00    +0.128 C 
ATOM     17  C   UNL     1      -2.785 -10.085  11.887  0.00  0.00    +0.219 C 
ATOM     20  C   UNL     1      -4.630 -11.133   8.366  0.00  0.00    +0.239 C 
ATOM     21  C   UNL     1      -7.018  -9.145   8.218  0.00  0.00    +0.249 C 
ATOM     22  C   UNL     1      -6.859  -9.593   6.808  0.00  0.00    +0.059 A 
ATOM     23  C   UNL     1      -6.163 -10.748   6.417  0.00  0.00    +0.046 A 
ATOM     24  C   UNL     1      -7.616  -8.889   5.853  0.00  0.00    +0.023 A 
ATOM     25  C   UNL     1      -6.297 -11.208   5.095  0.00  0.00    +0.024 A 
ATOM     26  C   UNL     1      -7.701  -9.334   4.535  0.00  0.00    -0.017 A 
ATOM     27  C   UNL     1      -7.051 -10.503   4.158  0.00  0.00    +0.010 A 
ATOM     36  H   UNL     1      -5.166 -12.484   6.941  0.00  0.00    +0.155 HD
ENDROOT
BRANCH  26  28
ATOM      4  O   UNL     1      -9.672  -8.697   0.097  0.00  0.00    -0.453 OA
ATOM      5  O   UNL     1     -10.667  -6.595   0.725  0.00  0.00    -0.453 OA
ATOM     28  C   UNL     1      -8.480  -8.594   3.567  0.00  0.00    -0.014 A 
ATOM     29  C   UNL     1      -8.651  -9.104   2.277  0.00  0.00    +0.058 A 
ATOM     30  C   UNL     1      -9.061  -7.366   3.932  0.00  0.00    +0.012 A 
ATOM     31  C   UNL     1      -9.402  -8.362   1.389  0.00  0.00    +0.167 A 
ATOM     32  C   UNL     1      -9.970  -7.161   1.747  0.00  0.00    +0.166 A 
ATOM     33  C   UNL     1      -9.817  -6.635   3.013  0.00  0.00    +0.050 A 
ATOM     34  C   UNL     1     -10.475  -7.573  -0.317  0.00  0.00    +0.466 C 
ENDBRANCH  26  28
BRANCH  17  10
ATOM      8  N   UNL     1      -2.597 -12.285  15.540  0.00  0.00    -0.316 NA
ATOM     10  C   UNL     1      -3.153 -10.529  13.270  0.00  0.00    +0.078 C 
ATOM     15  C   UNL     1      -1.992 -10.276  14.234  0.00  0.00    +0.028 C 
ATOM     16  C   UNL     1      -3.532 -12.009  13.268  0.00  0.00    +0.028 C 
ATOM     18  C   UNL     1      -2.280 -10.858  15.616  0.00  0.00    +0.081 C 
ATOM     19  C   UNL     1      -3.761 -12.527  14.687  0.00  0.00    +0.081 C 
ATOM     35  H   UNL     1      -1.795 -12.782  15.153  0.00  0.00    +0.122 HD
ENDBRANCH  17  10
TORSDOF 2
ENDMDL
MODEL 3
REMARK VINA RESULT:      -7.6     16.995     20.909
REMARK  Name = 7142490
REMARK  2 active torsions:
REMARK  status: ('A' for Active; 'I' for Inactive)
REMARK    1  A    between atoms: C_10  and  C_17
REMARK    2  A    between atoms: C_26  and  C_28
REMARK                            x       y       z     vdW  Elec       q    Type
REMARK                         _______ _______ _______ _____ _____    ______ ____
ROOT
ATOM      1  O   UNL     1      10.779  11.243   9.830  0.00  0.00    -0.275 OA
ATOM      2  O   UNL     1       9.137   7.981   8.262  0.00  0.00    -0.273 OA
ATOM      3  O   UNL     1       9.545   8.769   3.052  0.00  0.00    -0.270 OA
ATOM      6  N   UNL     1      10.050  10.770   7.670  0.00  0.00    -0.298 N 
ATOM      7  N   UNL     1      10.012   9.107   5.292  0.00  0.00    -0.283 N 
ATOM      9  N   UNL     1       9.440   6.497   6.563  0.00  0.00    -0.283 N 
ATOM     11  C   UNL     1      10.660   8.638   6.509  0.00  0.00    +0.180 C 
ATOM     12  C   UNL     1      11.108   9.787   7.421  0.00  0.00    +0.139 C 
ATOM     13  C   UNL     1       9.101  11.012   6.581  0.00  0.00    +0.127 C 
ATOM     14  C   UNL     1       9.620  10.516   5.240  0.00  0.00    +0.128 C 
ATOM     17  C   UNL     1       9.996  11.427   8.902  0.00  0.00    +0.219 C 
ATOM     20  C   UNL     1       9.661   7.710   7.180  0.00  0.00    +0.239 C 
ATOM     21  C   UNL     1       9.913   8.329   4.142  0.00  0.00    +0.249 C 
ATOM     22  C   UNL     1      10.239   6.880   4.223  0.00  0.00    +0.059 A 
ATOM     23  C   UNL     1       9.916   6.054   5.311  0.00  0.00    +0.046 A 
ATOM     24  C   UNL     1      10.742   6.300   3.043  0.00  0.00    +0.023 A 
ATOM     25  C   UNL     1      10.040   4.661   5.169  0.00  0.00    +0.024 A 
ATOM     26  C   UNL     1      10.903   4.919   2.936  0.00  0.00    -0.017 A 
ATOM     27  C   UNL     1      10.539   4.097   3.995  0.00  0.00    +0.010 A 
ATOM     36  H   UNL     1       8.953   5.803   7.126  0.00  0.00    +0.155 HD
ENDROOT
BRANCH  26  28
ATOM      4  O   UNL     1      10.590   3.719  -1.801  0.00  0.00    -0.453 OA
ATOM      5  O   UNL     1      12.790   2.736  -1.806  0.00  0.00    -0.453 OA
ATOM     28  C   UNL     1      11.426   4.341   1.717  0.00  0.00    -0.014 A 
ATOM     29  C   UNL     1      10.652   4.358   0.553  0.00  0.00    +0.058 A 
ATOM     30  C   UNL     1      12.710   3.767   1.713  0.00  0.00    +0.012 A 
ATOM     31  C   UNL     1      11.194   3.795  -0.584  0.00  0.00    +0.167 A 
ATOM     32  C   UNL     1      12.450   3.234  -0.587  0.00  0.00    +0.166 A 
ATOM     33  C   UNL     1      13.234   3.204   0.548  0.00  0.00    +0.050 A 
ATOM     34  C   UNL     1      11.608   3.047  -2.572  0.00  0.00    +0.466 C 
ENDBRANCH  26  28
BRANCH  17  10
ATOM      8  N   UNL     1       7.835  14.668  10.649  0.00  0.00    -0.316 NA
ATOM     10  C   UNL     1       8.908  12.442   9.087  0.00  0.00    +0.078 C 
ATOM     15  C   UNL     1       9.484  13.857   8.995  0.00  0.00    +0.028 C 
ATOM     16  C   UNL     1       8.214  12.235  10.433  0.00  0.00    +0.028 C 
ATOM     18  C   UNL     1       8.429  14.908   9.333  0.00  0.00    +0.081 C 
ATOM     19  C   UNL     1       7.208  13.348  10.716  0.00  0.00    +0.081 C 
ATOM     35  H   UNL     1       8.567  14.722  11.357  0.00  0.00    +0.122 HD
ENDBRANCH  17  10
TORSDOF 2
ENDMDL
MODEL 4
REMARK VINA RESULT:      -7.4     29.568     35.420
REMARK  Name = 7142490
REMARK  2 active torsions:
REMARK  status: ('A' for Active; 'I' for Inactive)
REMARK    1  A    between atoms: C_10  and  C_17
REMARK    2  A    between atoms: C_26  and  C_28
REMARK                            x       y       z     vdW  Elec       q    Type
REMARK                         _______ _______ _______ _____ _____    ______ ____
ROOT
ATOM      1  O   UNL     1     -14.874 -12.538  19.445  0.00  0.00    -0.275 OA
ATOM      2  O   UNL     1     -11.915  -9.889  19.279  0.00  0.00    -0.273 OA
ATOM      3  O   UNL     1      -7.579 -12.828  19.984  0.00  0.00    -0.270 OA
ATOM      6  N   UNL     1     -12.634 -12.688  20.065  0.00  0.00    -0.298 N 
ATOM      7  N   UNL     1      -9.801 -12.408  19.501  0.00  0.00    -0.283 N 
ATOM      9  N   UNL     1      -9.813  -9.645  18.441  0.00  0.00    -0.283 N 
ATOM     11  C   UNL     1     -10.794 -11.903  18.562  0.00  0.00    +0.180 C 
ATOM     12  C   UNL     1     -12.145 -12.619  18.687  0.00  0.00    +0.139 C 
ATOM     13  C   UNL     1     -11.627 -12.812  21.122  0.00  0.00    +0.127 C 
ATOM     14  C   UNL     1     -10.279 -13.268  20.584  0.00  0.00    +0.128 C 
ATOM     17  C   UNL     1     -14.009 -12.642  20.311  0.00  0.00    +0.219 C 
ATOM     20  C   UNL     1     -10.894 -10.409  18.826  0.00  0.00    +0.239 C 
ATOM     21  C   UNL     1      -8.432 -12.249  19.309  0.00  0.00    +0.249 C 
ATOM     22  C   UNL     1      -7.956 -11.312  18.256  0.00  0.00    +0.059 A 
ATOM     23  C   UNL     1      -8.562 -10.081  17.958  0.00  0.00    +0.046 A 
ATOM     24  C   UNL     1      -6.718 -11.631  17.669  0.00  0.00    +0.023 A 
ATOM     25  C   UNL     1      -7.881  -9.170  17.131  0.00  0.00    +0.024 A 
ATOM     26  C   UNL     1      -6.078 -10.734  16.814  0.00  0.00    -0.017 A 
ATOM     27  C   UNL     1      -6.654  -9.497  16.555  0.00  0.00    +0.010 A 
ATOM     36  H   UNL     1      -9.976  -8.640  18.414  0.00  0.00    +0.155 HD
ENDROOT
BRANCH  26  28
ATOM      4  O   UNL     1      -3.232 -13.458  13.905  0.00  0.00    -0.453 OA
ATOM      5  O   UNL     1      -1.267 -12.174  14.448  0.00  0.00    -0.453 OA
ATOM     28  C   UNL     1      -4.808 -11.082  16.215  0.00  0.00    -0.014 A 
ATOM     29  C   UNL     1      -4.731 -12.158  15.326  0.00  0.00    +0.058 A 
ATOM     30  C   UNL     1      -3.660 -10.333  16.532  0.00  0.00    +0.012 A 
ATOM     31  C   UNL     1      -3.498 -12.451  14.782  0.00  0.00    +0.167 A 
ATOM     32  C   UNL     1      -2.375 -11.718  15.092  0.00  0.00    +0.166 A 
ATOM     33  C   UNL     1      -2.424 -10.652  15.965  0.00  0.00    +0.050 A 
ATOM     34  C   UNL     1      -1.816 -13.276  13.697  0.00  0.00    +0.466 C 
ENDBRANCH  26  28
BRANCH  17  10
ATOM      8  N   UNL     1     -16.649 -13.082  23.637  0.00  0.00    -0.316 NA
ATOM     10  C   UNL     1     -14.451 -12.744  21.740  0.00  0.00    +0.078 C 
ATOM     15  C   UNL     1     -15.109 -14.101  21.995  0.00  0.00    +0.028 C 
ATOM     16  C   UNL     1     -15.418 -11.610  22.079  0.00  0.00    +0.028 C 
ATOM     18  C   UNL     1     -15.707 -14.175  23.398  0.00  0.00    +0.081 C 
ATOM     19  C   UNL     1     -16.004 -11.778  23.479  0.00  0.00    +0.081 C 
ATOM     35  H   UNL     1     -17.416 -13.154  22.968  0.00  0.00    +0.122 HD
ENDBRANCH  17  10
TORSDOF 2
ENDMDL
MODEL 5
REMARK VINA RESULT:      -7.4     29.173     34.621
REMARK  Name = 7142490
REMARK  2 active torsions:
REMARK  status: ('A' for Active; 'I' for Inactive)
REMARK    1  A    between atoms: C_10  and  C_17
REMARK    2  A    between atoms: C_26  and  C_28
REMARK                            x       y       z     vdW  Elec       q    Type
REMARK                         _______ _______ _______ _____ _____    ______ ____
ROOT
ATOM      1  O   UNL     1     -13.103  -9.259  20.520  0.00  0.00    -0.275 OA
ATOM      2  O   UNL     1      -9.669 -11.260  20.466  0.00  0.00    -0.273 OA
ATOM      3  O   UNL     1      -8.829 -12.143  15.323  0.00  0.00    -0.270 OA
ATOM      6  N   UNL     1     -12.068 -10.501  18.843  0.00  0.00    -0.298 N 
ATOM      7  N   UNL     1      -9.781 -11.136  17.175  0.00  0.00    -0.283 N 
ATOM      9  N   UNL     1      -7.726 -11.395  19.289  0.00  0.00    -0.283 N 
ATOM     11  C   UNL     1      -9.644 -10.211  18.292  0.00  0.00    +0.180 C 
ATOM     12  C   UNL     1     -10.972  -9.544  18.673  0.00  0.00    +0.139 C 
ATOM     13  C   UNL     1     -12.052 -11.687  17.985  0.00  0.00    +0.127 C 
ATOM     14  C   UNL     1     -11.137 -11.518  16.781  0.00  0.00    +0.128 C 
ATOM     17  C   UNL     1     -13.066 -10.245  19.789  0.00  0.00    +0.219 C 
ATOM     20  C   UNL     1      -9.045 -11.020  19.431  0.00  0.00    +0.239 C 
ATOM     21  C   UNL     1      -8.706 -11.520  16.379  0.00  0.00    +0.249 C 
ATOM     22  C   UNL     1      -7.325 -11.194  16.827  0.00  0.00    +0.059 A 
ATOM     23  C   UNL     1      -6.892 -11.245  18.161  0.00  0.00    +0.046 A 
ATOM     24  C   UNL     1      -6.379 -11.002  15.803  0.00  0.00    +0.023 A 
ATOM     25  C   UNL     1      -5.514 -11.170  18.433  0.00  0.00    +0.024 A 
ATOM     26  C   UNL     1      -5.021 -10.883  16.094  0.00  0.00    -0.017 A 
ATOM     27  C   UNL     1      -4.587 -10.980  17.410  0.00  0.00    +0.010 A 
ATOM     36  H   UNL     1      -7.274 -11.734  20.136  0.00  0.00    +0.155 HD
ENDROOT
BRANCH  26  28
ATOM      4  O   UNL     1      -3.815 -10.095  11.413  0.00  0.00    -0.453 OA
ATOM      5  O   UNL     1      -1.457 -10.095  11.911  0.00  0.00    -0.453 OA
ATOM     28  C   UNL     1      -4.064 -10.680  15.028  0.00  0.00    -0.014 A 
ATOM     29  C   UNL     1      -4.515 -10.485  13.719  0.00  0.00    +0.058 A 
ATOM     30  C   UNL     1      -2.688 -10.680  15.317  0.00  0.00    +0.012 A 
ATOM     31  C   UNL     1      -3.565 -10.297  12.737  0.00  0.00    +0.167 A 
ATOM     32  C   UNL     1      -2.219 -10.297  13.020  0.00  0.00    +0.166 A 
ATOM     33  C   UNL     1      -1.748 -10.486  14.303  0.00  0.00    +0.050 A 
ATOM     34  C   UNL     1      -2.474  -9.967  10.897  0.00  0.00    +0.466 C 
ENDBRANCH  26  28
BRANCH  17  10
ATOM      8  N   UNL     1     -16.533 -12.186  21.349  0.00  0.00    -0.316 NA
ATOM     10  C   UNL     1     -14.176 -11.246  19.897  0.00  0.00    +0.078 C 
ATOM     15  C   UNL     1     -15.532 -10.546  19.794  0.00  0.00    +0.028 C 
ATOM     16  C   UNL     1     -14.071 -12.013  21.215  0.00  0.00    +0.028 C 
ATOM     18  C   UNL     1     -16.681 -11.518  20.055  0.00  0.00    +0.081 C 
ATOM     19  C   UNL     1     -15.275 -12.929  21.423  0.00  0.00    +0.081 C 
ATOM     35  H   UNL     1     -16.545 -11.483  22.088  0.00  0.00    +0.122 HD
ENDBRANCH  17  10
TORSDOF 2
ENDMDL
MODEL 6
REMARK VINA RESULT:      -7.1      8.868     10.290
REMARK  Name = 7142490
REMARK  2 active torsions:
REMARK  status: ('A' for Active; 'I' for Inactive)
REMARK    1  A    between atoms: C_10  and  C_17
REMARK    2  A    between atoms: C_26  and  C_28
REMARK                            x       y       z     vdW  Elec       q    Type
REMARK                         _______ _______ _______ _____ _____    ______ ____
ROOT
ATOM      1  O   UNL     1      16.003  12.783  11.468  0.00  0.00    -0.275 OA
ATOM      2  O   UNL     1      15.317   9.874  14.089  0.00  0.00    -0.273 OA
ATOM      3  O   UNL     1      16.161  12.193  18.763  0.00  0.00    -0.270 OA
ATOM      6  N   UNL     1      16.509  12.598  13.733  0.00  0.00    -0.298 N 
ATOM      7  N   UNL     1      15.753  12.090  16.488  0.00  0.00    -0.283 N 
ATOM      9  N   UNL     1      14.336   9.520  16.111  0.00  0.00    -0.283 N 
ATOM     11  C   UNL     1      14.812  11.833  15.406  0.00  0.00    +0.180 C 
ATOM     12  C   UNL     1      15.108  12.669  14.154  0.00  0.00    +0.139 C 
ATOM     13  C   UNL     1      17.514  12.463  14.791  0.00  0.00    +0.127 C 
ATOM     14  C   UNL     1      16.967  12.839  16.160  0.00  0.00    +0.128 C 
ATOM     17  C   UNL     1      16.825  12.670  12.373  0.00  0.00    +0.219 C 
ATOM     20  C   UNL     1      14.880  10.337  15.144  0.00  0.00    +0.239 C 
ATOM     21  C   UNL     1      15.464  11.811  17.820  0.00  0.00    +0.249 C 
ATOM     22  C   UNL     1      14.271  10.983  18.141  0.00  0.00    +0.059 A 
ATOM     23  C   UNL     1      13.845   9.880  17.384  0.00  0.00    +0.046 A 
ATOM     24  C   UNL     1      13.661  11.242  19.383  0.00  0.00    +0.023 A 
ATOM     25  C   UNL     1      12.867   9.023  17.920  0.00  0.00    +0.024 A 
ATOM     26  C   UNL     1      12.660  10.409  19.878  0.00  0.00    -0.017 A 
ATOM     27  C   UNL     1      12.271   9.290  19.151  0.00  0.00    +0.010 A 
ATOM     36  H   UNL     1      14.184   8.553  15.832  0.00  0.00    +0.155 HD
ENDROOT
BRANCH  26  28
ATOM      4  O   UNL     1      11.213  13.448  23.435  0.00  0.00    -0.453 OA
ATOM      5  O   UNL     1      10.316  11.644  24.756  0.00  0.00    -0.453 OA
ATOM     28  C   UNL     1      12.042  10.695  21.154  0.00  0.00    -0.014 A 
ATOM     29  C   UNL     1      11.969  12.015  21.610  0.00  0.00    +0.058 A 
ATOM     30  C   UNL     1      11.518   9.642  21.926  0.00  0.00    +0.012 A 
ATOM     31  C   UNL     1      11.371  12.237  22.833  0.00  0.00    +0.167 A 
ATOM     32  C   UNL     1      10.859  11.207  23.588  0.00  0.00    +0.166 A 
ATOM     33  C   UNL     1      10.918   9.897  23.161  0.00  0.00    +0.050 A 
ATOM     34  C   UNL     1      10.543  13.064  24.653  0.00  0.00    +0.466 C 
ENDBRANCH  26  28
BRANCH  17  10
ATOM      8  N   UNL     1      20.368  13.276  10.071  0.00  0.00    -0.316 NA
ATOM     10  C   UNL     1      18.277  12.620  12.006  0.00  0.00    +0.078 C 
ATOM     15  C   UNL     1      18.833  14.037  11.853  0.00  0.00    +0.028 C 
ATOM     16  C   UNL     1      18.470  11.828  10.713  0.00  0.00    +0.028 C 
ATOM     18  C   UNL     1      20.267  14.018  11.329  0.00  0.00    +0.081 C 
ATOM     19  C   UNL     1      19.918  11.893  10.232  0.00  0.00    +0.081 C 
ATOM     35  H   UNL     1      19.786  13.734   9.370  0.00  0.00    +0.122 HD
ENDBRANCH  17  10
TORSDOF 2
ENDMDL
MODEL 7
REMARK VINA RESULT:      -7.1     24.035     27.188
REMARK  Name = 7142490
REMARK  2 active torsions:
REMARK  status: ('A' for Active; 'I' for Inactive)
REMARK    1  A    between atoms: C_10  and  C_17
REMARK    2  A    between atoms: C_26  and  C_28
REMARK                            x       y       z     vdW  Elec       q    Type
REMARK                         _______ _______ _______ _____ _____    ______ ____
ROOT
ATOM      1  O   UNL     1      17.637  -4.650  -5.279  0.00  0.00    -0.275 OA
ATOM      2  O   UNL     1      17.952  -4.147  -1.349  0.00  0.00    -0.273 OA
ATOM      3  O   UNL     1      19.951  -8.742   0.333  0.00  0.00    -0.270 OA
ATOM      6  N   UNL     1      17.976  -6.175  -3.552  0.00  0.00    -0.298 N 
ATOM      7  N   UNL     1      19.406  -7.100  -1.203  0.00  0.00    -0.283 N 
ATOM      9  N   UNL     1      19.363  -4.600   0.378  0.00  0.00    -0.283 N 
ATOM     11  C   UNL     1      19.679  -5.782  -1.761  0.00  0.00    +0.180 C 
ATOM     12  C   UNL     1      19.322  -5.685  -3.250  0.00  0.00    +0.139 C 
ATOM     13  C   UNL     1      17.476  -7.287  -2.740  0.00  0.00    +0.127 C 
ATOM     14  C   UNL     1      18.593  -8.014  -2.006  0.00  0.00    +0.128 C 
ATOM     17  C   UNL     1      17.242  -5.582  -4.584  0.00  0.00    +0.219 C 
ATOM     20  C   UNL     1      18.898  -4.799  -0.904  0.00  0.00    +0.239 C 
ATOM     21  C   UNL     1      20.020  -7.571  -0.046  0.00  0.00    +0.249 C 
ATOM     22  C   UNL     1      20.780  -6.618   0.805  0.00  0.00    +0.059 A 
ATOM     23  C   UNL     1      20.390  -5.292   1.053  0.00  0.00    +0.046 A 
ATOM     24  C   UNL     1      21.853  -7.168   1.532  0.00  0.00    +0.023 A 
ATOM     25  C   UNL     1      21.040  -4.570   2.070  0.00  0.00    +0.024 A 
ATOM     26  C   UNL     1      22.516  -6.422   2.505  0.00  0.00    -0.017 A 
ATOM     27  C   UNL     1      22.100  -5.126   2.784  0.00  0.00    +0.010 A 
ATOM     36  H   UNL     1      18.980  -3.789   0.861  0.00  0.00    +0.155 HD
ENDROOT
BRANCH  26  28
ATOM      4  O   UNL     1      24.399  -9.358   5.942  0.00  0.00    -0.453 OA
ATOM      5  O   UNL     1      26.658  -8.725   5.396  0.00  0.00    -0.453 OA
ATOM     28  C   UNL     1      23.620  -7.003   3.238  0.00  0.00    -0.014 A 
ATOM     29  C   UNL     1      23.367  -7.927   4.256  0.00  0.00    +0.058 A 
ATOM     30  C   UNL     1      24.939  -6.633   2.920  0.00  0.00    +0.012 A 
ATOM     31  C   UNL     1      24.451  -8.453   4.927  0.00  0.00    +0.167 A 
ATOM     32  C   UNL     1      25.742  -8.091   4.615  0.00  0.00    +0.166 A 
ATOM     33  C   UNL     1      26.019  -7.182   3.616  0.00  0.00    +0.050 A 
ATOM     34  C   UNL     1      25.802  -9.526   6.233  0.00  0.00    +0.466 C 
ENDBRANCH  26  28
BRANCH  17  10
ATOM      8  N   UNL     1      13.171  -5.694  -5.863  0.00  0.00    -0.316 NA
ATOM     10  C   UNL     1      15.881  -6.144  -4.865  0.00  0.00    +0.078 C 
ATOM     15  C   UNL     1      15.567  -6.046  -6.359  0.00  0.00    +0.028 C 
ATOM     16  C   UNL     1      14.823  -5.405  -4.047  0.00  0.00    +0.028 C 
ATOM     18  C   UNL     1      14.128  -6.469  -6.652  0.00  0.00    +0.081 C 
ATOM     19  C   UNL     1      13.413  -5.851  -4.428  0.00  0.00    +0.081 C 
ATOM     35  H   UNL     1      13.262  -4.708  -6.106  0.00  0.00    +0.122 HD
ENDBRANCH  17  10
TORSDOF 2
ENDMDL
MODEL 8
REMARK VINA RESULT:      -7.0     28.127     32.644
REMARK  Name = 7142490
REMARK  2 active torsions:
REMARK  status: ('A' for Active; 'I' for Inactive)
REMARK    1  A    between atoms: C_10  and  C_17
REMARK    2  A    between atoms: C_26  and  C_28
REMARK                            x       y       z     vdW  Elec       q    Type
REMARK                         _______ _______ _______ _____ _____    ______ ____
ROOT
ATOM      1  O   UNL     1     -16.776   8.222  19.618  0.00  0.00    -0.275 OA
ATOM      2  O   UNL     1     -14.052  10.973  20.515  0.00  0.00    -0.273 OA
ATOM      3  O   UNL     1      -9.668   9.193  18.159  0.00  0.00    -0.270 OA
ATOM      6  N   UNL     1     -14.453   8.198  19.465  0.00  0.00    -0.298 N 
ATOM      7  N   UNL     1     -11.937   9.345  18.583  0.00  0.00    -0.283 N 
ATOM      9  N   UNL     1     -12.315  12.106  19.577  0.00  0.00    -0.283 N 
ATOM     11  C   UNL     1     -13.178  10.095  18.443  0.00  0.00    +0.180 C 
ATOM     12  C   UNL     1     -14.414   9.187  18.386  0.00  0.00    +0.139 C 
ATOM     13  C   UNL     1     -13.167   7.673  19.929  0.00  0.00    +0.127 C 
ATOM     14  C   UNL     1     -12.044   7.928  18.935  0.00  0.00    +0.128 C 
ATOM     17  C   UNL     1     -15.685   7.798  19.989  0.00  0.00    +0.219 C 
ATOM     20  C   UNL     1     -13.213  11.061  19.616  0.00  0.00    +0.239 C 
ATOM     21  C   UNL     1     -10.697   9.868  18.230  0.00  0.00    +0.249 C 
ATOM     22  C   UNL     1     -10.583  11.324  17.949  0.00  0.00    +0.059 A 
ATOM     23  C   UNL     1     -11.269  12.324  18.657  0.00  0.00    +0.046 A 
ATOM     24  C   UNL     1      -9.582  11.694  17.031  0.00  0.00    +0.023 A 
ATOM     25  C   UNL     1     -10.889  13.666  18.478  0.00  0.00    +0.024 A 
ATOM     26  C   UNL     1      -9.251  13.033  16.832  0.00  0.00    -0.017 A 
ATOM     27  C   UNL     1      -9.896  14.020  17.566  0.00  0.00    +0.010 A 
ATOM     36  H   UNL     1     -12.493  12.860  20.237  0.00  0.00    +0.155 HD
ENDROOT
BRANCH  26  28
ATOM      4  O   UNL     1      -7.721  14.491  12.414  0.00  0.00    -0.453 OA
ATOM      5  O   UNL     1      -5.406  14.437  13.081  0.00  0.00    -0.453 OA
ATOM     28  C   UNL     1      -8.223  13.393  15.880  0.00  0.00    -0.014 A 
ATOM     29  C   UNL     1      -8.580  13.770  14.582  0.00  0.00    +0.058 A 
ATOM     30  C   UNL     1      -6.871  13.361  16.268  0.00  0.00    +0.012 A 
ATOM     31  C   UNL     1      -7.565  14.104  13.710  0.00  0.00    +0.167 A 
ATOM     32  C   UNL     1      -6.243  14.073  14.091  0.00  0.00    +0.166 A 
ATOM     33  C   UNL     1      -5.864  13.705  15.365  0.00  0.00    +0.050 A 
ATOM     34  C   UNL     1      -6.348  14.702  12.023  0.00  0.00    +0.466 C 
ENDBRANCH  26  28
BRANCH  17  10
ATOM      8  N   UNL     1     -17.081   5.415  23.245  0.00  0.00    -0.316 NA
ATOM     10  C   UNL     1     -15.662   6.762  21.072  0.00  0.00    +0.078 C 
ATOM     15  C   UNL     1     -16.735   5.702  20.814  0.00  0.00    +0.028 C 
ATOM     16  C   UNL     1     -15.876   7.417  22.436  0.00  0.00    +0.028 C 
ATOM     18  C   UNL     1     -16.838   4.721  21.980  0.00  0.00    +0.081 C 
ATOM     19  C   UNL     1     -16.013   6.371  23.540  0.00  0.00    +0.081 C 
ATOM     35  H   UNL     1     -17.966   5.919  23.181  0.00  0.00    +0.122 HD
ENDBRANCH  17  10
TORSDOF 2
ENDMDL
MODEL 9
REMARK VINA RESULT:      -7.0     29.693     34.562
REMARK  Name = 7142490
REMARK  2 active torsions:
REMARK  status: ('A' for Active; 'I' for Inactive)
REMARK    1  A    between atoms: C_10  and  C_17
REMARK    2  A    between atoms: C_26  and  C_28
REMARK                            x       y       z     vdW  Elec       q    Type
REMARK                         _______ _______ _______ _____ _____    ______ ____
ROOT
ATOM      1  O   UNL     1      -9.196 -11.137   3.864  0.00  0.00    -0.275 OA
ATOM      2  O   UNL     1      -6.322  -9.176   5.785  0.00  0.00    -0.273 OA
ATOM      3  O   UNL     1      -8.161  -8.809  10.727  0.00  0.00    -0.270 OA
ATOM      6  N   UNL     1      -9.175 -10.074   5.936  0.00  0.00    -0.298 N 
ATOM      7  N   UNL     1      -8.034  -9.622   8.565  0.00  0.00    -0.283 N 
ATOM      9  N   UNL     1      -5.218  -9.172   7.776  0.00  0.00    -0.283 N 
ATOM     11  C   UNL     1      -7.326 -10.434   7.584  0.00  0.00    +0.180 C 
ATOM     12  C   UNL     1      -8.265 -11.050   6.539  0.00  0.00    +0.139 C 
ATOM     13  C   UNL     1      -9.633  -8.977   6.792  0.00  0.00    +0.127 C 
ATOM     14  C   UNL     1      -9.423  -9.271   8.270  0.00  0.00    +0.128 C 
ATOM     17  C   UNL     1      -9.566 -10.228   4.603  0.00  0.00    +0.219 C 
ATOM     20  C   UNL     1      -6.279  -9.521   6.968  0.00  0.00    +0.239 C 
ATOM     21  C   UNL     1      -7.507  -9.326   9.819  0.00  0.00    +0.249 C 
ATOM     22  C   UNL     1      -6.073  -9.616  10.085  0.00  0.00    +0.059 A 
ATOM     23  C   UNL     1      -5.041  -9.438   9.150  0.00  0.00    +0.046 A 
ATOM     24  C   UNL     1      -5.747  -9.915  11.421  0.00  0.00    +0.023 A 
ATOM     25  C   UNL     1      -3.707  -9.496   9.589  0.00  0.00    +0.024 A 
ATOM     26  C   UNL     1      -4.417 -10.015  11.829  0.00  0.00    -0.017 A 
ATOM     27  C   UNL     1      -3.396  -9.792  10.915  0.00  0.00    +0.010 A 
ATOM     36  H   UNL     1      -4.422  -8.755   7.296  0.00  0.00    +0.155 HD
ENDROOT
BRANCH  26  28
ATOM      4  O   UNL     1      -5.603 -10.621  16.542  0.00  0.00    -0.453 OA
ATOM      5  O   UNL     1      -3.343 -11.195  17.147  0.00  0.00    -0.453 OA
ATOM     28  C   UNL     1      -4.102 -10.329  13.206  0.00  0.00    -0.014 A 
ATOM     29  C   UNL     1      -5.111 -10.297  14.174  0.00  0.00    +0.058 A 
ATOM     30  C   UNL     1      -2.783 -10.663  13.560  0.00  0.00    +0.012 A 
ATOM     31  C   UNL     1      -4.761 -10.603  15.473  0.00  0.00    +0.167 A 
ATOM     32  C   UNL     1      -3.470 -10.930  15.818  0.00  0.00    +0.166 A 
ATOM     33  C   UNL     1      -2.457 -10.969  14.883  0.00  0.00    +0.050 A 
ATOM     34  C   UNL     1      -4.697 -10.998  17.599  0.00  0.00    +0.466 C 
ENDBRANCH  26  28
BRANCH  17  10
ATOM      8  N   UNL     1     -11.762  -8.004   1.696  0.00  0.00    -0.316 NA
ATOM     10  C   UNL     1     -10.520  -9.213   4.049  0.00  0.00    +0.078 C 
ATOM     15  C   UNL     1     -11.636  -9.907   3.268  0.00  0.00    +0.028 C 
ATOM     16  C   UNL     1      -9.778  -8.222   3.153  0.00  0.00    +0.028 C 
ATOM     18  C   UNL     1     -12.535  -8.893   2.564  0.00  0.00    +0.081 C 
ATOM     19  C   UNL     1     -10.747  -7.272   2.453  0.00  0.00    +0.081 C 
ATOM     35  H   UNL     1     -11.300  -8.562   0.978  0.00  0.00    +0.122 HD
ENDBRANCH  17  10
TORSDOF 2
ENDMDL
MODEL 10
REMARK VINA RESULT:      -6.8     31.058     33.254
REMARK  Name = 7142490
REMARK  2 active torsions:
REMARK  status: ('A' for Active; 'I' for Inactive)
REMARK    1  A    between atoms: C_10  and  C_17
REMARK    2  A    between atoms: C_26  and  C_28
REMARK                            x       y       z     vdW  Elec       q    Type
REMARK                         _______ _______ _______ _____ _____    ______ ____
ROOT
ATOM      1  O   UNL     1      -8.127 -11.424  15.821  0.00  0.00    -0.275 OA
ATOM      2  O   UNL     1      -6.756  -9.152  12.862  0.00  0.00    -0.273 OA
ATOM      3  O   UNL     1      -3.281 -12.284  10.401  0.00  0.00    -0.270 OA
ATOM      6  N   UNL     1      -6.273 -11.656  14.431  0.00  0.00    -0.298 N 
ATOM      7  N   UNL     1      -5.045 -11.762  11.804  0.00  0.00    -0.283 N 
ATOM      9  N   UNL     1      -6.180  -9.278  10.664  0.00  0.00    -0.283 N 
ATOM     11  C   UNL     1      -6.439 -11.365  11.951  0.00  0.00    +0.180 C 
ATOM     12  C   UNL     1      -7.077 -11.911  13.234  0.00  0.00    +0.139 C 
ATOM     13  C   UNL     1      -4.817 -11.660  14.266  0.00  0.00    +0.127 C 
ATOM     14  C   UNL     1      -4.384 -12.340  12.975  0.00  0.00    +0.128 C 
ATOM     17  C   UNL     1      -6.910 -11.433  15.655  0.00  0.00    +0.219 C 
ATOM     20  C   UNL     1      -6.446  -9.846  11.892  0.00  0.00    +0.239 C 
ATOM     21  C   UNL     1      -4.390 -11.774  10.576  0.00  0.00    +0.249 C 
ATOM     22  C   UNL     1      -5.035 -11.116   9.409  0.00  0.00    +0.059 A 
ATOM     23  C   UNL     1      -5.765  -9.918   9.477  0.00  0.00    +0.046 A 
ATOM     24  C   UNL     1      -4.722 -11.660   8.149  0.00  0.00    +0.023 A 
ATOM     25  C   UNL     1      -6.105  -9.259   8.283  0.00  0.00    +0.024 A 
ATOM     26  C   UNL     1      -5.108 -11.017   6.974  0.00  0.00    -0.017 A 
ATOM     27  C   UNL     1      -5.789  -9.808   7.041  0.00  0.00    +0.010 A 
ATOM     36  H   UNL     1      -6.405  -8.289  10.582  0.00  0.00    +0.155 HD
ENDROOT
BRANCH  26  28
ATOM      4  O   UNL     1      -2.068 -13.231   3.838  0.00  0.00    -0.453 OA
ATOM      5  O   UNL     1      -3.726 -13.264   2.090  0.00  0.00    -0.453 OA
ATOM     28  C   UNL     1      -4.782 -11.595   5.689  0.00  0.00    -0.014 A 
ATOM     29  C   UNL     1      -3.508 -12.130   5.472  0.00  0.00    +0.058 A 
ATOM     30  C   UNL     1      -5.749 -11.614   4.668  0.00  0.00    +0.012 A 
ATOM     31  C   UNL     1      -3.244 -12.670   4.230  0.00  0.00    +0.167 A 
ATOM     32  C   UNL     1      -4.191 -12.689   3.231  0.00  0.00    +0.166 A 
ATOM     33  C   UNL     1      -5.454 -12.168   3.420  0.00  0.00    +0.050 A 
ATOM     34  C   UNL     1      -2.381 -13.606   2.480  0.00  0.00    +0.466 C 
ENDBRANCH  26  28
BRANCH  17  10
ATOM      8  N   UNL     1      -5.577 -11.628  19.706  0.00  0.00    -0.316 NA
ATOM     10  C   UNL     1      -6.033 -11.205  16.850  0.00  0.00    +0.078 C 
ATOM     15  C   UNL     1      -5.545 -12.542  17.410  0.00  0.00    +0.028 C 
ATOM     16  C   UNL     1      -6.791 -10.422  17.921  0.00  0.00    +0.028 C 
ATOM     18  C   UNL     1      -4.778 -12.350  18.716  0.00  0.00    +0.081 C 
ATOM     19  C   UNL     1      -5.977 -10.311  19.208  0.00  0.00    +0.081 C 
ATOM     35  H   UNL     1      -6.416 -12.170  19.914  0.00  0.00    +0.122 HD
ENDBRANCH  17  10
TORSDOF 2
ENDMDL
