MODEL 1
REMARK VINA RESULT:      -6.5      0.000      0.000
REMARK  Name = 40777567
REMARK  9 active torsions:
REMARK  status: ('A' for Active; 'I' for Inactive)
REMARK    1  A    between atoms: N_2  and  C_8
REMARK    2  A    between atoms: N_2  and  C_14
REMARK    3  A    between atoms: N_3  and  C_16
REMARK    4  A    between atoms: C_6  and  C_9
REMARK    5  A    between atoms: C_12  and  C_15
REMARK    6  A    between atoms: C_13  and  C_17
REMARK    7  A    between atoms: C_14  and  C_18
REMARK    8  A    between atoms: C_16  and  C_19
REMARK    9  A    between atoms: C_19  and  C_24
REMARK                            x       y       z     vdW  Elec       q    Type
REMARK                         _______ _______ _______ _____ _____    ______ ____
ROOT
ATOM      6  C   UNL     1      12.376   9.589  20.506  0.00  0.00    +0.047 C 
ATOM      7  C   UNL     1      13.306   8.717  21.371  0.00  0.00    +0.035 C 
ATOM      8  C   UNL     1      12.905   7.259  21.095  0.00  0.00    +0.078 C 
ATOM     10  C   UNL     1      11.212   8.672  20.267  0.00  0.00    -0.021 C 
ATOM     11  C   UNL     1      11.506   7.406  20.580  0.00  0.00    -0.012 C 
ENDROOT
BRANCH   6   9
ATOM      3  N   UNL     1      11.258  12.457  22.492  0.00  0.00    -0.267 N 
ATOM      4  N   UNL     1      11.854  13.157  21.513  0.00  0.00    -0.176 NA
ATOM      9  C   UNL     1      12.019  10.907  21.155  0.00  0.00    +0.003 A 
ATOM     12  C   UNL     1      11.328  11.105  22.325  0.00  0.00    +0.040 A 
ATOM     13  C   UNL     1      12.317  12.205  20.699  0.00  0.00    +0.064 A 
ATOM     15  C   UNL     1      10.739  10.149  23.283  0.00  0.00    +0.065 C 
ATOM     17  C   UNL     1      13.050  12.587  19.479  0.00  0.00    +0.068 C 
BRANCH   3  16
ATOM     16  C   UNL     1      10.626  13.166  23.581  0.00  0.00    +0.158 C 
BRANCH  16  19
ATOM     19  C   UNL     1      11.623  13.833  24.532  0.00  0.00    +0.141 C 
BRANCH  19  24
ATOM      5  N   UNL     1      13.010  12.076  25.914  0.00  0.00    -0.197 NA
ATOM     24  C   UNL     1      12.398  12.851  25.304  0.00  0.00    +0.064 C 
ENDBRANCH  19  24
ENDBRANCH  16  19
ENDBRANCH   3  16
ENDBRANCH   6   9
BRANCH   8   2
ATOM      2  N   UNL     1      13.773   6.630  20.107  0.00  0.00    -0.306 NA
ATOM     26  H   UNL     1      13.209   6.300  19.325  0.00  0.00    +0.123 HD
BRANCH   2  14
ATOM     14  C   UNL     1      14.767   7.572  19.608  0.00  0.00    +0.117 C 
BRANCH  14  18
ATOM      1 CL   UNL     1      19.233   7.938  22.269  0.00  0.00    -0.084 Cl
ATOM     18  C   UNL     1      16.172   7.082  19.841  0.00  0.00    -0.032 A 
ATOM     20  C   UNL     1      16.959   7.668  20.831  0.00  0.00    +0.025 A 
ATOM     21  C   UNL     1      16.684   6.040  19.067  0.00  0.00    +0.005 A 
ATOM     22  C   UNL     1      18.260   7.213  21.048  0.00  0.00    +0.041 A 
ATOM     23  C   UNL     1      17.984   5.586  19.283  0.00  0.00    +0.002 A 
ATOM     25  C   UNL     1      18.772   6.172  20.274  0.00  0.00    +0.020 A 
ENDBRANCH  14  18
ENDBRANCH   2  14
ENDBRANCH   8   2
TORSDOF 7
ENDMDL
MODEL 2
REMARK VINA RESULT:      -6.3      1.333      2.299
REMARK  Name = 40777567
REMARK  9 active torsions:
REMARK  status: ('A' for Active; 'I' for Inactive)
REMARK    1  A    between atoms: N_2  and  C_8
REMARK    2  A    between atoms: N_2  and  C_14
REMARK    3  A    between atoms: N_3  and  C_16
REMARK    4  A    between atoms: C_6  and  C_9
REMARK    5  A    between atoms: C_12  and  C_15
REMARK    6  A    between atoms: C_13  and  C_17
REMARK    7  A    between atoms: C_14  and  C_18
REMARK    8  A    between atoms: C_16  and  C_19
REMARK    9  A    between atoms: C_19  and  C_24
REMARK                            x       y       z     vdW  Elec       q    Type
REMARK                         _______ _______ _______ _____ _____    ______ ____
ROOT
ATOM      6  C   UNL     1      12.784   9.816  20.323  0.00  0.00    +0.047 C 
ATOM      7  C   UNL     1      13.790   8.817  20.924  0.00  0.00    +0.035 C 
ATOM      8  C   UNL     1      13.871   7.642  19.936  0.00  0.00    +0.078 C 
ATOM     10  C   UNL     1      11.981   8.943  19.402  0.00  0.00    -0.021 C 
ATOM     11  C   UNL     1      12.579   7.766  19.189  0.00  0.00    -0.012 C 
ENDROOT
BRANCH   6   9
ATOM      3  N   UNL     1      11.030  12.077  22.609  0.00  0.00    -0.267 N 
ATOM      4  N   UNL     1      10.574  10.926  23.133  0.00  0.00    -0.176 NA
ATOM      9  C   UNL     1      11.973  10.548  21.367  0.00  0.00    +0.003 A 
ATOM     12  C   UNL     1      11.871  11.905  21.549  0.00  0.00    +0.040 A 
ATOM     13  C   UNL     1      11.154   9.996  22.370  0.00  0.00    +0.064 A 
ATOM     15  C   UNL     1      12.486  13.035  20.825  0.00  0.00    +0.065 C 
ATOM     17  C   UNL     1      10.892   8.571  22.640  0.00  0.00    +0.068 C 
BRANCH   3  16
ATOM     16  C   UNL     1      10.608  13.331  23.189  0.00  0.00    +0.158 C 
BRANCH  16  19
ATOM     19  C   UNL     1      10.367  13.253  24.699  0.00  0.00    +0.141 C 
BRANCH  19  24
ATOM      5  N   UNL     1      12.588  13.549  26.077  0.00  0.00    -0.197 NA
ATOM     24  C   UNL     1      11.608  13.418  25.469  0.00  0.00    +0.064 C 
ENDBRANCH  19  24
ENDBRANCH  16  19
ENDBRANCH   3  16
ENDBRANCH   6   9
BRANCH   8   2
ATOM      2  N   UNL     1      15.017   7.756  19.041  0.00  0.00    -0.306 NA
ATOM     26  H   UNL     1      15.586   8.554  19.323  0.00  0.00    +0.123 HD
BRANCH   2  14
ATOM     14  C   UNL     1      15.837   6.552  19.085  0.00  0.00    +0.117 C 
BRANCH  14  18
ATOM      1 CL   UNL     1      20.589   4.873  20.413  0.00  0.00    -0.084 Cl
ATOM     18  C   UNL     1      17.107   6.766  19.865  0.00  0.00    -0.032 A 
ATOM     20  C   UNL     1      18.139   5.830  19.787  0.00  0.00    +0.025 A 
ATOM     21  C   UNL     1      17.253   7.900  20.664  0.00  0.00    +0.005 A 
ATOM     22  C   UNL     1      19.316   6.029  20.508  0.00  0.00    +0.041 A 
ATOM     23  C   UNL     1      18.430   8.098  21.385  0.00  0.00    +0.002 A 
ATOM     25  C   UNL     1      19.462   7.163  21.307  0.00  0.00    +0.020 A 
ENDBRANCH  14  18
ENDBRANCH   2  14
ENDBRANCH   8   2
TORSDOF 7
ENDMDL
MODEL 3
REMARK VINA RESULT:      -6.2     26.880     29.724
REMARK  Name = 40777567
REMARK  9 active torsions:
REMARK  status: ('A' for Active; 'I' for Inactive)
REMARK    1  A    between atoms: N_2  and  C_8
REMARK    2  A    between atoms: N_2  and  C_14
REMARK    3  A    between atoms: N_3  and  C_16
REMARK    4  A    between atoms: C_6  and  C_9
REMARK    5  A    between atoms: C_12  and  C_15
REMARK    6  A    between atoms: C_13  and  C_17
REMARK    7  A    between atoms: C_14  and  C_18
REMARK    8  A    between atoms: C_16  and  C_19
REMARK    9  A    between atoms: C_19  and  C_24
REMARK                            x       y       z     vdW  Elec       q    Type
REMARK                         _______ _______ _______ _____ _____    ______ ____
ROOT
ATOM      6  C   UNL     1      -5.030 -11.035  15.766  0.00  0.00    +0.047 C 
ATOM      7  C   UNL     1      -5.036 -12.399  16.481  0.00  0.00    +0.035 C 
ATOM      8  C   UNL     1      -5.430 -12.117  17.940  0.00  0.00    +0.078 C 
ATOM     10  C   UNL     1      -4.857 -10.077  16.909  0.00  0.00    -0.021 C 
ATOM     11  C   UNL     1      -5.084 -10.667  18.088  0.00  0.00    -0.012 C 
ENDROOT
BRANCH   6   9
ATOM      3  N   UNL     1      -2.916 -10.840  12.781  0.00  0.00    -0.267 N 
ATOM      4  N   UNL     1      -1.933 -10.709  13.688  0.00  0.00    -0.176 NA
ATOM      9  C   UNL     1      -3.974 -10.930  14.689  0.00  0.00    +0.003 A 
ATOM     12  C   UNL     1      -4.157 -10.975  13.329  0.00  0.00    +0.040 A 
ATOM     13  C   UNL     1      -2.586 -10.765  14.851  0.00  0.00    +0.064 A 
ATOM     15  C   UNL     1      -5.378 -11.131  12.514  0.00  0.00    +0.065 C 
ATOM     17  C   UNL     1      -1.831 -10.655  16.112  0.00  0.00    +0.068 C 
BRANCH   3  16
ATOM     16  C   UNL     1      -2.584 -10.825  11.374  0.00  0.00    +0.158 C 
BRANCH  16  19
ATOM     19  C   UNL     1      -2.485  -9.415  10.788  0.00  0.00    +0.141 C 
BRANCH  19  24
ATOM      5  N   UNL     1      -4.362  -8.945   9.005  0.00  0.00    -0.197 NA
ATOM     24  C   UNL     1      -3.533  -9.152   9.792  0.00  0.00    +0.064 C 
ENDBRANCH  19  24
ENDBRANCH  16  19
ENDBRANCH   3  16
ENDBRANCH   6   9
BRANCH   8   2
ATOM      2  N   UNL     1      -6.849 -12.353  18.179  0.00  0.00    -0.306 NA
ATOM     26  H   UNL     1      -6.993 -13.336  18.405  0.00  0.00    +0.123 HD
BRANCH   2  14
ATOM     14  C   UNL     1      -7.336 -11.537  19.285  0.00  0.00    +0.117 C 
BRANCH  14  18
ATOM      1 CL   UNL     1     -12.187 -10.076  20.504  0.00  0.00    -0.084 Cl
ATOM     18  C   UNL     1      -8.583 -10.779  18.916  0.00  0.00    -0.032 A 
ATOM     20  C   UNL     1      -9.679 -10.779  19.780  0.00  0.00    +0.025 A 
ATOM     21  C   UNL     1      -8.643 -10.077  17.713  0.00  0.00    +0.005 A 
ATOM     22  C   UNL     1     -10.834 -10.075  19.440  0.00  0.00    +0.041 A 
ATOM     23  C   UNL     1      -9.799  -9.374  17.372  0.00  0.00    +0.002 A 
ATOM     25  C   UNL     1     -10.894  -9.373  18.236  0.00  0.00    +0.020 A 
ENDBRANCH  14  18
ENDBRANCH   2  14
ENDBRANCH   8   2
TORSDOF 7
ENDMDL
MODEL 4
REMARK VINA RESULT:      -6.1     27.364     29.780
REMARK  Name = 40777567
REMARK  9 active torsions:
REMARK  status: ('A' for Active; 'I' for Inactive)
REMARK    1  A    between atoms: N_2  and  C_8
REMARK    2  A    between atoms: N_2  and  C_14
REMARK    3  A    between atoms: N_3  and  C_16
REMARK    4  A    between atoms: C_6  and  C_9
REMARK    5  A    between atoms: C_12  and  C_15
REMARK    6  A    between atoms: C_13  and  C_17
REMARK    7  A    between atoms: C_14  and  C_18
REMARK    8  A    between atoms: C_16  and  C_19
REMARK    9  A    between atoms: C_19  and  C_24
REMARK                            x       y       z     vdW  Elec       q    Type
REMARK                         _______ _______ _______ _____ _____    ______ ____
ROOT
ATOM      6  C   UNL     1      -3.333 -10.685  11.831  0.00  0.00    +0.047 C 
ATOM      7  C   UNL     1      -4.208 -11.233  12.973  0.00  0.00    +0.035 C 
ATOM      8  C   UNL     1      -3.258 -11.500  14.152  0.00  0.00    +0.078 C 
ATOM     10  C   UNL     1      -1.970 -11.191  12.204  0.00  0.00    -0.021 C 
ATOM     11  C   UNL     1      -1.932 -11.625  13.468  0.00  0.00    -0.012 C 
ENDROOT
BRANCH   6   9
ATOM      3  N   UNL     1      -4.507 -11.132   8.390  0.00  0.00    -0.267 N 
ATOM      4  N   UNL     1      -4.443 -12.434   8.712  0.00  0.00    -0.176 NA
ATOM      9  C   UNL     1      -3.809 -11.105  10.459  0.00  0.00    +0.003 A 
ATOM     12  C   UNL     1      -4.138 -10.294   9.401  0.00  0.00    +0.040 A 
ATOM     13  C   UNL     1      -4.016 -12.412   9.977  0.00  0.00    +0.064 A 
ATOM     15  C   UNL     1      -4.134  -8.825   9.262  0.00  0.00    +0.065 C 
ATOM     17  C   UNL     1      -3.816 -13.682  10.698  0.00  0.00    +0.068 C 
BRANCH   3  16
ATOM     16  C   UNL     1      -4.941 -10.754   7.064  0.00  0.00    +0.158 C 
BRANCH  16  19
ATOM     19  C   UNL     1      -6.438 -10.446   6.979  0.00  0.00    +0.141 C 
BRANCH  19  24
ATOM      5  N   UNL     1      -6.973  -8.583   5.200  0.00  0.00    -0.197 NA
ATOM     24  C   UNL     1      -6.736  -9.406   5.984  0.00  0.00    +0.064 C 
ENDBRANCH  19  24
ENDBRANCH  16  19
ENDBRANCH   3  16
ENDBRANCH   6   9
BRANCH   8   2
ATOM      2  N   UNL     1      -3.260 -10.405  15.115  0.00  0.00    -0.306 NA
ATOM     26  H   UNL     1      -4.162  -9.930  15.084  0.00  0.00    +0.123 HD
BRANCH   2  14
ATOM     14  C   UNL     1      -3.032 -10.897  16.468  0.00  0.00    +0.117 C 
BRANCH  14  18
ATOM      1 CL   UNL     1      -7.896  -9.138  17.102  0.00  0.00    -0.084 Cl
ATOM     18  C   UNL     1      -4.283 -10.843  17.304  0.00  0.00    -0.032 A 
ATOM     20  C   UNL     1      -5.381 -10.102  16.866  0.00  0.00    +0.025 A 
ATOM     21  C   UNL     1      -4.344 -11.533  18.514  0.00  0.00    +0.005 A 
ATOM     22  C   UNL     1      -6.541 -10.053  17.640  0.00  0.00    +0.041 A 
ATOM     23  C   UNL     1      -5.503 -11.483  19.287  0.00  0.00    +0.002 A 
ATOM     25  C   UNL     1      -6.602 -10.744  18.850  0.00  0.00    +0.020 A 
ENDBRANCH  14  18
ENDBRANCH   2  14
ENDBRANCH   8   2
TORSDOF 7
ENDMDL
MODEL 5
REMARK VINA RESULT:      -6.1      3.132      7.233
REMARK  Name = 40777567
REMARK  9 active torsions:
REMARK  status: ('A' for Active; 'I' for Inactive)
REMARK    1  A    between atoms: N_2  and  C_8
REMARK    2  A    between atoms: N_2  and  C_14
REMARK    3  A    between atoms: N_3  and  C_16
REMARK    4  A    between atoms: C_6  and  C_9
REMARK    5  A    between atoms: C_12  and  C_15
REMARK    6  A    between atoms: C_13  and  C_17
REMARK    7  A    between atoms: C_14  and  C_18
REMARK    8  A    between atoms: C_16  and  C_19
REMARK    9  A    between atoms: C_19  and  C_24
REMARK                            x       y       z     vdW  Elec       q    Type
REMARK                         _______ _______ _______ _____ _____    ______ ____
ROOT
ATOM      6  C   UNL     1      15.034   8.192  20.171  0.00  0.00    +0.047 C 
ATOM      7  C   UNL     1      14.683   8.425  18.690  0.00  0.00    +0.035 C 
ATOM      8  C   UNL     1      13.278   7.835  18.484  0.00  0.00    +0.078 C 
ATOM     10  C   UNL     1      14.127   7.053  20.537  0.00  0.00    -0.021 C 
ATOM     11  C   UNL     1      13.170   6.868  19.622  0.00  0.00    -0.012 C 
ENDROOT
BRANCH   6   9
ATOM      3  N   UNL     1      18.587   8.042  21.050  0.00  0.00    -0.267 N 
ATOM      4  N   UNL     1      18.554   6.925  20.304  0.00  0.00    -0.176 NA
ATOM      9  C   UNL     1      16.504   7.928  20.402  0.00  0.00    +0.003 A 
ATOM     12  C   UNL     1      17.385   8.680  21.140  0.00  0.00    +0.040 A 
ATOM     13  C   UNL     1      17.280   6.861  19.912  0.00  0.00    +0.064 A 
ATOM     15  C   UNL     1      17.196   9.926  21.909  0.00  0.00    +0.065 C 
ATOM     17  C   UNL     1      16.840   5.744  19.055  0.00  0.00    +0.068 C 
BRANCH   3  16
ATOM     16  C   UNL     1      19.833   8.447  21.659  0.00  0.00    +0.158 C 
BRANCH  16  19
ATOM     19  C   UNL     1      20.037   7.875  23.065  0.00  0.00    +0.141 C 
BRANCH  19  24
ATOM      5  N   UNL     1      21.182   5.506  23.020  0.00  0.00    -0.197 NA
ATOM     24  C   UNL     1      20.676   6.551  23.039  0.00  0.00    +0.064 C 
ENDBRANCH  19  24
ENDBRANCH  16  19
ENDBRANCH   3  16
ENDBRANCH   6   9
BRANCH   8   2
ATOM      2  N   UNL     1      12.240   8.857  18.552  0.00  0.00    -0.306 NA
ATOM     26  H   UNL     1      11.757   8.907  17.656  0.00  0.00    +0.123 HD
BRANCH   2  14
ATOM     14  C   UNL     1      11.270   8.547  19.595  0.00  0.00    +0.117 C 
BRANCH  14  18
ATOM      1 CL   UNL     1      13.161  12.971  21.598  0.00  0.00    -0.084 Cl
ATOM     18  C   UNL     1      11.395   9.478  20.772  0.00  0.00    -0.032 A 
ATOM     20  C   UNL     1      12.133  10.656  20.654  0.00  0.00    +0.025 A 
ATOM     21  C   UNL     1      10.772   9.164  21.980  0.00  0.00    +0.005 A 
ATOM     22  C   UNL     1      12.248  11.519  21.743  0.00  0.00    +0.041 A 
ATOM     23  C   UNL     1      10.887  10.027  23.069  0.00  0.00    +0.002 A 
ATOM     25  C   UNL     1      11.625  11.205  22.951  0.00  0.00    +0.020 A 
ENDBRANCH  14  18
ENDBRANCH   2  14
ENDBRANCH   8   2
TORSDOF 7
ENDMDL
MODEL 6
REMARK VINA RESULT:      -6.1     29.541     31.520
REMARK  Name = 40777567
REMARK  9 active torsions:
REMARK  status: ('A' for Active; 'I' for Inactive)
REMARK    1  A    between atoms: N_2  and  C_8
REMARK    2  A    between atoms: N_2  and  C_14
REMARK    3  A    between atoms: N_3  and  C_16
REMARK    4  A    between atoms: C_6  and  C_9
REMARK    5  A    between atoms: C_12  and  C_15
REMARK    6  A    between atoms: C_13  and  C_17
REMARK    7  A    between atoms: C_14  and  C_18
REMARK    8  A    between atoms: C_16  and  C_19
REMARK    9  A    between atoms: C_19  and  C_24
REMARK                            x       y       z     vdW  Elec       q    Type
REMARK                         _______ _______ _______ _____ _____    ______ ____
ROOT
ATOM      6  C   UNL     1     -14.893   3.189  30.909  0.00  0.00    +0.047 C 
ATOM      7  C   UNL     1     -15.443   2.918  32.321  0.00  0.00    +0.035 C 
ATOM      8  C   UNL     1     -14.248   3.051  33.280  0.00  0.00    +0.078 C 
ATOM     10  C   UNL     1     -13.430   2.898  31.076  0.00  0.00    -0.021 C 
ATOM     11  C   UNL     1     -13.083   2.832  32.366  0.00  0.00    -0.012 C 
ENDROOT
BRANCH   6   9
ATOM      3  N   UNL     1     -16.713   1.737  28.081  0.00  0.00    -0.267 N 
ATOM      4  N   UNL     1     -16.330   0.578  28.643  0.00  0.00    -0.176 NA
ATOM      9  C   UNL     1     -15.580   2.377  29.835  0.00  0.00    +0.003 A 
ATOM     12  C   UNL     1     -16.289   2.844  28.756  0.00  0.00    +0.040 A 
ATOM     13  C   UNL     1     -15.639   0.976  29.714  0.00  0.00    +0.064 A 
ATOM     15  C   UNL     1     -16.597   4.218  28.312  0.00  0.00    +0.065 C 
ATOM     17  C   UNL     1     -15.043  -0.034  30.608  0.00  0.00    +0.068 C 
BRANCH   3  16
ATOM     16  C   UNL     1     -17.501   1.706  26.870  0.00  0.00    +0.158 C 
BRANCH  16  19
ATOM     19  C   UNL     1     -16.676   1.408  25.615  0.00  0.00    +0.141 C 
BRANCH  19  24
ATOM      5  N   UNL     1     -15.613   3.583  24.583  0.00  0.00    -0.197 NA
ATOM     24  C   UNL     1     -16.082   2.623  25.038  0.00  0.00    +0.064 C 
ENDBRANCH  19  24
ENDBRANCH  16  19
ENDBRANCH   3  16
ENDBRANCH   6   9
BRANCH   8   2
ATOM      2  N   UNL     1     -14.194   4.366  33.908  0.00  0.00    -0.306 NA
ATOM     26  H   UNL     1     -13.350   4.850  33.603  0.00  0.00    +0.123 HD
BRANCH   2  14
ATOM     14  C   UNL     1     -15.356   5.168  33.546  0.00  0.00    +0.117 C 
BRANCH  14  18
ATOM      1 CL   UNL     1     -11.582   8.453  32.089  0.00  0.00    -0.084 Cl
ATOM     18  C   UNL     1     -14.961   6.509  32.987  0.00  0.00    -0.032 A 
ATOM     20  C   UNL     1     -13.613   6.823  32.817  0.00  0.00    +0.025 A 
ATOM     21  C   UNL     1     -15.943   7.438  32.641  0.00  0.00    +0.005 A 
ATOM     22  C   UNL     1     -13.246   8.065  32.298  0.00  0.00    +0.041 A 
ATOM     23  C   UNL     1     -15.576   8.679  32.123  0.00  0.00    +0.002 A 
ATOM     25  C   UNL     1     -14.228   8.993  31.951  0.00  0.00    +0.020 A 
ENDBRANCH  14  18
ENDBRANCH   2  14
ENDBRANCH   8   2
TORSDOF 7
ENDMDL
MODEL 7
REMARK VINA RESULT:      -6.0     29.912     31.655
REMARK  Name = 40777567
REMARK  9 active torsions:
REMARK  status: ('A' for Active; 'I' for Inactive)
REMARK    1  A    between atoms: N_2  and  C_8
REMARK    2  A    between atoms: N_2  and  C_14
REMARK    3  A    between atoms: N_3  and  C_16
REMARK    4  A    between atoms: C_6  and  C_9
REMARK    5  A    between atoms: C_12  and  C_15
REMARK    6  A    between atoms: C_13  and  C_17
REMARK    7  A    between atoms: C_14  and  C_18
REMARK    8  A    between atoms: C_16  and  C_19
REMARK    9  A    between atoms: C_19  and  C_24
REMARK                            x       y       z     vdW  Elec       q    Type
REMARK                         _______ _______ _______ _____ _____    ______ ____
ROOT
ATOM      6  C   UNL     1     -15.386   3.359  31.145  0.00  0.00    +0.047 C 
ATOM      7  C   UNL     1     -15.736   2.923  32.580  0.00  0.00    +0.035 C 
ATOM      8  C   UNL     1     -14.637   3.505  33.484  0.00  0.00    +0.078 C 
ATOM     10  C   UNL     1     -13.914   3.636  31.246  0.00  0.00    -0.021 C 
ATOM     11  C   UNL     1     -13.513   3.723  32.519  0.00  0.00    -0.012 C 
ENDROOT
BRANCH   6   9
ATOM      3  N   UNL     1     -16.753   1.232  28.495  0.00  0.00    -0.267 N 
ATOM      4  N   UNL     1     -15.709   0.449  28.812  0.00  0.00    -0.176 NA
ATOM      9  C   UNL     1     -15.766   2.334  30.101  0.00  0.00    +0.003 A 
ATOM     12  C   UNL     1     -16.833   2.373  29.237  0.00  0.00    +0.040 A 
ATOM     13  C   UNL     1     -15.110   1.127  29.794  0.00  0.00    +0.064 A 
ATOM     15  C   UNL     1     -17.901   3.374  29.053  0.00  0.00    +0.065 C 
ATOM     17  C   UNL     1     -13.894   0.576  30.419  0.00  0.00    +0.068 C 
BRANCH   3  16
ATOM     16  C   UNL     1     -17.655   0.814  27.445  0.00  0.00    +0.158 C 
BRANCH  16  19
ATOM     19  C   UNL     1     -17.009   0.805  26.057  0.00  0.00    +0.141 C 
BRANCH  19  24
ATOM      5  N   UNL     1     -16.111   3.178  25.361  0.00  0.00    -0.197 NA
ATOM     24  C   UNL     1     -16.508   2.131  25.668  0.00  0.00    +0.064 C 
ENDBRANCH  19  24
ENDBRANCH  16  19
ENDBRANCH   3  16
ENDBRANCH   6   9
BRANCH   8   2
ATOM      2  N   UNL     1     -15.049   4.755  34.112  0.00  0.00    -0.306 NA
ATOM     26  H   UNL     1     -16.018   4.674  34.420  0.00  0.00    +0.123 HD
BRANCH   2  14
ATOM     14  C   UNL     1     -14.211   5.062  35.265  0.00  0.00    +0.117 C 
BRANCH  14  18
ATOM      1 CL   UNL     1     -13.126   9.227  32.327  0.00  0.00    -0.084 Cl
ATOM     18  C   UNL     1     -13.543   6.405  35.131  0.00  0.00    -0.032 A 
ATOM     20  C   UNL     1     -13.634   7.111  33.931  0.00  0.00    +0.025 A 
ATOM     21  C   UNL     1     -12.835   6.942  36.206  0.00  0.00    +0.005 A 
ATOM     22  C   UNL     1     -13.016   8.356  33.807  0.00  0.00    +0.041 A 
ATOM     23  C   UNL     1     -12.217   8.186  36.081  0.00  0.00    +0.002 A 
ATOM     25  C   UNL     1     -12.308   8.893  34.882  0.00  0.00    +0.020 A 
ENDBRANCH  14  18
ENDBRANCH   2  14
ENDBRANCH   8   2
TORSDOF 7
ENDMDL
MODEL 8
REMARK VINA RESULT:      -6.0     27.705     29.020
REMARK  Name = 40777567
REMARK  9 active torsions:
REMARK  status: ('A' for Active; 'I' for Inactive)
REMARK    1  A    between atoms: N_2  and  C_8
REMARK    2  A    between atoms: N_2  and  C_14
REMARK    3  A    between atoms: N_3  and  C_16
REMARK    4  A    between atoms: C_6  and  C_9
REMARK    5  A    between atoms: C_12  and  C_15
REMARK    6  A    between atoms: C_13  and  C_17
REMARK    7  A    between atoms: C_14  and  C_18
REMARK    8  A    between atoms: C_16  and  C_19
REMARK    9  A    between atoms: C_19  and  C_24
REMARK                            x       y       z     vdW  Elec       q    Type
REMARK                         _______ _______ _______ _____ _____    ______ ____
ROOT
ATOM      6  C   UNL     1      -4.380 -11.463  14.543  0.00  0.00    +0.047 C 
ATOM      7  C   UNL     1      -2.980 -10.824  14.469  0.00  0.00    +0.035 C 
ATOM      8  C   UNL     1      -2.023 -11.940  14.018  0.00  0.00    +0.078 C 
ATOM     10  C   UNL     1      -4.056 -12.922  14.690  0.00  0.00    -0.021 C 
ATOM     11  C   UNL     1      -2.777 -13.177  14.396  0.00  0.00    -0.012 C 
ENDROOT
BRANCH   6   9
ATOM      3  N   UNL     1      -6.830  -9.930  16.793  0.00  0.00    -0.267 N 
ATOM      4  N   UNL     1      -5.946 -10.295  17.736  0.00  0.00    -0.176 NA
ATOM      9  C   UNL     1      -5.239 -10.892  15.648  0.00  0.00    +0.003 A 
ATOM     12  C   UNL     1      -6.454 -10.264  15.525  0.00  0.00    +0.040 A 
ATOM     13  C   UNL     1      -4.977 -10.883  17.031  0.00  0.00    +0.064 A 
ATOM     15  C   UNL     1      -7.276  -9.956  14.339  0.00  0.00    +0.065 C 
ATOM     17  C   UNL     1      -3.800 -11.429  17.731  0.00  0.00    +0.068 C 
BRANCH   3  16
ATOM     16  C   UNL     1      -8.042  -9.248  17.188  0.00  0.00    +0.158 C 
BRANCH  16  19
ATOM     19  C   UNL     1      -9.208 -10.198  17.473  0.00  0.00    +0.141 C 
BRANCH  19  24
ATOM      5  N   UNL     1      -9.266 -10.979  19.984  0.00  0.00    -0.197 NA
ATOM     24  C   UNL     1      -9.240 -10.635  18.876  0.00  0.00    +0.064 C 
ENDBRANCH  19  24
ENDBRANCH  16  19
ENDBRANCH   3  16
ENDBRANCH   6   9
BRANCH   8   2
ATOM      2  N   UNL     1      -1.763 -11.891  12.584  0.00  0.00    -0.306 NA
ATOM     26  H   UNL     1      -2.442 -12.476  12.099  0.00  0.00    +0.123 HD
BRANCH   2  14
ATOM     14  C   UNL     1      -1.867 -10.528  12.079  0.00  0.00    +0.117 C 
BRANCH  14  18
ATOM      1 CL   UNL     1      -5.272 -12.867   8.901  0.00  0.00    -0.084 Cl
ATOM     18  C   UNL     1      -2.843 -10.425  10.937  0.00  0.00    -0.032 A 
ATOM     20  C   UNL     1      -3.526 -11.560  10.500  0.00  0.00    +0.025 A 
ATOM     21  C   UNL     1      -3.065  -9.195  10.316  0.00  0.00    +0.005 A 
ATOM     22  C   UNL     1      -4.431 -11.466   9.443  0.00  0.00    +0.041 A 
ATOM     23  C   UNL     1      -3.969  -9.101   9.259  0.00  0.00    +0.002 A 
ATOM     25  C   UNL     1      -4.653 -10.236   8.823  0.00  0.00    +0.020 A 
ENDBRANCH  14  18
ENDBRANCH   2  14
ENDBRANCH   8   2
TORSDOF 7
ENDMDL
MODEL 9
REMARK VINA RESULT:      -5.9     17.522     19.393
REMARK  Name = 40777567
REMARK  9 active torsions:
REMARK  status: ('A' for Active; 'I' for Inactive)
REMARK    1  A    between atoms: N_2  and  C_8
REMARK    2  A    between atoms: N_2  and  C_14
REMARK    3  A    between atoms: N_3  and  C_16
REMARK    4  A    between atoms: C_6  and  C_9
REMARK    5  A    between atoms: C_12  and  C_15
REMARK    6  A    between atoms: C_13  and  C_17
REMARK    7  A    between atoms: C_14  and  C_18
REMARK    8  A    between atoms: C_16  and  C_19
REMARK    9  A    between atoms: C_19  and  C_24
REMARK                            x       y       z     vdW  Elec       q    Type
REMARK                         _______ _______ _______ _____ _____    ______ ____
ROOT
ATOM      6  C   UNL     1      11.548   5.847   2.888  0.00  0.00    +0.047 C 
ATOM      7  C   UNL     1      11.394   4.348   2.572  0.00  0.00    +0.035 C 
ATOM      8  C   UNL     1      10.672   4.266   1.217  0.00  0.00    +0.078 C 
ATOM     10  C   UNL     1      10.467   6.462   2.046  0.00  0.00    -0.021 C 
ATOM     11  C   UNL     1      10.000   5.602   1.134  0.00  0.00    -0.012 C 
ENDROOT
BRANCH   6   9
ATOM      3  N   UNL     1      10.805   6.329   6.442  0.00  0.00    -0.267 N 
ATOM      4  N   UNL     1      11.994   6.953   6.436  0.00  0.00    -0.176 NA
ATOM      9  C   UNL     1      11.453   6.160   4.364  0.00  0.00    +0.003 A 
ATOM     12  C   UNL     1      10.435   5.836   5.225  0.00  0.00    +0.040 A 
ATOM     13  C   UNL     1      12.386   6.846   5.164  0.00  0.00    +0.064 A 
ATOM     15  C   UNL     1       9.166   5.114   5.007  0.00  0.00    +0.065 C 
ATOM     17  C   UNL     1      13.677   7.425   4.752  0.00  0.00    +0.068 C 
BRANCH   3  16
ATOM     16  C   UNL     1      10.061   6.241   7.678  0.00  0.00    +0.158 C 
BRANCH  16  19
ATOM     19  C   UNL     1       9.802   4.801   8.131  0.00  0.00    +0.141 C 
BRANCH  19  24
ATOM      5  N   UNL     1       9.908   4.548  10.747  0.00  0.00    -0.197 NA
ATOM     24  C   UNL     1       9.861   4.659   9.592  0.00  0.00    +0.064 C 
ENDBRANCH  19  24
ENDBRANCH  16  19
ENDBRANCH   3  16
ENDBRANCH   6   9
BRANCH   8   2
ATOM      2  N   UNL     1      11.603   4.069   0.112  0.00  0.00    -0.306 NA
ATOM     26  H   UNL     1      11.877   4.976  -0.263  0.00  0.00    +0.123 HD
BRANCH   2  14
ATOM     14  C   UNL     1      12.798   3.360   0.554  0.00  0.00    +0.117 C 
BRANCH  14  18
ATOM      1 CL   UNL     1      14.937   4.957  -3.921  0.00  0.00    -0.084 Cl
ATOM     18  C   UNL     1      14.023   3.798  -0.203  0.00  0.00    -0.032 A 
ATOM     20  C   UNL     1      13.924   4.135  -1.553  0.00  0.00    +0.025 A 
ATOM     21  C   UNL     1      15.257   3.868   0.445  0.00  0.00    +0.005 A 
ATOM     22  C   UNL     1      15.058   4.543  -2.255  0.00  0.00    +0.041 A 
ATOM     23  C   UNL     1      16.391   4.274  -0.257  0.00  0.00    +0.002 A 
ATOM     25  C   UNL     1      16.292   4.612  -1.607  0.00  0.00    +0.020 A 
ENDBRANCH  14  18
ENDBRANCH   2  14
ENDBRANCH   8   2
TORSDOF 7
ENDMDL
MODEL 10
REMARK VINA RESULT:      -5.8     19.221     21.983
REMARK  Name = 40777567
REMARK  9 active torsions:
REMARK  status: ('A' for Active; 'I' for Inactive)
REMARK    1  A    between atoms: N_2  and  C_8
REMARK    2  A    between atoms: N_2  and  C_14
REMARK    3  A    between atoms: N_3  and  C_16
REMARK    4  A    between atoms: C_6  and  C_9
REMARK    5  A    between atoms: C_12  and  C_15
REMARK    6  A    between atoms: C_13  and  C_17
REMARK    7  A    between atoms: C_14  and  C_18
REMARK    8  A    between atoms: C_16  and  C_19
REMARK    9  A    between atoms: C_19  and  C_24
REMARK                            x       y       z     vdW  Elec       q    Type
REMARK                         _______ _______ _______ _____ _____    ______ ____
ROOT
ATOM      6  C   UNL     1      10.627   5.135   0.732  0.00  0.00    +0.047 C 
ATOM      7  C   UNL     1      10.694   3.963   1.729  0.00  0.00    +0.035 C 
ATOM      8  C   UNL     1      11.183   4.557   3.059  0.00  0.00    +0.078 C 
ATOM     10  C   UNL     1      11.570   6.128   1.347  0.00  0.00    -0.021 C 
ATOM     11  C   UNL     1      11.863   5.815   2.614  0.00  0.00    -0.012 C 
ENDROOT
BRANCH   6   9
ATOM      3  N   UNL     1      10.948   4.420  -2.846  0.00  0.00    -0.267 N 
ATOM      4  N   UNL     1      12.097   3.843  -2.459  0.00  0.00    -0.176 NA
ATOM      9  C   UNL     1      10.968   4.734  -0.685  0.00  0.00    +0.003 A 
ATOM     12  C   UNL     1      10.234   4.969  -1.822  0.00  0.00    +0.040 A 
ATOM     13  C   UNL     1      12.104   4.038  -1.138  0.00  0.00    +0.064 A 
ATOM     15  C   UNL     1       8.942   5.654  -2.024  0.00  0.00    +0.065 C 
ATOM     17  C   UNL     1      13.234   3.533  -0.336  0.00  0.00    +0.068 C 
BRANCH   3  16
ATOM     16  C   UNL     1      10.589   4.408  -4.246  0.00  0.00    +0.158 C 
BRANCH  16  19
ATOM     19  C   UNL     1      10.475   2.998  -4.832  0.00  0.00    +0.141 C 
BRANCH  19  24
ATOM      5  N   UNL     1       8.982   1.421  -3.348  0.00  0.00    -0.197 NA
ATOM     24  C   UNL     1       9.641   2.117  -4.003  0.00  0.00    +0.064 C 
ENDBRANCH  19  24
ENDBRANCH  16  19
ENDBRANCH   3  16
ENDBRANCH   6   9
BRANCH   8   2
ATOM      2  N   UNL     1      10.080   4.842   3.970  0.00  0.00    -0.306 NA
ATOM     26  H   UNL     1      10.168   4.255   4.799  0.00  0.00    +0.123 HD
BRANCH   2  14
ATOM     14  C   UNL     1      10.086   6.241   4.378  0.00  0.00    +0.117 C 
BRANCH  14  18
ATOM      1 CL   UNL     1       9.524   4.125   9.107  0.00  0.00    -0.084 Cl
ATOM     18  C   UNL     1       9.705   6.406   5.825  0.00  0.00    -0.032 A 
ATOM     20  C   UNL     1       9.782   5.317   6.694  0.00  0.00    +0.025 A 
ATOM     21  C   UNL     1       9.275   7.646   6.298  0.00  0.00    +0.005 A 
ATOM     22  C   UNL     1       9.431   5.469   8.035  0.00  0.00    +0.041 A 
ATOM     23  C   UNL     1       8.924   7.798   7.638  0.00  0.00    +0.002 A 
ATOM     25  C   UNL     1       9.002   6.709   8.507  0.00  0.00    +0.020 A 
ENDBRANCH  14  18
ENDBRANCH   2  14
ENDBRANCH   8   2
TORSDOF 7
ENDMDL
