MODEL 1
REMARK VINA RESULT:      -5.2      0.000      0.000
REMARK  Name = 56775440
REMARK  11 active torsions:
REMARK  status: ('A' for Active; 'I' for Inactive)
REMARK    1  A    between atoms: N_3  and  C_6
REMARK    2  A    between atoms: N_3  and  C_10
REMARK    3  A    between atoms: N_5  and  C_17
REMARK    4  A    between atoms: N_5  and  C_18
REMARK    5  A    between atoms: N_5  and  C_19
REMARK    6  A    between atoms: C_6  and  C_9
REMARK    7  A    between atoms: C_9  and  C_11
REMARK    8  A    between atoms: C_10  and  C_12
REMARK    9  A    between atoms: C_12  and  C_14
REMARK   10  A    between atoms: C_12  and  C_15
REMARK   11  A    between atoms: C_16  and  C_17
REMARK                            x       y       z     vdW  Elec       q    Type
REMARK                         _______ _______ _______ _____ _____    ______ ____
ROOT
ATOM      1  O   UNL     1      10.673   8.614  21.260  0.00  0.00    -0.376 OA
ATOM      6  C   UNL     1      12.400   7.584  20.543  0.00  0.00    +0.072 C 
ATOM      7  C   UNL     1      11.777   8.968  20.395  0.00  0.00    +0.184 C 
ATOM      8  C   UNL     1      11.259   7.318  21.518  0.00  0.00    +0.184 C 
ENDROOT
BRANCH   6   3
ATOM      3  N   UNL     1      13.649   7.707  21.300  0.00  0.00    -0.306 NA
ATOM     20  H   UNL     1      13.544   7.747  22.312  0.00  0.00    +0.123 HD
BRANCH   3  10
ATOM     10  C   UNL     1      14.552   6.625  20.922  0.00  0.00    +0.084 C 
BRANCH  10  12
ATOM     12  C   UNL     1      16.005   7.102  20.757  0.00  0.00    -0.003 C 
ATOM     14  C   UNL     1      16.637   6.418  19.542  0.00  0.00    +0.008 C 
ATOM     15  C   UNL     1      16.111   8.621  20.605  0.00  0.00    +0.008 C 
ENDBRANCH  10  12
ENDBRANCH   3  10
ENDBRANCH   6   3
BRANCH   6   9
ATOM      9  C   UNL     1      12.536   6.716  19.330  0.00  0.00    +0.085 C 
BRANCH   9  11
ATOM      2  O   UNL     1      12.276   8.524  16.213  0.00  0.00    -0.358 OA
ATOM      4  N   UNL     1      11.752   7.712  17.211  0.00  0.00    -0.083 NA
ATOM     11  C   UNL     1      12.748   7.556  18.088  0.00  0.00    +0.086 A 
ATOM     13  C   UNL     1      13.913   8.241  17.700  0.00  0.00    +0.072 A 
ATOM     16  C   UNL     1      13.563   8.833  16.515  0.00  0.00    +0.151 A 
BRANCH  16  17
ATOM     17  C   UNL     1      14.272   9.691  15.559  0.00  0.00    +0.161 C 
BRANCH  17   5
ATOM      5  N   UNL     1      14.051  11.129  15.795  0.00  0.00    -0.301 NA
ATOM     18  C   UNL     1      13.891  11.826  14.524  0.00  0.00    +0.105 C 
ATOM     19  C   UNL     1      15.162  11.688  16.557  0.00  0.00    +0.105 C 
ENDBRANCH  17   5
ENDBRANCH  16  17
ENDBRANCH   9  11
ENDBRANCH   6   9
TORSDOF 7
ENDMDL
MODEL 2
REMARK VINA RESULT:      -5.0      2.406      5.458
REMARK  Name = 56775440
REMARK  11 active torsions:
REMARK  status: ('A' for Active; 'I' for Inactive)
REMARK    1  A    between atoms: N_3  and  C_6
REMARK    2  A    between atoms: N_3  and  C_10
REMARK    3  A    between atoms: N_5  and  C_17
REMARK    4  A    between atoms: N_5  and  C_18
REMARK    5  A    between atoms: N_5  and  C_19
REMARK    6  A    between atoms: C_6  and  C_9
REMARK    7  A    between atoms: C_9  and  C_11
REMARK    8  A    between atoms: C_10  and  C_12
REMARK    9  A    between atoms: C_12  and  C_14
REMARK   10  A    between atoms: C_12  and  C_15
REMARK   11  A    between atoms: C_16  and  C_17
REMARK                            x       y       z     vdW  Elec       q    Type
REMARK                         _______ _______ _______ _____ _____    ______ ____
ROOT
ATOM      1  O   UNL     1      13.622  10.260  16.969  0.00  0.00    -0.376 OA
ATOM      6  C   UNL     1      13.050   8.876  18.490  0.00  0.00    +0.072 C 
ATOM      7  C   UNL     1      14.216   9.819  18.211  0.00  0.00    +0.184 C 
ATOM      8  C   UNL     1      12.445   9.459  17.218  0.00  0.00    +0.184 C 
ENDROOT
BRANCH   6   3
ATOM      3  N   UNL     1      12.300   9.380  19.644  0.00  0.00    -0.306 NA
ATOM     20  H   UNL     1      12.015  10.356  19.586  0.00  0.00    +0.123 HD
BRANCH   3  10
ATOM     10  C   UNL     1      11.144   8.523  19.881  0.00  0.00    +0.084 C 
BRANCH  10  12
ATOM     12  C   UNL     1      10.758   8.453  21.368  0.00  0.00    -0.003 C 
ATOM     14  C   UNL     1      10.654   6.990  21.807  0.00  0.00    +0.008 C 
ATOM     15  C   UNL     1      11.752   9.190  22.268  0.00  0.00    +0.008 C 
ENDBRANCH  10  12
ENDBRANCH   3  10
ENDBRANCH   6   3
BRANCH   6   9
ATOM      9  C   UNL     1      13.309   7.402  18.561  0.00  0.00    +0.085 C 
BRANCH   9  11
ATOM      2  O   UNL     1      15.554   6.794  21.326  0.00  0.00    -0.358 OA
ATOM      4  N   UNL     1      14.305   7.097  20.800  0.00  0.00    -0.083 NA
ATOM     11  C   UNL     1      14.480   7.105  19.476  0.00  0.00    +0.086 A 
ATOM     13  C   UNL     1      15.807   6.818  19.111  0.00  0.00    +0.072 A 
ATOM     16  C   UNL     1      16.441   6.630  20.311  0.00  0.00    +0.151 A 
BRANCH  16  17
ATOM     17  C   UNL     1      17.819   6.303  20.692  0.00  0.00    +0.161 C 
BRANCH  17   5
ATOM      5  N   UNL     1      18.351   7.174  21.754  0.00  0.00    -0.301 NA
ATOM     18  C   UNL     1      18.538   8.528  21.245  0.00  0.00    +0.105 C 
ATOM     19  C   UNL     1      19.606   6.633  22.263  0.00  0.00    +0.105 C 
ENDBRANCH  17   5
ENDBRANCH  16  17
ENDBRANCH   9  11
ENDBRANCH   6   9
TORSDOF 7
ENDMDL
MODEL 3
REMARK VINA RESULT:      -4.6      1.592      2.387
REMARK  Name = 56775440
REMARK  11 active torsions:
REMARK  status: ('A' for Active; 'I' for Inactive)
REMARK    1  A    between atoms: N_3  and  C_6
REMARK    2  A    between atoms: N_3  and  C_10
REMARK    3  A    between atoms: N_5  and  C_17
REMARK    4  A    between atoms: N_5  and  C_18
REMARK    5  A    between atoms: N_5  and  C_19
REMARK    6  A    between atoms: C_6  and  C_9
REMARK    7  A    between atoms: C_9  and  C_11
REMARK    8  A    between atoms: C_10  and  C_12
REMARK    9  A    between atoms: C_12  and  C_14
REMARK   10  A    between atoms: C_12  and  C_15
REMARK   11  A    between atoms: C_16  and  C_17
REMARK                            x       y       z     vdW  Elec       q    Type
REMARK                         _______ _______ _______ _____ _____    ______ ____
ROOT
ATOM      1  O   UNL     1      11.615   9.111  19.691  0.00  0.00    -0.376 OA
ATOM      6  C   UNL     1      13.343   8.214  18.817  0.00  0.00    +0.072 C 
ATOM      7  C   UNL     1      12.800   9.621  19.038  0.00  0.00    +0.184 C 
ATOM      8  C   UNL     1      12.116   7.758  19.598  0.00  0.00    +0.184 C 
ENDROOT
BRANCH   6   3
ATOM      3  N   UNL     1      14.532   8.030  19.655  0.00  0.00    -0.306 NA
ATOM     20  H   UNL     1      14.347   7.769  20.622  0.00  0.00    +0.123 HD
BRANCH   3  10
ATOM     10  C   UNL     1      15.422   7.060  19.025  0.00  0.00    +0.084 C 
BRANCH  10  12
ATOM     12  C   UNL     1      16.743   6.889  19.794  0.00  0.00    -0.003 C 
ATOM     14  C   UNL     1      16.449   6.577  21.264  0.00  0.00    +0.008 C 
ATOM     15  C   UNL     1      17.629   5.791  19.202  0.00  0.00    +0.008 C 
ENDBRANCH  10  12
ENDBRANCH   3  10
ENDBRANCH   6   3
BRANCH   6   9
ATOM      9  C   UNL     1      13.535   7.722  17.416  0.00  0.00    +0.085 C 
BRANCH   9  11
ATOM      2  O   UNL     1      12.800  10.120  14.815  0.00  0.00    -0.358 OA
ATOM      4  N   UNL     1      12.519   8.970  15.544  0.00  0.00    -0.083 NA
ATOM     11  C   UNL     1      13.511   8.874  16.433  0.00  0.00    +0.086 A 
ATOM     13  C   UNL     1      14.438   9.925  16.314  0.00  0.00    +0.072 A 
ATOM     16  C   UNL     1      13.944  10.679  15.283  0.00  0.00    +0.151 A 
BRANCH  16  17
ATOM     17  C   UNL     1      14.389  11.910  14.621  0.00  0.00    +0.161 C 
BRANCH  17   5
ATOM      5  N   UNL     1      13.736  12.140  13.320  0.00  0.00    -0.301 NA
ATOM     18  C   UNL     1      14.742  12.325  12.280  0.00  0.00    +0.105 C 
ATOM     19  C   UNL     1      12.853  13.298  13.401  0.00  0.00    +0.105 C 
ENDBRANCH  17   5
ENDBRANCH  16  17
ENDBRANCH   9  11
ENDBRANCH   6   9
TORSDOF 7
ENDMDL
MODEL 4
REMARK VINA RESULT:      -4.4     11.777     14.249
REMARK  Name = 56775440
REMARK  11 active torsions:
REMARK  status: ('A' for Active; 'I' for Inactive)
REMARK    1  A    between atoms: N_3  and  C_6
REMARK    2  A    between atoms: N_3  and  C_10
REMARK    3  A    between atoms: N_5  and  C_17
REMARK    4  A    between atoms: N_5  and  C_18
REMARK    5  A    between atoms: N_5  and  C_19
REMARK    6  A    between atoms: C_6  and  C_9
REMARK    7  A    between atoms: C_9  and  C_11
REMARK    8  A    between atoms: C_10  and  C_12
REMARK    9  A    between atoms: C_12  and  C_14
REMARK   10  A    between atoms: C_12  and  C_15
REMARK   11  A    between atoms: C_16  and  C_17
REMARK                            x       y       z     vdW  Elec       q    Type
REMARK                         _______ _______ _______ _____ _____    ______ ____
ROOT
ATOM      1  O   UNL     1       9.033   9.888   6.131  0.00  0.00    -0.376 OA
ATOM      6  C   UNL     1       9.824   8.004   6.749  0.00  0.00    +0.072 C 
ATOM      7  C   UNL     1       9.618   9.387   7.355  0.00  0.00    +0.184 C 
ATOM      8  C   UNL     1       9.112   8.576   5.528  0.00  0.00    +0.184 C 
ENDROOT
BRANCH   6   3
ATOM      3  N   UNL     1       8.926   7.057   7.417  0.00  0.00    -0.306 NA
ATOM     20  H   UNL     1       8.507   6.353   6.813  0.00  0.00    +0.123 HD
BRANCH   3  10
ATOM     10  C   UNL     1       9.631   6.424   8.527  0.00  0.00    +0.084 C 
BRANCH  10  12
ATOM     12  C   UNL     1       9.065   5.036   8.869  0.00  0.00    -0.003 C 
ATOM     14  C   UNL     1       9.844   3.959   8.108  0.00  0.00    +0.008 C 
ATOM     15  C   UNL     1       9.105   4.737  10.369  0.00  0.00    +0.008 C 
ENDBRANCH  10  12
ENDBRANCH   3  10
ENDBRANCH   6   3
BRANCH   6   9
ATOM      9  C   UNL     1      11.218   7.478   6.596  0.00  0.00    +0.085 C 
BRANCH   9  11
ATOM      2  O   UNL     1      10.999   5.008   3.968  0.00  0.00    -0.358 OA
ATOM      4  N   UNL     1      10.661   5.504   5.221  0.00  0.00    -0.083 NA
ATOM     11  C   UNL     1      11.344   6.646   5.335  0.00  0.00    +0.086 A 
ATOM     13  C   UNL     1      12.121   6.921   4.197  0.00  0.00    +0.072 A 
ATOM     16  C   UNL     1      11.869   5.860   3.367  0.00  0.00    +0.151 A 
BRANCH  16  17
ATOM     17  C   UNL     1      12.331   5.486   2.026  0.00  0.00    +0.161 C 
BRANCH  17   5
ATOM      5  N   UNL     1      11.941   4.120   1.637  0.00  0.00    -0.301 NA
ATOM     18  C   UNL     1      13.128   3.295   1.443  0.00  0.00    +0.105 C 
ATOM     19  C   UNL     1      11.131   4.157   0.423  0.00  0.00    +0.105 C 
ENDBRANCH  17   5
ENDBRANCH  16  17
ENDBRANCH   9  11
ENDBRANCH   6   9
TORSDOF 7
ENDMDL
MODEL 5
REMARK VINA RESULT:      -4.4      5.643      7.832
REMARK  Name = 56775440
REMARK  11 active torsions:
REMARK  status: ('A' for Active; 'I' for Inactive)
REMARK    1  A    between atoms: N_3  and  C_6
REMARK    2  A    between atoms: N_3  and  C_10
REMARK    3  A    between atoms: N_5  and  C_17
REMARK    4  A    between atoms: N_5  and  C_18
REMARK    5  A    between atoms: N_5  and  C_19
REMARK    6  A    between atoms: C_6  and  C_9
REMARK    7  A    between atoms: C_9  and  C_11
REMARK    8  A    between atoms: C_10  and  C_12
REMARK    9  A    between atoms: C_12  and  C_14
REMARK   10  A    between atoms: C_12  and  C_15
REMARK   11  A    between atoms: C_16  and  C_17
REMARK                            x       y       z     vdW  Elec       q    Type
REMARK                         _______ _______ _______ _____ _____    ______ ____
ROOT
ATOM      1  O   UNL     1      22.625   8.015  21.088  0.00  0.00    -0.376 OA
ATOM      6  C   UNL     1      21.374   6.286  21.064  0.00  0.00    +0.072 C 
ATOM      7  C   UNL     1      21.505   7.587  20.280  0.00  0.00    +0.184 C 
ATOM      8  C   UNL     1      22.615   6.761  21.809  0.00  0.00    +0.184 C 
ENDROOT
BRANCH   6   3
ATOM      3  N   UNL     1      21.746   5.168  20.190  0.00  0.00    -0.306 NA
ATOM     20  H   UNL     1      22.730   5.124  19.935  0.00  0.00    +0.123 HD
BRANCH   3  10
ATOM     10  C   UNL     1      21.319   3.914  20.802  0.00  0.00    +0.084 C 
BRANCH  10  12
ATOM     12  C   UNL     1      22.502   3.078  21.316  0.00  0.00    -0.003 C 
ATOM     14  C   UNL     1      23.795   3.541  20.639  0.00  0.00    +0.008 C 
ATOM     15  C   UNL     1      22.661   3.157  22.836  0.00  0.00    +0.008 C 
ENDBRANCH  10  12
ENDBRANCH   3  10
ENDBRANCH   6   3
BRANCH   6   9
ATOM      9  C   UNL     1      20.117   6.028  21.837  0.00  0.00    +0.085 C 
BRANCH   9  11
ATOM      2  O   UNL     1      17.458   6.254  19.402  0.00  0.00    -0.358 OA
ATOM      4  N   UNL     1      18.622   5.684  19.903  0.00  0.00    -0.083 NA
ATOM     11  C   UNL     1      18.896   6.377  21.011  0.00  0.00    +0.086 A 
ATOM     13  C   UNL     1      17.948   7.386  21.258  0.00  0.00    +0.072 A 
ATOM     16  C   UNL     1      17.066   7.266  20.217  0.00  0.00    +0.151 A 
BRANCH  16  17
ATOM     17  C   UNL     1      15.844   7.980  19.833  0.00  0.00    +0.161 C 
BRANCH  17   5
ATOM      5  N   UNL     1      14.826   7.106  19.225  0.00  0.00    -0.301 NA
ATOM     18  C   UNL     1      14.350   7.685  17.974  0.00  0.00    +0.105 C 
ATOM     19  C   UNL     1      13.721   6.901  20.156  0.00  0.00    +0.105 C 
ENDBRANCH  17   5
ENDBRANCH  16  17
ENDBRANCH   9  11
ENDBRANCH   6   9
TORSDOF 7
ENDMDL
MODEL 6
REMARK VINA RESULT:      -4.4      3.457      6.278
REMARK  Name = 56775440
REMARK  11 active torsions:
REMARK  status: ('A' for Active; 'I' for Inactive)
REMARK    1  A    between atoms: N_3  and  C_6
REMARK    2  A    between atoms: N_3  and  C_10
REMARK    3  A    between atoms: N_5  and  C_17
REMARK    4  A    between atoms: N_5  and  C_18
REMARK    5  A    between atoms: N_5  and  C_19
REMARK    6  A    between atoms: C_6  and  C_9
REMARK    7  A    between atoms: C_9  and  C_11
REMARK    8  A    between atoms: C_10  and  C_12
REMARK    9  A    between atoms: C_12  and  C_14
REMARK   10  A    between atoms: C_12  and  C_15
REMARK   11  A    between atoms: C_16  and  C_17
REMARK                            x       y       z     vdW  Elec       q    Type
REMARK                         _______ _______ _______ _____ _____    ______ ____
ROOT
ATOM      1  O   UNL     1      14.424   6.486  20.603  0.00  0.00    -0.376 OA
ATOM      6  C   UNL     1      13.194   8.122  19.998  0.00  0.00    +0.072 C 
ATOM      7  C   UNL     1      14.421   7.387  19.472  0.00  0.00    +0.184 C 
ATOM      8  C   UNL     1      13.206   7.077  21.108  0.00  0.00    +0.184 C 
ENDROOT
BRANCH   6   3
ATOM      3  N   UNL     1      12.062   7.850  19.106  0.00  0.00    -0.306 NA
ATOM     20  H   UNL     1      11.199   7.571  19.570  0.00  0.00    +0.123 HD
BRANCH   3  10
ATOM     10  C   UNL     1      11.832   9.010  18.251  0.00  0.00    +0.084 C 
BRANCH  10  12
ATOM     12  C   UNL     1      11.892   8.657  16.755  0.00  0.00    -0.003 C 
ATOM     14  C   UNL     1      10.481   8.689  16.161  0.00  0.00    +0.008 C 
ATOM     15  C   UNL     1      12.804   9.598  15.965  0.00  0.00    +0.008 C 
ENDBRANCH  10  12
ENDBRANCH   3  10
ENDBRANCH   6   3
BRANCH   6   9
ATOM      9  C   UNL     1      13.315   9.570  20.363  0.00  0.00    +0.085 C 
BRANCH   9  11
ATOM      2  O   UNL     1      10.558   9.985  22.661  0.00  0.00    -0.358 OA
ATOM      4  N   UNL     1      11.114   9.508  21.481  0.00  0.00    -0.083 NA
ATOM     11  C   UNL     1      12.386   9.916  21.509  0.00  0.00    +0.086 A 
ATOM     13  C   UNL     1      12.687  10.646  22.671  0.00  0.00    +0.072 A 
ATOM     16  C   UNL     1      11.504  10.661  23.362  0.00  0.00    +0.151 A 
BRANCH  16  17
ATOM     17  C   UNL     1      11.083  11.235  24.644  0.00  0.00    +0.161 C 
BRANCH  17   5
ATOM      5  N   UNL     1      10.318  12.486  24.498  0.00  0.00    -0.301 NA
ATOM     18  C   UNL     1      10.670  13.146  23.247  0.00  0.00    +0.105 C 
ATOM     19  C   UNL     1      10.570  13.363  25.637  0.00  0.00    +0.105 C 
ENDBRANCH  17   5
ENDBRANCH  16  17
ENDBRANCH   9  11
ENDBRANCH   6   9
TORSDOF 7
ENDMDL
MODEL 7
REMARK VINA RESULT:      -4.3     25.086     27.322
REMARK  Name = 56775440
REMARK  11 active torsions:
REMARK  status: ('A' for Active; 'I' for Inactive)
REMARK    1  A    between atoms: N_3  and  C_6
REMARK    2  A    between atoms: N_3  and  C_10
REMARK    3  A    between atoms: N_5  and  C_17
REMARK    4  A    between atoms: N_5  and  C_18
REMARK    5  A    between atoms: N_5  and  C_19
REMARK    6  A    between atoms: C_6  and  C_9
REMARK    7  A    between atoms: C_9  and  C_11
REMARK    8  A    between atoms: C_10  and  C_12
REMARK    9  A    between atoms: C_12  and  C_14
REMARK   10  A    between atoms: C_12  and  C_15
REMARK   11  A    between atoms: C_16  and  C_17
REMARK                            x       y       z     vdW  Elec       q    Type
REMARK                         _______ _______ _______ _____ _____    ______ ____
ROOT
ATOM      1  O   UNL     1      -2.152 -14.050  14.215  0.00  0.00    -0.376 OA
ATOM      6  C   UNL     1      -2.707 -11.993  14.081  0.00  0.00    +0.072 C 
ATOM      7  C   UNL     1      -1.490 -12.851  13.751  0.00  0.00    +0.184 C 
ATOM      8  C   UNL     1      -3.370 -13.311  14.462  0.00  0.00    +0.184 C 
ENDROOT
BRANCH   6   3
ATOM      3  N   UNL     1      -3.298 -11.511  12.828  0.00  0.00    -0.306 NA
ATOM     20  H   UNL     1      -4.313 -11.570  12.775  0.00  0.00    +0.123 HD
BRANCH   3  10
ATOM     10  C   UNL     1      -2.850 -10.146  12.576  0.00  0.00    +0.084 C 
BRANCH  10  12
ATOM     12  C   UNL     1      -2.183  -9.991  11.199  0.00  0.00    -0.003 C 
ATOM     14  C   UNL     1      -3.166  -9.345  10.219  0.00  0.00    +0.008 C 
ATOM     15  C   UNL     1      -0.897  -9.163  11.259  0.00  0.00    +0.008 C 
ENDBRANCH  10  12
ENDBRANCH   3  10
ENDBRANCH   6   3
BRANCH   6   9
ATOM      9  C   UNL     1      -2.579 -10.919  15.117  0.00  0.00    +0.085 C 
BRANCH   9  11
ATOM      2  O   UNL     1      -5.965 -10.217  16.164  0.00  0.00    -0.358 OA
ATOM      4  N   UNL     1      -4.960 -10.269  15.207  0.00  0.00    -0.083 NA
ATOM     11  C   UNL     1      -3.887 -10.728  15.857  0.00  0.00    +0.086 A 
ATOM     13  C   UNL     1      -4.153 -10.980  17.214  0.00  0.00    +0.072 A 
ATOM     16  C   UNL     1      -5.474 -10.643  17.355  0.00  0.00    +0.151 A 
BRANCH  16  17
ATOM     17  C   UNL     1      -6.410 -10.653  18.484  0.00  0.00    +0.161 C 
BRANCH  17   5
ATOM      5  N   UNL     1      -7.424 -11.718  18.389  0.00  0.00    -0.301 NA
ATOM     18  C   UNL     1      -8.730 -11.142  18.090  0.00  0.00    +0.105 C 
ATOM     19  C   UNL     1      -7.465 -12.482  19.632  0.00  0.00    +0.105 C 
ENDBRANCH  17   5
ENDBRANCH  16  17
ENDBRANCH   9  11
ENDBRANCH   6   9
TORSDOF 7
ENDMDL
MODEL 8
REMARK VINA RESULT:      -4.2     12.375     14.964
REMARK  Name = 56775440
REMARK  11 active torsions:
REMARK  status: ('A' for Active; 'I' for Inactive)
REMARK    1  A    between atoms: N_3  and  C_6
REMARK    2  A    between atoms: N_3  and  C_10
REMARK    3  A    between atoms: N_5  and  C_17
REMARK    4  A    between atoms: N_5  and  C_18
REMARK    5  A    between atoms: N_5  and  C_19
REMARK    6  A    between atoms: C_6  and  C_9
REMARK    7  A    between atoms: C_9  and  C_11
REMARK    8  A    between atoms: C_10  and  C_12
REMARK    9  A    between atoms: C_12  and  C_14
REMARK   10  A    between atoms: C_12  and  C_15
REMARK   11  A    between atoms: C_16  and  C_17
REMARK                            x       y       z     vdW  Elec       q    Type
REMARK                         _______ _______ _______ _____ _____    ______ ____
ROOT
ATOM      1  O   UNL     1      10.893   5.450   8.901  0.00  0.00    -0.376 OA
ATOM      6  C   UNL     1       9.843   6.176   7.190  0.00  0.00    +0.072 C 
ATOM      7  C   UNL     1       9.499   5.680   8.591  0.00  0.00    +0.184 C 
ATOM      8  C   UNL     1      11.293   5.997   7.624  0.00  0.00    +0.184 C 
ENDROOT
BRANCH   6   3
ATOM      3  N   UNL     1       9.547   7.610   7.111  0.00  0.00    -0.306 NA
ATOM     20  H   UNL     1      10.213   8.163   6.575  0.00  0.00    +0.123 HD
BRANCH   3  10
ATOM     10  C   UNL     1       8.195   7.796   6.596  0.00  0.00    +0.084 C 
BRANCH  10  12
ATOM     12  C   UNL     1       8.112   8.929   5.559  0.00  0.00    -0.003 C 
ATOM     14  C   UNL     1       9.392   9.767   5.605  0.00  0.00    +0.008 C 
ATOM     15  C   UNL     1       7.889   8.408   4.137  0.00  0.00    +0.008 C 
ENDBRANCH  10  12
ENDBRANCH   3  10
ENDBRANCH   6   3
BRANCH   6   9
ATOM      9  C   UNL     1       9.341   5.410   6.005  0.00  0.00    +0.085 C 
BRANCH   9  11
ATOM      2  O   UNL     1      11.758   6.423   3.518  0.00  0.00    -0.358 OA
ATOM      4  N   UNL     1      10.976   6.660   4.642  0.00  0.00    -0.083 NA
ATOM     11  C   UNL     1      10.307   5.522   4.843  0.00  0.00    +0.086 A 
ATOM     13  C   UNL     1      10.623   4.540   3.888  0.00  0.00    +0.072 A 
ATOM     16  C   UNL     1      11.539   5.157   3.078  0.00  0.00    +0.151 A 
BRANCH  16  17
ATOM     17  C   UNL     1      12.291   4.738   1.891  0.00  0.00    +0.161 C 
BRANCH  17   5
ATOM      5  N   UNL     1      11.706   5.226   0.629  0.00  0.00    -0.301 NA
ATOM     18  C   UNL     1      11.349   4.101  -0.226  0.00  0.00    +0.105 C 
ATOM     19  C   UNL     1      12.645   6.115  -0.047  0.00  0.00    +0.105 C 
ENDBRANCH  17   5
ENDBRANCH  16  17
ENDBRANCH   9  11
ENDBRANCH   6   9
TORSDOF 7
ENDMDL
MODEL 9
REMARK VINA RESULT:      -4.2     14.218     16.719
REMARK  Name = 56775440
REMARK  11 active torsions:
REMARK  status: ('A' for Active; 'I' for Inactive)
REMARK    1  A    between atoms: N_3  and  C_6
REMARK    2  A    between atoms: N_3  and  C_10
REMARK    3  A    between atoms: N_5  and  C_17
REMARK    4  A    between atoms: N_5  and  C_18
REMARK    5  A    between atoms: N_5  and  C_19
REMARK    6  A    between atoms: C_6  and  C_9
REMARK    7  A    between atoms: C_9  and  C_11
REMARK    8  A    between atoms: C_10  and  C_12
REMARK    9  A    between atoms: C_12  and  C_14
REMARK   10  A    between atoms: C_12  and  C_15
REMARK   11  A    between atoms: C_16  and  C_17
REMARK                            x       y       z     vdW  Elec       q    Type
REMARK                         _______ _______ _______ _____ _____    ______ ____
ROOT
ATOM      1  O   UNL     1      12.524   8.330   4.331  0.00  0.00    -0.376 OA
ATOM      6  C   UNL     1      11.196   6.660   4.406  0.00  0.00    +0.072 C 
ATOM      7  C   UNL     1      12.598   6.956   3.886  0.00  0.00    +0.184 C 
ATOM      8  C   UNL     1      11.229   8.091   4.930  0.00  0.00    +0.184 C 
ENDROOT
BRANCH   6   3
ATOM      3  N   UNL     1      11.298   5.739   5.542  0.00  0.00    -0.306 NA
ATOM     20  H   UNL     1      11.731   6.125   6.379  0.00  0.00    +0.123 HD
BRANCH   3  10
ATOM     10  C   UNL     1       9.976   5.203   5.850  0.00  0.00    +0.084 C 
BRANCH  10  12
ATOM     12  C   UNL     1       9.480   5.627   7.243  0.00  0.00    -0.003 C 
ATOM     14  C   UNL     1      10.672   5.780   8.192  0.00  0.00    +0.008 C 
ATOM     15  C   UNL     1       8.678   6.930   7.209  0.00  0.00    +0.008 C 
ENDBRANCH  10  12
ENDBRANCH   3  10
ENDBRANCH   6   3
BRANCH   6   9
ATOM      9  C   UNL     1      10.128   6.269   3.432  0.00  0.00    +0.085 C 
BRANCH   9  11
ATOM      2  O   UNL     1      11.581   3.606   1.469  0.00  0.00    -0.358 OA
ATOM      4  N   UNL     1      11.151   4.154   2.671  0.00  0.00    -0.083 NA
ATOM     11  C   UNL     1      10.690   5.366   2.352  0.00  0.00    +0.086 A 
ATOM     13  C   UNL     1      10.801   5.635   0.976  0.00  0.00    +0.072 A 
ATOM     16  C   UNL     1      11.367   4.496   0.467  0.00  0.00    +0.151 A 
BRANCH  16  17
ATOM     17  C   UNL     1      11.766   4.075  -0.880  0.00  0.00    +0.161 C 
BRANCH  17   5
ATOM      5  N   UNL     1      10.650   3.531  -1.673  0.00  0.00    -0.301 NA
ATOM     18  C   UNL     1      11.114   2.421  -2.496  0.00  0.00    +0.105 C 
ATOM     19  C   UNL     1      10.065   4.582  -2.500  0.00  0.00    +0.105 C 
ENDBRANCH  17   5
ENDBRANCH  16  17
ENDBRANCH   9  11
ENDBRANCH   6   9
TORSDOF 7
ENDMDL
MODEL 10
REMARK VINA RESULT:      -4.2     13.122     16.125
REMARK  Name = 56775440
REMARK  11 active torsions:
REMARK  status: ('A' for Active; 'I' for Inactive)
REMARK    1  A    between atoms: N_3  and  C_6
REMARK    2  A    between atoms: N_3  and  C_10
REMARK    3  A    between atoms: N_5  and  C_17
REMARK    4  A    between atoms: N_5  and  C_18
REMARK    5  A    between atoms: N_5  and  C_19
REMARK    6  A    between atoms: C_6  and  C_9
REMARK    7  A    between atoms: C_9  and  C_11
REMARK    8  A    between atoms: C_10  and  C_12
REMARK    9  A    between atoms: C_12  and  C_14
REMARK   10  A    between atoms: C_12  and  C_15
REMARK   11  A    between atoms: C_16  and  C_17
REMARK                            x       y       z     vdW  Elec       q    Type
REMARK                         _______ _______ _______ _____ _____    ______ ____
ROOT
ATOM      1  O   UNL     1      12.584   8.273   1.993  0.00  0.00    -0.376 OA
ATOM      6  C   UNL     1      11.889   6.282   2.322  0.00  0.00    +0.072 C 
ATOM      7  C   UNL     1      12.322   7.137   1.136  0.00  0.00    +0.184 C 
ATOM      8  C   UNL     1      12.278   7.489   3.168  0.00  0.00    +0.184 C 
ENDROOT
BRANCH   6   3
ATOM      3  N   UNL     1      12.882   5.222   2.527  0.00  0.00    -0.306 NA
ATOM     20  H   UNL     1      13.169   5.074   3.493  0.00  0.00    +0.123 HD
BRANCH   3  10
ATOM     10  C   UNL     1      12.390   3.979   1.943  0.00  0.00    +0.084 C 
BRANCH  10  12
ATOM     12  C   UNL     1      13.479   3.226   1.159  0.00  0.00    -0.003 C 
ATOM     14  C   UNL     1      13.349   3.538  -0.334  0.00  0.00    +0.008 C 
ATOM     15  C   UNL     1      14.891   3.572   1.636  0.00  0.00    +0.008 C 
ENDBRANCH  10  12
ENDBRANCH   3  10
ENDBRANCH   6   3
BRANCH   6   9
ATOM      9  C   UNL     1      10.480   5.779   2.379  0.00  0.00    +0.085 C 
BRANCH   9  11
ATOM      2  O   UNL     1       8.940   6.169   5.624  0.00  0.00    -0.358 OA
ATOM      4  N   UNL     1       9.163   6.569   4.313  0.00  0.00    -0.083 NA
ATOM     11  C   UNL     1      10.008   5.662   3.814  0.00  0.00    +0.086 A 
ATOM     13  C   UNL     1      10.348   4.675   4.755  0.00  0.00    +0.072 A 
ATOM     16  C   UNL     1       9.651   5.040   5.876  0.00  0.00    +0.151 A 
BRANCH  16  17
ATOM     17  C   UNL     1       9.528   4.477   7.225  0.00  0.00    +0.161 C 
BRANCH  17   5
ATOM      5  N   UNL     1       9.726   5.474   8.292  0.00  0.00    -0.301 NA
ATOM     18  C   UNL     1      11.086   5.999   8.241  0.00  0.00    +0.105 C 
ATOM     19  C   UNL     1       9.448   4.877   9.593  0.00  0.00    +0.105 C 
ENDBRANCH  17   5
ENDBRANCH  16  17
ENDBRANCH   9  11
ENDBRANCH   6   9
TORSDOF 7
ENDMDL
