MODEL 1
REMARK VINA RESULT:      -7.3      0.000      0.000
REMARK  Name = 7143175
REMARK  5 active torsions:
REMARK  status: ('A' for Active; 'I' for Inactive)
REMARK    1  A    between atoms: S_1  and  N_6
REMARK    2  A    between atoms: S_1  and  C_20
REMARK    3  A    between atoms: N_8  and  C_18
REMARK    4  A    between atoms: C_21  and  C_22
REMARK    5  A    between atoms: C_22  and  C_23
REMARK                            x       y       z     vdW  Elec       q    Type
REMARK                         _______ _______ _______ _____ _____    ______ ____
ROOT
ATOM      4  O   UNL     1      10.742   7.096   1.383  0.00  0.00    -0.266 OA
ATOM      6  N   UNL     1      11.542   3.757  -2.229  0.00  0.00    -0.180 NA
ATOM      7  N   UNL     1      12.028   5.391   0.434  0.00  0.00    -0.310 N 
ATOM      9  C   UNL     1      13.164   5.617  -1.850  0.00  0.00    +0.025 C 
ATOM     10  C   UNL     1      13.389   3.528  -0.579  0.00  0.00    +0.052 C 
ATOM     11  C   UNL     1      14.176   4.627  -1.287  0.00  0.00    +0.017 C 
ATOM     12  C   UNL     1      12.229   4.923  -2.854  0.00  0.00    +0.114 C 
ATOM     13  C   UNL     1      12.495   2.796  -1.596  0.00  0.00    +0.118 C 
ATOM     14  C   UNL     1      12.399   6.263  -0.689  0.00  0.00    +0.130 C 
ATOM     15  C   UNL     1      12.549   4.098   0.549  0.00  0.00    +0.026 A 
ATOM     16  C   UNL     1      12.287   3.359   1.640  0.00  0.00    +0.024 A 
ATOM     17  C   UNL     1      11.210   5.957   1.432  0.00  0.00    +0.273 A 
ATOM     18  C   UNL     1      10.923   5.093   2.620  0.00  0.00    +0.099 A 
ATOM     19  C   UNL     1      11.456   3.869   2.695  0.00  0.00    +0.030 A 
ENDROOT
BRANCH   6   1
ATOM      1  S   UNL     1      10.287   3.052  -3.155  0.00  0.00    +0.029 S 
ATOM      2  O   UNL     1       9.171   3.972  -3.202  0.00  0.00    -0.158 OA
ATOM      3  O   UNL     1      10.122   1.675  -2.745  0.00  0.00    -0.158 OA
ATOM     20  C   UNL     1      11.071   3.060  -4.747  0.00  0.00    +0.215 C 
ENDBRANCH   6   1
BRANCH  18   8
ATOM      5  O   UNL     1      11.790   6.510   4.952  0.00  0.00    -0.275 OA
ATOM      8  N   UNL     1      10.124   5.599   3.603  0.00  0.00    -0.281 N 
ATOM     21  C   UNL     1      10.606   6.280   4.715  0.00  0.00    +0.222 C 
ATOM     29  H   UNL     1       9.166   5.260   3.623  0.00  0.00    +0.155 HD
BRANCH  21  22
ATOM     22  C   UNL     1       9.474   6.718   5.627  0.00  0.00    +0.131 C 
BRANCH  22  23
ATOM     23  C   UNL     1       9.449   5.985   6.942  0.00  0.00    -0.039 A 
ATOM     24  C   UNL     1       9.812   4.646   6.984  0.00  0.00    +0.004 A 
ATOM     25  C   UNL     1       9.060   6.657   8.092  0.00  0.00    +0.004 A 
ATOM     26  C   UNL     1       9.787   3.966   8.202  0.00  0.00    +0.000 A 
ATOM     27  C   UNL     1       9.036   5.978   9.309  0.00  0.00    +0.000 A 
ATOM     28  C   UNL     1       9.400   4.633   9.364  0.00  0.00    +0.000 A 
ENDBRANCH  22  23
ENDBRANCH  21  22
ENDBRANCH  18   8
TORSDOF 4
ENDMDL
MODEL 2
REMARK VINA RESULT:      -6.9     24.279     27.906
REMARK  Name = 7143175
REMARK  5 active torsions:
REMARK  status: ('A' for Active; 'I' for Inactive)
REMARK    1  A    between atoms: S_1  and  N_6
REMARK    2  A    between atoms: S_1  and  C_20
REMARK    3  A    between atoms: N_8  and  C_18
REMARK    4  A    between atoms: C_21  and  C_22
REMARK    5  A    between atoms: C_22  and  C_23
REMARK                            x       y       z     vdW  Elec       q    Type
REMARK                         _______ _______ _______ _____ _____    ______ ____
ROOT
ATOM      4  O   UNL     1      -5.782 -11.977  13.998  0.00  0.00    -0.266 OA
ATOM      6  N   UNL     1      -8.868 -10.723  17.704  0.00  0.00    -0.180 NA
ATOM      7  N   UNL     1      -6.317 -11.922  16.272  0.00  0.00    -0.310 N 
ATOM      9  C   UNL     1      -8.356 -13.124  17.248  0.00  0.00    +0.025 C 
ATOM     10  C   UNL     1      -6.886 -11.826  18.725  0.00  0.00    +0.052 C 
ATOM     11  C   UNL     1      -7.528 -13.195  18.524  0.00  0.00    +0.017 C 
ATOM     12  C   UNL     1      -9.453 -12.054  17.374  0.00  0.00    +0.114 C 
ATOM     13  C   UNL     1      -7.985 -10.763  18.908  0.00  0.00    +0.118 C 
ATOM     14  C   UNL     1      -7.422 -12.867  16.059  0.00  0.00    +0.130 C 
ATOM     15  C   UNL     1      -5.991 -11.464  17.553  0.00  0.00    +0.026 A 
ATOM     16  C   UNL     1      -4.908 -10.692  17.740  0.00  0.00    +0.024 A 
ATOM     17  C   UNL     1      -5.545 -11.586  15.142  0.00  0.00    +0.273 A 
ATOM     18  C   UNL     1      -4.360 -10.705  15.388  0.00  0.00    +0.099 A 
ATOM     19  C   UNL     1      -4.078 -10.304  16.633  0.00  0.00    +0.030 A 
ENDROOT
BRANCH   6   1
ATOM      1  S   UNL     1      -9.949  -9.399  17.622  0.00  0.00    +0.029 S 
ATOM      2  O   UNL     1      -9.194  -8.200  17.328  0.00  0.00    -0.158 OA
ATOM      3  O   UNL     1     -10.857  -9.469  18.746  0.00  0.00    -0.158 OA
ATOM     20  C   UNL     1     -10.847  -9.854  16.162  0.00  0.00    +0.215 C 
ENDBRANCH   6   1
BRANCH  18   8
ATOM      5  O   UNL     1      -2.049 -12.085  14.414  0.00  0.00    -0.275 OA
ATOM      8  N   UNL     1      -3.594 -10.345  14.319  0.00  0.00    -0.281 N 
ATOM     21  C   UNL     1      -2.480 -11.059  13.893  0.00  0.00    +0.222 C 
ATOM     29  H   UNL     1      -3.721  -9.398  13.971  0.00  0.00    +0.155 HD
BRANCH  21  22
ATOM     22  C   UNL     1      -1.839 -10.409  12.680  0.00  0.00    +0.131 C 
BRANCH  22  23
ATOM     23  C   UNL     1      -2.692 -10.488  11.441  0.00  0.00    -0.039 A 
ATOM     24  C   UNL     1      -2.913  -9.342  10.690  0.00  0.00    +0.004 A 
ATOM     25  C   UNL     1      -3.246 -11.705  11.069  0.00  0.00    +0.004 A 
ATOM     26  C   UNL     1      -3.704  -9.415   9.543  0.00  0.00    +0.000 A 
ATOM     27  C   UNL     1      -4.036 -11.778   9.923  0.00  0.00    +0.000 A 
ATOM     28  C   UNL     1      -4.265 -10.634   9.160  0.00  0.00    +0.000 A 
ENDBRANCH  22  23
ENDBRANCH  21  22
ENDBRANCH  18   8
TORSDOF 4
ENDMDL
MODEL 3
REMARK VINA RESULT:      -6.9     16.786     20.805
REMARK  Name = 7143175
REMARK  5 active torsions:
REMARK  status: ('A' for Active; 'I' for Inactive)
REMARK    1  A    between atoms: S_1  and  N_6
REMARK    2  A    between atoms: S_1  and  C_20
REMARK    3  A    between atoms: N_8  and  C_18
REMARK    4  A    between atoms: C_21  and  C_22
REMARK    5  A    between atoms: C_22  and  C_23
REMARK                            x       y       z     vdW  Elec       q    Type
REMARK                         _______ _______ _______ _____ _____    ______ ____
ROOT
ATOM      4  O   UNL     1      17.156   6.224  21.265  0.00  0.00    -0.266 OA
ATOM      6  N   UNL     1      13.144   8.237  19.102  0.00  0.00    -0.180 NA
ATOM      7  N   UNL     1      15.462   7.833  21.213  0.00  0.00    -0.310 N 
ATOM      9  C   UNL     1      12.977   7.238  21.384  0.00  0.00    +0.025 C 
ATOM     10  C   UNL     1      13.654   9.585  21.130  0.00  0.00    +0.052 C 
ATOM     11  C   UNL     1      12.831   8.629  21.988  0.00  0.00    +0.017 C 
ATOM     12  C   UNL     1      12.451   7.218  19.940  0.00  0.00    +0.114 C 
ATOM     13  C   UNL     1      13.090   9.607  19.697  0.00  0.00    +0.118 C 
ATOM     14  C   UNL     1      14.446   6.805  21.478  0.00  0.00    +0.130 C 
ATOM     15  C   UNL     1      15.117   9.185  21.116  0.00  0.00    +0.026 A 
ATOM     16  C   UNL     1      16.074  10.119  20.987  0.00  0.00    +0.024 A 
ATOM     17  C   UNL     1      16.803   7.400  21.166  0.00  0.00    +0.273 A 
ATOM     18  C   UNL     1      17.837   8.469  21.000  0.00  0.00    +0.099 A 
ATOM     19  C   UNL     1      17.462   9.751  20.927  0.00  0.00    +0.030 A 
ENDROOT
BRANCH   6   1
ATOM      1  S   UNL     1      12.835   8.149  17.421  0.00  0.00    +0.029 S 
ATOM      2  O   UNL     1      11.467   7.722  17.221  0.00  0.00    -0.158 OA
ATOM      3  O   UNL     1      13.944   7.476  16.779  0.00  0.00    -0.158 OA
ATOM     20  C   UNL     1      12.935   9.874  17.022  0.00  0.00    +0.215 C 
ENDBRANCH   6   1
BRANCH  18   8
ATOM      5  O   UNL     1      19.637   8.207  23.210  0.00  0.00    -0.275 OA
ATOM      8  N   UNL     1      19.146   8.091  20.937  0.00  0.00    -0.281 N 
ATOM     21  C   UNL     1      19.972   7.982  22.050  0.00  0.00    +0.222 C 
ATOM     29  H   UNL     1      19.578   8.114  20.017  0.00  0.00    +0.155 HD
BRANCH  21  22
ATOM     22  C   UNL     1      21.371   7.541  21.657  0.00  0.00    +0.131 C 
BRANCH  22  23
ATOM     23  C   UNL     1      21.598   6.061  21.819  0.00  0.00    -0.039 A 
ATOM     24  C   UNL     1      22.178   5.583  22.986  0.00  0.00    +0.004 A 
ATOM     25  C   UNL     1      21.226   5.197  20.798  0.00  0.00    +0.004 A 
ATOM     26  C   UNL     1      22.389   4.212  23.135  0.00  0.00    +0.000 A 
ATOM     27  C   UNL     1      21.437   3.827  20.948  0.00  0.00    +0.000 A 
ATOM     28  C   UNL     1      22.018   3.335  22.116  0.00  0.00    +0.000 A 
ENDBRANCH  22  23
ENDBRANCH  21  22
ENDBRANCH  18   8
TORSDOF 4
ENDMDL
MODEL 4
REMARK VINA RESULT:      -6.9     24.575     28.209
REMARK  Name = 7143175
REMARK  5 active torsions:
REMARK  status: ('A' for Active; 'I' for Inactive)
REMARK    1  A    between atoms: S_1  and  N_6
REMARK    2  A    between atoms: S_1  and  C_20
REMARK    3  A    between atoms: N_8  and  C_18
REMARK    4  A    between atoms: C_21  and  C_22
REMARK    5  A    between atoms: C_22  and  C_23
REMARK                            x       y       z     vdW  Elec       q    Type
REMARK                         _______ _______ _______ _____ _____    ______ ____
ROOT
ATOM      4  O   UNL     1      -4.273 -13.106  15.852  0.00  0.00    -0.266 OA
ATOM      6  N   UNL     1      -8.503 -12.055  18.266  0.00  0.00    -0.180 NA
ATOM      7  N   UNL     1      -5.592 -11.641  17.107  0.00  0.00    -0.310 N 
ATOM      9  C   UNL     1      -6.336 -12.150  19.503  0.00  0.00    +0.025 C 
ATOM     10  C   UNL     1      -7.035 -10.054  18.430  0.00  0.00    +0.052 C 
ATOM     11  C   UNL     1      -6.358 -10.636  19.668  0.00  0.00    +0.017 C 
ATOM     12  C   UNL     1      -7.767 -12.702  19.390  0.00  0.00    +0.114 C 
ATOM     13  C   UNL     1      -8.486 -10.564  18.347  0.00  0.00    +0.118 C 
ATOM     14  C   UNL     1      -5.473 -12.507  18.288  0.00  0.00    +0.130 C 
ATOM     15  C   UNL     1      -6.274 -10.421  17.169  0.00  0.00    +0.026 A 
ATOM     16  C   UNL     1      -6.274  -9.592  16.112  0.00  0.00    +0.024 A 
ATOM     17  C   UNL     1      -4.901 -12.050  15.949  0.00  0.00    +0.273 A 
ATOM     18  C   UNL     1      -4.944 -11.110  14.785  0.00  0.00    +0.099 A 
ATOM     19  C   UNL     1      -5.595  -9.947  14.896  0.00  0.00    +0.030 A 
ENDROOT
BRANCH   6   1
ATOM      1  S   UNL     1     -10.013 -12.756  17.870  0.00  0.00    +0.029 S 
ATOM      2  O   UNL     1      -9.780 -14.012  17.191  0.00  0.00    -0.158 OA
ATOM      3  O   UNL     1     -10.868 -11.734  17.307  0.00  0.00    -0.158 OA
ATOM     20  C   UNL     1     -10.597 -13.118  19.506  0.00  0.00    +0.215 C 
ENDBRANCH   6   1
BRANCH  18   8
ATOM      5  O   UNL     1      -2.316 -10.302  13.985  0.00  0.00    -0.275 OA
ATOM      8  N   UNL     1      -4.299 -11.475  13.641  0.00  0.00    -0.281 N 
ATOM     21  C   UNL     1      -3.019 -11.048  13.307  0.00  0.00    +0.222 C 
ATOM     29  H   UNL     1      -4.874 -11.889  12.912  0.00  0.00    +0.155 HD
BRANCH  21  22
ATOM     22  C   UNL     1      -2.576 -11.624  11.974  0.00  0.00    +0.131 C 
BRANCH  22  23
ATOM     23  C   UNL     1      -3.264 -10.992  10.792  0.00  0.00    -0.039 A 
ATOM     24  C   UNL     1      -3.968 -11.793   9.904  0.00  0.00    +0.004 A 
ATOM     25  C   UNL     1      -3.182  -9.619  10.608  0.00  0.00    +0.004 A 
ATOM     26  C   UNL     1      -4.604 -11.207   8.809  0.00  0.00    +0.000 A 
ATOM     27  C   UNL     1      -3.818  -9.034   9.514  0.00  0.00    +0.000 A 
ATOM     28  C   UNL     1      -4.529  -9.827   8.615  0.00  0.00    +0.000 A 
ENDBRANCH  22  23
ENDBRANCH  21  22
ENDBRANCH  18   8
TORSDOF 4
ENDMDL
MODEL 5
REMARK VINA RESULT:      -6.6     27.090     29.189
REMARK  Name = 7143175
REMARK  5 active torsions:
REMARK  status: ('A' for Active; 'I' for Inactive)
REMARK    1  A    between atoms: S_1  and  N_6
REMARK    2  A    between atoms: S_1  and  C_20
REMARK    3  A    between atoms: N_8  and  C_18
REMARK    4  A    between atoms: C_21  and  C_22
REMARK    5  A    between atoms: C_22  and  C_23
REMARK                            x       y       z     vdW  Elec       q    Type
REMARK                         _______ _______ _______ _____ _____    ______ ____
ROOT
ATOM      4  O   UNL     1      -7.656  -8.916  17.094  0.00  0.00    -0.266 OA
ATOM      6  N   UNL     1      -5.028 -13.039  16.134  0.00  0.00    -0.180 NA
ATOM      7  N   UNL     1      -6.315 -10.690  17.813  0.00  0.00    -0.310 N 
ATOM      9  C   UNL     1      -3.895 -11.004  17.034  0.00  0.00    +0.025 C 
ATOM     10  C   UNL     1      -4.897 -12.625  18.583  0.00  0.00    +0.052 C 
ATOM     11  C   UNL     1      -3.702 -11.698  18.376  0.00  0.00    +0.017 C 
ATOM     12  C   UNL     1      -3.952 -12.034  15.895  0.00  0.00    +0.114 C 
ATOM     13  C   UNL     1      -4.921 -13.692  17.473  0.00  0.00    +0.118 C 
ATOM     14  C   UNL     1      -5.157 -10.134  17.099  0.00  0.00    +0.130 C 
ATOM     15  C   UNL     1      -6.199 -11.844  18.593  0.00  0.00    +0.026 A 
ATOM     16  C   UNL     1      -7.240 -12.271  19.327  0.00  0.00    +0.024 A 
ATOM     17  C   UNL     1      -7.511  -9.947  17.753  0.00  0.00    +0.273 A 
ATOM     18  C   UNL     1      -8.654 -10.468  18.567  0.00  0.00    +0.099 A 
ATOM     19  C   UNL     1      -8.492 -11.567  19.311  0.00  0.00    +0.030 A 
ENDROOT
BRANCH   6   1
ATOM      1  S   UNL     1      -5.365 -14.088  14.824  0.00  0.00    +0.029 S 
ATOM      2  O   UNL     1      -5.008 -13.422  13.590  0.00  0.00    -0.158 OA
ATOM      3  O   UNL     1      -6.673 -14.673  15.022  0.00  0.00    -0.158 OA
ATOM     20  C   UNL     1      -4.150 -15.341  15.143  0.00  0.00    +0.215 C 
ENDBRANCH   6   1
BRANCH  18   8
ATOM      5  O   UNL     1     -10.746 -10.804  16.641  0.00  0.00    -0.275 OA
ATOM      8  N   UNL     1      -9.834  -9.785  18.527  0.00  0.00    -0.281 N 
ATOM     21  C   UNL     1     -10.814  -9.994  17.563  0.00  0.00    +0.222 C 
ATOM     29  H   UNL     1      -9.886  -8.941  19.091  0.00  0.00    +0.155 HD
BRANCH  21  22
ATOM     22  C   UNL     1     -12.008  -9.083  17.784  0.00  0.00    +0.131 C 
BRANCH  22  23
ATOM     23  C   UNL     1     -12.065  -7.929  16.819  0.00  0.00    -0.039 A 
ATOM     24  C   UNL     1     -10.953  -7.112  16.664  0.00  0.00    +0.004 A 
ATOM     25  C   UNL     1     -13.229  -7.697  16.100  0.00  0.00    +0.004 A 
ATOM     26  C   UNL     1     -11.007  -6.042  15.771  0.00  0.00    +0.000 A 
ATOM     27  C   UNL     1     -13.282  -6.627  15.207  0.00  0.00    +0.000 A 
ATOM     28  C   UNL     1     -12.171  -5.800  15.042  0.00  0.00    +0.000 A 
ENDBRANCH  22  23
ENDBRANCH  21  22
ENDBRANCH  18   8
TORSDOF 4
ENDMDL
MODEL 6
REMARK VINA RESULT:      -6.5     23.851     26.574
REMARK  Name = 7143175
REMARK  5 active torsions:
REMARK  status: ('A' for Active; 'I' for Inactive)
REMARK    1  A    between atoms: S_1  and  N_6
REMARK    2  A    between atoms: S_1  and  C_20
REMARK    3  A    between atoms: N_8  and  C_18
REMARK    4  A    between atoms: C_21  and  C_22
REMARK    5  A    between atoms: C_22  and  C_23
REMARK                            x       y       z     vdW  Elec       q    Type
REMARK                         _______ _______ _______ _____ _____    ______ ____
ROOT
ATOM      4  O   UNL     1      -6.570  -9.910  14.074  0.00  0.00    -0.266 OA
ATOM      6  N   UNL     1      -2.877 -13.022  12.846  0.00  0.00    -0.180 NA
ATOM      7  N   UNL     1      -4.294 -10.427  13.965  0.00  0.00    -0.310 N 
ATOM      9  C   UNL     1      -3.056 -10.784  11.752  0.00  0.00    +0.025 C 
ATOM     10  C   UNL     1      -1.844 -11.007  13.876  0.00  0.00    +0.052 C 
ATOM     11  C   UNL     1      -1.832 -10.304  12.521  0.00  0.00    +0.017 C 
ATOM     12  C   UNL     1      -3.001 -12.306  11.544  0.00  0.00    +0.114 C 
ATOM     13  C   UNL     1      -1.731 -12.529  13.668  0.00  0.00    +0.118 C 
ATOM     14  C   UNL     1      -4.321 -10.341  12.499  0.00  0.00    +0.130 C 
ATOM     15  C   UNL     1      -3.102 -10.672  14.655  0.00  0.00    +0.026 A 
ATOM     16  C   UNL     1      -3.078 -10.633  15.998  0.00  0.00    +0.024 A 
ATOM     17  C   UNL     1      -5.501 -10.149  14.638  0.00  0.00    +0.273 A 
ATOM     18  C   UNL     1      -5.437 -10.137  16.133  0.00  0.00    +0.099 A 
ATOM     19  C   UNL     1      -4.271 -10.361  16.750  0.00  0.00    +0.030 A 
ENDROOT
BRANCH   6   1
ATOM      1  S   UNL     1      -3.061 -14.722  12.777  0.00  0.00    +0.029 S 
ATOM      2  O   UNL     1      -2.653 -15.181  11.467  0.00  0.00    -0.158 OA
ATOM      3  O   UNL     1      -4.345 -15.075  13.341  0.00  0.00    -0.158 OA
ATOM     20  C   UNL     1      -1.804 -15.191  13.939  0.00  0.00    +0.215 C 
ENDBRANCH   6   1
BRANCH  18   8
ATOM      5  O   UNL     1      -7.316 -12.083  17.071  0.00  0.00    -0.275 OA
ATOM      8  N   UNL     1      -6.587  -9.885  16.822  0.00  0.00    -0.281 N 
ATOM     21  C   UNL     1      -7.462 -10.876  17.252  0.00  0.00    +0.222 C 
ATOM     29  H   UNL     1      -6.915  -8.923  16.814  0.00  0.00    +0.155 HD
BRANCH  21  22
ATOM     22  C   UNL     1      -8.649 -10.281  17.989  0.00  0.00    +0.131 C 
BRANCH  22  23
ATOM     23  C   UNL     1      -9.517  -9.411  17.119  0.00  0.00    -0.039 A 
ATOM     24  C   UNL     1     -10.106  -9.952  15.984  0.00  0.00    +0.004 A 
ATOM     25  C   UNL     1      -9.713  -8.081  17.462  0.00  0.00    +0.004 A 
ATOM     26  C   UNL     1     -10.909  -9.145  15.177  0.00  0.00    +0.000 A 
ATOM     27  C   UNL     1     -10.516  -7.275  16.655  0.00  0.00    +0.000 A 
ATOM     28  C   UNL     1     -11.114  -7.807  15.514  0.00  0.00    +0.000 A 
ENDBRANCH  22  23
ENDBRANCH  21  22
ENDBRANCH  18   8
TORSDOF 4
ENDMDL
MODEL 7
REMARK VINA RESULT:      -6.4      6.052      9.126
REMARK  Name = 7143175
REMARK  5 active torsions:
REMARK  status: ('A' for Active; 'I' for Inactive)
REMARK    1  A    between atoms: S_1  and  N_6
REMARK    2  A    between atoms: S_1  and  C_20
REMARK    3  A    between atoms: N_8  and  C_18
REMARK    4  A    between atoms: C_21  and  C_22
REMARK    5  A    between atoms: C_22  and  C_23
REMARK                            x       y       z     vdW  Elec       q    Type
REMARK                         _______ _______ _______ _____ _____    ______ ____
ROOT
ATOM      4  O   UNL     1      13.569   7.439   3.174  0.00  0.00    -0.266 OA
ATOM      6  N   UNL     1       9.875   8.681   6.279  0.00  0.00    -0.180 NA
ATOM      7  N   UNL     1      12.224   6.975   5.029  0.00  0.00    -0.310 N 
ATOM      9  C   UNL     1       9.691   6.637   4.856  0.00  0.00    +0.025 C 
ATOM     10  C   UNL     1      10.792   6.499   7.047  0.00  0.00    +0.052 C 
ATOM     11  C   UNL     1       9.866   5.758   6.087  0.00  0.00    +0.017 C 
ATOM     12  C   UNL     1       9.062   7.986   5.241  0.00  0.00    +0.114 C 
ATOM     13  C   UNL     1      10.136   7.825   7.476  0.00  0.00    +0.118 C 
ATOM     14  C   UNL     1      11.049   6.802   4.162  0.00  0.00    +0.130 C 
ATOM     15  C   UNL     1      12.144   6.762   6.409  0.00  0.00    +0.026 A 
ATOM     16  C   UNL     1      13.253   6.813   7.165  0.00  0.00    +0.024 A 
ATOM     17  C   UNL     1      13.446   7.261   4.388  0.00  0.00    +0.273 A 
ATOM     18  C   UNL     1      14.654   7.332   5.269  0.00  0.00    +0.099 A 
ATOM     19  C   UNL     1      14.532   7.106   6.581  0.00  0.00    +0.030 A 
ENDROOT
BRANCH   6   1
ATOM      1  S   UNL     1       9.427  10.298   6.612  0.00  0.00    +0.029 S 
ATOM      2  O   UNL     1       9.335  10.471   8.045  0.00  0.00    -0.158 OA
ATOM      3  O   UNL     1       8.342  10.672   5.730  0.00  0.00    -0.158 OA
ATOM     20  C   UNL     1      10.896  11.121   6.053  0.00  0.00    +0.215 C 
ENDBRANCH   6   1
BRANCH  18   8
ATOM      5  O   UNL     1      15.831   9.928   4.998  0.00  0.00    -0.275 OA
ATOM      8  N   UNL     1      15.854   7.619   4.689  0.00  0.00    -0.281 N 
ATOM     21  C   UNL     1      16.374   8.905   4.587  0.00  0.00    +0.222 C 
ATOM     29  H   UNL     1      16.265   6.887   4.115  0.00  0.00    +0.155 HD
BRANCH  21  22
ATOM     22  C   UNL     1      17.724   8.900   3.893  0.00  0.00    +0.131 C 
BRANCH  22  23
ATOM     23  C   UNL     1      18.856   8.478   4.791  0.00  0.00    -0.039 A 
ATOM     24  C   UNL     1      18.888   8.925   6.105  0.00  0.00    +0.004 A 
ATOM     25  C   UNL     1      19.851   7.649   4.293  0.00  0.00    +0.004 A 
ATOM     26  C   UNL     1      19.938   8.535   6.937  0.00  0.00    +0.000 A 
ATOM     27  C   UNL     1      20.900   7.259   5.125  0.00  0.00    +0.000 A 
ATOM     28  C   UNL     1      20.943   7.701   6.447  0.00  0.00    +0.000 A 
ENDBRANCH  22  23
ENDBRANCH  21  22
ENDBRANCH  18   8
TORSDOF 4
ENDMDL
MODEL 8
REMARK VINA RESULT:      -6.3      3.636      8.764
REMARK  Name = 7143175
REMARK  5 active torsions:
REMARK  status: ('A' for Active; 'I' for Inactive)
REMARK    1  A    between atoms: S_1  and  N_6
REMARK    2  A    between atoms: S_1  and  C_20
REMARK    3  A    between atoms: N_8  and  C_18
REMARK    4  A    between atoms: C_21  and  C_22
REMARK    5  A    between atoms: C_22  and  C_23
REMARK                            x       y       z     vdW  Elec       q    Type
REMARK                         _______ _______ _______ _____ _____    ______ ____
ROOT
ATOM      4  O   UNL     1      11.599   7.079   2.105  0.00  0.00    -0.266 OA
ATOM      6  N   UNL     1       9.866   9.724   5.956  0.00  0.00    -0.180 NA
ATOM      7  N   UNL     1       9.889   7.608   3.608  0.00  0.00    -0.310 N 
ATOM      9  C   UNL     1       8.797   9.922   3.709  0.00  0.00    +0.025 C 
ATOM     10  C   UNL     1       8.064   8.160   5.254  0.00  0.00    +0.052 C 
ATOM     11  C   UNL     1       7.575   9.168   4.217  0.00  0.00    +0.017 C 
ATOM     12  C   UNL     1       9.493  10.664   4.861  0.00  0.00    +0.114 C 
ATOM     13  C   UNL     1       8.711   8.907   6.435  0.00  0.00    +0.118 C 
ATOM     14  C   UNL     1       9.732   8.936   2.998  0.00  0.00    +0.130 C 
ATOM     15  C   UNL     1       9.051   7.182   4.643  0.00  0.00    +0.026 A 
ATOM     16  C   UNL     1       9.136   5.925   5.108  0.00  0.00    +0.024 A 
ATOM     17  C   UNL     1      10.851   6.756   3.029  0.00  0.00    +0.273 A 
ATOM     18  C   UNL     1      10.930   5.370   3.590  0.00  0.00    +0.099 A 
ATOM     19  C   UNL     1      10.097   5.003   4.570  0.00  0.00    +0.030 A 
ENDROOT
BRANCH   6   1
ATOM      1  S   UNL     1      10.870  10.374   7.181  0.00  0.00    +0.029 S 
ATOM      2  O   UNL     1      11.072  11.782   6.918  0.00  0.00    -0.158 OA
ATOM      3  O   UNL     1      11.982   9.474   7.398  0.00  0.00    -0.158 OA
ATOM     20  C   UNL     1       9.766  10.225   8.562  0.00  0.00    +0.215 C 
ENDBRANCH   6   1
BRANCH  18   8
ATOM      5  O   UNL     1      10.654   3.824   1.197  0.00  0.00    -0.275 OA
ATOM      8  N   UNL     1      11.857   4.518   3.066  0.00  0.00    -0.281 N 
ATOM     21  C   UNL     1      11.664   3.792   1.897  0.00  0.00    +0.222 C 
ATOM     29  H   UNL     1      12.616   4.243   3.684  0.00  0.00    +0.155 HD
BRANCH  21  22
ATOM     22  C   UNL     1      12.874   2.934   1.574  0.00  0.00    +0.131 C 
BRANCH  22  23
ATOM     23  C   UNL     1      13.778   3.544   0.536  0.00  0.00    -0.039 A 
ATOM     24  C   UNL     1      15.024   4.026   0.914  0.00  0.00    +0.004 A 
ATOM     25  C   UNL     1      13.353   3.617  -0.783  0.00  0.00    +0.004 A 
ATOM     26  C   UNL     1      15.861   4.593  -0.048  0.00  0.00    +0.000 A 
ATOM     27  C   UNL     1      14.190   4.183  -1.744  0.00  0.00    +0.000 A 
ATOM     28  C   UNL     1      15.444   4.670  -1.377  0.00  0.00    +0.000 A 
ENDBRANCH  22  23
ENDBRANCH  21  22
ENDBRANCH  18   8
TORSDOF 4
ENDMDL
MODEL 9
REMARK VINA RESULT:      -6.3     23.804     25.447
REMARK  Name = 7143175
REMARK  5 active torsions:
REMARK  status: ('A' for Active; 'I' for Inactive)
REMARK    1  A    between atoms: S_1  and  N_6
REMARK    2  A    between atoms: S_1  and  C_20
REMARK    3  A    between atoms: N_8  and  C_18
REMARK    4  A    between atoms: C_21  and  C_22
REMARK    5  A    between atoms: C_22  and  C_23
REMARK                            x       y       z     vdW  Elec       q    Type
REMARK                         _______ _______ _______ _____ _____    ______ ____
ROOT
ATOM      4  O   UNL     1      -5.870  -9.609  13.419  0.00  0.00    -0.266 OA
ATOM      6  N   UNL     1      -6.250 -12.193   9.175  0.00  0.00    -0.180 NA
ATOM      7  N   UNL     1      -5.168 -10.052  11.234  0.00  0.00    -0.310 N 
ATOM      9  C   UNL     1      -6.687  -9.735   9.197  0.00  0.00    +0.025 C 
ATOM     10  C   UNL     1      -4.395 -10.561   8.890  0.00  0.00    +0.052 C 
ATOM     11  C   UNL     1      -5.388  -9.492   8.442  0.00  0.00    +0.017 C 
ATOM     12  C   UNL     1      -7.249 -11.129   8.872  0.00  0.00    +0.114 C 
ATOM     13  C   UNL     1      -4.932 -11.954   8.514  0.00  0.00    +0.118 C 
ATOM     14  C   UNL     1      -6.437  -9.541  10.698  0.00  0.00    +0.130 C 
ATOM     15  C   UNL     1      -4.142 -10.478  10.384  0.00  0.00    +0.026 A 
ATOM     16  C   UNL     1      -2.950 -10.835  10.891  0.00  0.00    +0.024 A 
ATOM     17  C   UNL     1      -5.002  -9.993  12.632  0.00  0.00    +0.273 A 
ATOM     18  C   UNL     1      -3.667 -10.420  13.159  0.00  0.00    +0.099 A 
ATOM     19  C   UNL     1      -2.711 -10.805  12.307  0.00  0.00    +0.030 A 
ENDROOT
BRANCH   6   1
ATOM      1  S   UNL     1      -6.834 -13.800   9.100  0.00  0.00    +0.029 S 
ATOM      2  O   UNL     1      -6.732 -14.269   7.735  0.00  0.00    -0.158 OA
ATOM      3  O   UNL     1      -8.074 -13.880   9.841  0.00  0.00    -0.158 OA
ATOM     20  C   UNL     1      -5.573 -14.606  10.053  0.00  0.00    +0.215 C 
ENDBRANCH   6   1
BRANCH  18   8
ATOM      5  O   UNL     1      -4.161 -12.560  14.995  0.00  0.00    -0.275 OA
ATOM      8  N   UNL     1      -3.471 -10.390  14.508  0.00  0.00    -0.281 N 
ATOM     21  C   UNL     1      -3.730 -11.465  15.350  0.00  0.00    +0.222 C 
ATOM     29  H   UNL     1      -3.346  -9.470  14.925  0.00  0.00    +0.155 HD
BRANCH  21  22
ATOM     22  C   UNL     1      -3.412 -11.123  16.794  0.00  0.00    +0.131 C 
BRANCH  22  23
ATOM     23  C   UNL     1      -4.638 -10.969  17.655  0.00  0.00    -0.039 A 
ATOM     24  C   UNL     1      -4.656 -11.531  18.924  0.00  0.00    +0.004 A 
ATOM     25  C   UNL     1      -5.732 -10.270  17.166  0.00  0.00    +0.004 A 
ATOM     26  C   UNL     1      -5.793 -11.390  19.721  0.00  0.00    +0.000 A 
ATOM     27  C   UNL     1      -6.868 -10.128  17.963  0.00  0.00    +0.000 A 
ATOM     28  C   UNL     1      -6.898 -10.687  19.240  0.00  0.00    +0.000 A 
ENDBRANCH  22  23
ENDBRANCH  21  22
ENDBRANCH  18   8
TORSDOF 4
ENDMDL
MODEL 10
REMARK VINA RESULT:      -6.2      3.051      8.557
REMARK  Name = 7143175
REMARK  5 active torsions:
REMARK  status: ('A' for Active; 'I' for Inactive)
REMARK    1  A    between atoms: S_1  and  N_6
REMARK    2  A    between atoms: S_1  and  C_20
REMARK    3  A    between atoms: N_8  and  C_18
REMARK    4  A    between atoms: C_21  and  C_22
REMARK    5  A    between atoms: C_22  and  C_23
REMARK                            x       y       z     vdW  Elec       q    Type
REMARK                         _______ _______ _______ _____ _____    ______ ____
ROOT
ATOM      4  O   UNL     1      10.015   6.861   0.838  0.00  0.00    -0.266 OA
ATOM      6  N   UNL     1      11.077   7.461   5.669  0.00  0.00    -0.180 NA
ATOM      7  N   UNL     1       9.840   6.169   3.063  0.00  0.00    -0.310 N 
ATOM      9  C   UNL     1       8.714   7.587   4.874  0.00  0.00    +0.025 C 
ATOM     10  C   UNL     1       9.686   5.410   5.461  0.00  0.00    +0.052 C 
ATOM     11  C   UNL     1       8.413   6.250   5.537  0.00  0.00    +0.017 C 
ATOM     12  C   UNL     1       9.854   8.311   5.608  0.00  0.00    +0.114 C 
ATOM     13  C   UNL     1      10.812   6.108   6.245  0.00  0.00    +0.118 C 
ATOM     14  C   UNL     1       9.030   7.351   3.392  0.00  0.00    +0.130 C 
ATOM     15  C   UNL     1      10.106   5.184   4.020  0.00  0.00    +0.026 A 
ATOM     16  C   UNL     1      10.750   4.059   3.670  0.00  0.00    +0.024 A 
ATOM     17  C   UNL     1      10.241   6.030   1.720  0.00  0.00    +0.273 A 
ATOM     18  C   UNL     1      10.976   4.773   1.375  0.00  0.00    +0.099 A 
ATOM     19  C   UNL     1      11.194   3.852   2.320  0.00  0.00    +0.030 A 
ENDROOT
BRANCH   6   1
ATOM      1  S   UNL     1      12.493   8.240   6.233  0.00  0.00    +0.029 S 
ATOM      2  O   UNL     1      12.124   9.188   7.262  0.00  0.00    -0.158 OA
ATOM      3  O   UNL     1      13.297   8.627   5.095  0.00  0.00    -0.158 OA
ATOM     20  C   UNL     1      13.284   6.859   7.018  0.00  0.00    +0.215 C 
ENDBRANCH   6   1
BRANCH  18   8
ATOM      5  O   UNL     1      13.307   3.350   0.516  0.00  0.00    -0.275 OA
ATOM      8  N   UNL     1      11.393   4.606   0.088  0.00  0.00    -0.281 N 
ATOM     21  C   UNL     1      12.539   3.903  -0.268  0.00  0.00    +0.222 C 
ATOM     29  H   UNL     1      10.967   5.215  -0.607  0.00  0.00    +0.155 HD
BRANCH  21  22
ATOM     22  C   UNL     1      12.736   3.894  -1.773  0.00  0.00    +0.131 C 
BRANCH  22  23
ATOM     23  C   UNL     1      11.539   3.380  -2.529  0.00  0.00    -0.039 A 
ATOM     24  C   UNL     1      11.176   2.046  -2.406  0.00  0.00    +0.004 A 
ATOM     25  C   UNL     1      10.818   4.246  -3.338  0.00  0.00    +0.004 A 
ATOM     26  C   UNL     1      10.068   1.569  -3.108  0.00  0.00    +0.000 A 
ATOM     27  C   UNL     1       9.710   3.770  -4.038  0.00  0.00    +0.000 A 
ATOM     28  C   UNL     1       9.335   2.432  -3.923  0.00  0.00    +0.000 A 
ENDBRANCH  22  23
ENDBRANCH  21  22
ENDBRANCH  18   8
TORSDOF 4
ENDMDL
