MODEL 1
REMARK VINA RESULT:      -7.3      0.000      0.000
REMARK  Name = 11942988
REMARK  5 active torsions:
REMARK  status: ('A' for Active; 'I' for Inactive)
REMARK    1  A    between atoms: N_3  and  C_14
REMARK    2  A    between atoms: N_4  and  C_18
REMARK    3  A    between atoms: C_8  and  C_14
REMARK    4  A    between atoms: C_9  and  C_15
REMARK    5  A    between atoms: C_17  and  C_19
REMARK                            x       y       z     vdW  Elec       q    Type
REMARK                         _______ _______ _______ _____ _____    ______ ____
ROOT
ATOM      2  N   UNL     1     -18.153   3.043  25.826  0.00  0.00    -0.297 NA
ATOM      7  C   UNL     1     -17.790   0.621  26.708  0.00  0.00    +0.005 C 
ATOM      8  C   UNL     1     -16.907   2.474  25.247  0.00  0.00    +0.078 C 
ATOM      9  C   UNL     1     -18.016   1.609  27.868  0.00  0.00    +0.092 C 
ATOM     10  C   UNL     1     -16.586   1.097  25.871  0.00  0.00    +0.025 C 
ATOM     11  C   UNL     1     -19.035   0.702  25.807  0.00  0.00    +0.020 C 
ATOM     12  C   UNL     1     -18.079   3.042  27.308  0.00  0.00    +0.097 C 
ATOM     13  C   UNL     1     -19.284   2.172  25.419  0.00  0.00    +0.085 C 
ENDROOT
BRANCH   9  15
ATOM      1  O   UNL     1     -16.535   0.361  29.241  0.00  0.00    -0.275 OA
ATOM      4  N   UNL     1     -16.568   2.708  29.408  0.00  0.00    -0.285 N 
ATOM     15  C   UNL     1     -16.953   1.468  28.916  0.00  0.00    +0.222 C 
ATOM     29  H   UNL     1     -17.033   3.531  29.032  0.00  0.00    +0.155 HD
BRANCH   4  18
ATOM     18  C   UNL     1     -15.595   2.977  30.402  0.00  0.00    +0.033 A 
ATOM     24  C   UNL     1     -14.256   2.773  30.112  0.00  0.00    +0.023 A 
ATOM     25  C   UNL     1     -16.004   3.437  31.642  0.00  0.00    +0.023 A 
ATOM     26  C   UNL     1     -13.299   3.038  31.091  0.00  0.00    +0.002 A 
ATOM     27  C   UNL     1     -15.047   3.702  32.621  0.00  0.00    +0.002 A 
ATOM     28  C   UNL     1     -13.694   3.502  32.345  0.00  0.00    +0.000 A 
ENDBRANCH   4  18
ENDBRANCH   9  15
BRANCH   8  14
ATOM     14  C   UNL     1     -15.722   3.436  25.354  0.00  0.00    +0.164 C 
BRANCH  14   3
ATOM      3  N   UNL     1     -15.380   4.017  24.066  0.00  0.00    -0.250 N 
ATOM      5  N   UNL     1     -16.096   3.715  22.979  0.00  0.00    -0.065 NA
ATOM      6  N   UNL     1     -15.559   4.385  21.966  0.00  0.00    -0.130 NA
ATOM     16  C   UNL     1     -14.371   4.879  23.799  0.00  0.00    +0.138 A 
ATOM     17  C   UNL     1     -14.501   5.102  22.451  0.00  0.00    +0.108 A 
BRANCH  17  19
ATOM     19  C   UNL     1     -13.695   5.943  21.613  0.00  0.00    -0.023 C 
ATOM     20  C   UNL     1     -14.342   6.973  20.732  0.00  0.00    +0.037 C 
ATOM     21  C   UNL     1     -13.166   7.863  20.333  0.00  0.00    +0.009 C 
ATOM     22  C   UNL     1     -11.916   7.005  20.501  0.00  0.00    +0.028 C 
ATOM     23  C   UNL     1     -12.361   5.968  21.478  0.00  0.00    -0.021 C 
ENDBRANCH  17  19
ENDBRANCH  14   3
ENDBRANCH   8  14
TORSDOF 5
ENDMDL
MODEL 2
REMARK VINA RESULT:      -7.3     28.183     31.579
REMARK  Name = 11942988
REMARK  5 active torsions:
REMARK  status: ('A' for Active; 'I' for Inactive)
REMARK    1  A    between atoms: N_3  and  C_14
REMARK    2  A    between atoms: N_4  and  C_18
REMARK    3  A    between atoms: C_8  and  C_14
REMARK    4  A    between atoms: C_9  and  C_15
REMARK    5  A    between atoms: C_17  and  C_19
REMARK                            x       y       z     vdW  Elec       q    Type
REMARK                         _______ _______ _______ _____ _____    ______ ____
ROOT
ATOM      2  N   UNL     1      13.212   7.920  19.482  0.00  0.00    -0.297 NA
ATOM      7  C   UNL     1      11.916   8.137  21.729  0.00  0.00    +0.005 C 
ATOM      8  C   UNL     1      14.126   7.652  20.624  0.00  0.00    +0.078 C 
ATOM      9  C   UNL     1      11.722   9.388  20.851  0.00  0.00    +0.092 C 
ATOM     10  C   UNL     1      13.423   7.923  21.973  0.00  0.00    +0.025 C 
ATOM     11  C   UNL     1      11.409   6.936  20.911  0.00  0.00    +0.020 C 
ATOM     12  C   UNL     1      12.619   9.276  19.605  0.00  0.00    +0.097 C 
ATOM     13  C   UNL     1      12.109   6.928  19.539  0.00  0.00    +0.085 C 
ENDROOT
BRANCH   9  15
ATOM      1  O   UNL     1      13.063  11.237  21.499  0.00  0.00    -0.275 OA
ATOM      4  N   UNL     1      10.923  10.973  22.439  0.00  0.00    -0.285 N 
ATOM     15  C   UNL     1      11.997  10.642  21.625  0.00  0.00    +0.222 C 
ATOM     29  H   UNL     1      10.114  10.355  22.431  0.00  0.00    +0.155 HD
BRANCH   4  18
ATOM     18  C   UNL     1      10.813  12.083  23.312  0.00  0.00    +0.033 A 
ATOM     24  C   UNL     1      10.899  11.880  24.680  0.00  0.00    +0.023 A 
ATOM     25  C   UNL     1      10.623  13.347  22.780  0.00  0.00    +0.023 A 
ATOM     26  C   UNL     1      10.790  12.973  25.539  0.00  0.00    +0.002 A 
ATOM     27  C   UNL     1      10.515  14.440  23.639  0.00  0.00    +0.002 A 
ATOM     28  C   UNL     1      10.599  14.253  25.019  0.00  0.00    +0.000 A 
ENDBRANCH   4  18
ENDBRANCH   9  15
BRANCH   8  14
ATOM     14  C   UNL     1      15.445   8.419  20.507  0.00  0.00    +0.164 C 
BRANCH  14   3
ATOM      3  N   UNL     1      16.570   7.529  20.274  0.00  0.00    -0.250 N 
ATOM      5  N   UNL     1      16.511   6.607  19.308  0.00  0.00    -0.065 NA
ATOM      6  N   UNL     1      17.666   5.952  19.329  0.00  0.00    -0.130 NA
ATOM     16  C   UNL     1      17.746   7.503  20.944  0.00  0.00    +0.138 A 
ATOM     17  C   UNL     1      18.434   6.488  20.326  0.00  0.00    +0.108 A 
BRANCH  17  19
ATOM     19  C   UNL     1      19.754   6.008  20.621  0.00  0.00    -0.023 C 
ATOM     20  C   UNL     1      20.735   6.892  21.335  0.00  0.00    +0.037 C 
ATOM     21  C   UNL     1      21.818   5.907  21.776  0.00  0.00    +0.009 C 
ATOM     22  C   UNL     1      21.704   4.712  20.834  0.00  0.00    +0.028 C 
ATOM     23  C   UNL     1      20.296   4.813  20.349  0.00  0.00    -0.021 C 
ENDBRANCH  17  19
ENDBRANCH  14   3
ENDBRANCH   8  14
TORSDOF 5
ENDMDL
MODEL 3
REMARK VINA RESULT:      -6.9     18.592     20.288
REMARK  Name = 11942988
REMARK  5 active torsions:
REMARK  status: ('A' for Active; 'I' for Inactive)
REMARK    1  A    between atoms: N_3  and  C_14
REMARK    2  A    between atoms: N_4  and  C_18
REMARK    3  A    between atoms: C_8  and  C_14
REMARK    4  A    between atoms: C_9  and  C_15
REMARK    5  A    between atoms: C_17  and  C_19
REMARK                            x       y       z     vdW  Elec       q    Type
REMARK                         _______ _______ _______ _____ _____    ______ ____
ROOT
ATOM      2  N   UNL     1      -5.072 -13.039  17.760  0.00  0.00    -0.297 NA
ATOM      7  C   UNL     1      -5.886 -10.639  18.355  0.00  0.00    +0.005 C 
ATOM      8  C   UNL     1      -4.669 -12.087  16.691  0.00  0.00    +0.078 C 
ATOM      9  C   UNL     1      -7.041 -11.655  18.433  0.00  0.00    +0.092 C 
ATOM     10  C   UNL     1      -5.271 -10.685  16.942  0.00  0.00    +0.025 C 
ATOM     11  C   UNL     1      -4.806 -11.118  19.342  0.00  0.00    +0.020 C 
ATOM     12  C   UNL     1      -6.546 -13.024  17.934  0.00  0.00    +0.097 C 
ATOM     13  C   UNL     1      -4.453 -12.585  19.031  0.00  0.00    +0.085 C 
ENDROOT
BRANCH   9  15
ATOM      1  O   UNL     1      -8.720 -11.866  16.767  0.00  0.00    -0.275 OA
ATOM      4  N   UNL     1      -8.649  -9.929  18.099  0.00  0.00    -0.285 N 
ATOM     15  C   UNL     1      -8.235 -11.179  17.660  0.00  0.00    +0.222 C 
ATOM     29  H   UNL     1      -8.119  -9.491  18.850  0.00  0.00    +0.155 HD
BRANCH   4  18
ATOM     18  C   UNL     1      -9.735  -9.161  17.614  0.00  0.00    +0.033 A 
ATOM     24  C   UNL     1     -11.030  -9.583  17.866  0.00  0.00    +0.023 A 
ATOM     25  C   UNL     1      -9.480  -8.004  16.897  0.00  0.00    +0.023 A 
ATOM     26  C   UNL     1     -12.100  -8.827  17.388  0.00  0.00    +0.002 A 
ATOM     27  C   UNL     1     -10.550  -7.247  16.419  0.00  0.00    +0.002 A 
ATOM     28  C   UNL     1     -11.859  -7.659  16.664  0.00  0.00    +0.000 A 
ENDBRANCH   4  18
ENDBRANCH   9  15
BRANCH   8  14
ATOM     14  C   UNL     1      -5.005 -12.606  15.292  0.00  0.00    +0.164 C 
BRANCH  14   3
ATOM      3  N   UNL     1      -4.501 -11.725  14.252  0.00  0.00    -0.250 N 
ATOM      5  N   UNL     1      -3.205 -11.400  14.214  0.00  0.00    -0.065 NA
ATOM      6  N   UNL     1      -3.040 -10.595  13.171  0.00  0.00    -0.130 NA
ATOM     16  C   UNL     1      -5.209 -11.150  13.251  0.00  0.00    +0.138 A 
ATOM     17  C   UNL     1      -4.258 -10.431  12.571  0.00  0.00    +0.108 A 
BRANCH  17  19
ATOM     19  C   UNL     1      -4.435  -9.614  11.404  0.00  0.00    -0.023 C 
ATOM     20  C   UNL     1      -3.322  -9.472  10.407  0.00  0.00    +0.037 C 
ATOM     21  C   UNL     1      -4.031  -8.873   9.193  0.00  0.00    +0.009 C 
ATOM     22  C   UNL     1      -5.286  -8.195   9.734  0.00  0.00    +0.028 C 
ATOM     23  C   UNL     1      -5.510  -8.908  11.026  0.00  0.00    -0.021 C 
ENDBRANCH  17  19
ENDBRANCH  14   3
ENDBRANCH   8  14
TORSDOF 5
ENDMDL
MODEL 4
REMARK VINA RESULT:      -6.8      6.274     10.501
REMARK  Name = 11942988
REMARK  5 active torsions:
REMARK  status: ('A' for Active; 'I' for Inactive)
REMARK    1  A    between atoms: N_3  and  C_14
REMARK    2  A    between atoms: N_4  and  C_18
REMARK    3  A    between atoms: C_8  and  C_14
REMARK    4  A    between atoms: C_9  and  C_15
REMARK    5  A    between atoms: C_17  and  C_19
REMARK                            x       y       z     vdW  Elec       q    Type
REMARK                         _______ _______ _______ _____ _____    ______ ____
ROOT
ATOM      2  N   UNL     1     -14.258   8.770  33.962  0.00  0.00    -0.297 NA
ATOM      7  C   UNL     1     -12.047   9.191  32.655  0.00  0.00    +0.005 C 
ATOM      8  C   UNL     1     -13.776   7.499  33.357  0.00  0.00    +0.078 C 
ATOM      9  C   UNL     1     -13.149  10.174  32.218  0.00  0.00    +0.092 C 
ATOM     10  C   UNL     1     -12.550   7.748  32.450  0.00  0.00    +0.025 C 
ATOM     11  C   UNL     1     -11.845   9.395  34.168  0.00  0.00    +0.020 C 
ATOM     12  C   UNL     1     -14.471   9.793  32.908  0.00  0.00    +0.097 C 
ATOM     13  C   UNL     1     -13.204   9.267  34.881  0.00  0.00    +0.085 C 
ENDROOT
BRANCH   9  15
ATOM      1  O   UNL     1     -14.340   9.872  30.186  0.00  0.00    -0.275 OA
ATOM      4  N   UNL     1     -12.113  10.629  30.121  0.00  0.00    -0.285 N 
ATOM     15  C   UNL     1     -13.289  10.202  30.725  0.00  0.00    +0.222 C 
ATOM     29  H   UNL     1     -11.325  10.852  30.725  0.00  0.00    +0.155 HD
BRANCH   4  18
ATOM     18  C   UNL     1     -11.863  10.783  28.736  0.00  0.00    +0.033 A 
ATOM     24  C   UNL     1     -11.088   9.841  28.078  0.00  0.00    +0.023 A 
ATOM     25  C   UNL     1     -12.399  11.872  28.068  0.00  0.00    +0.023 A 
ATOM     26  C   UNL     1     -10.842   9.993  26.715  0.00  0.00    +0.002 A 
ATOM     27  C   UNL     1     -12.152  12.023  26.703  0.00  0.00    +0.002 A 
ATOM     28  C   UNL     1     -11.374  11.084  26.027  0.00  0.00    +0.000 A 
ENDBRANCH   4  18
ENDBRANCH   9  15
BRANCH   8  14
ATOM     14  C   UNL     1     -14.885   6.747  32.619  0.00  0.00    +0.164 C 
BRANCH  14   3
ATOM      3  N   UNL     1     -14.660   5.311  32.623  0.00  0.00    -0.250 N 
ATOM      5  N   UNL     1     -14.246   4.698  33.736  0.00  0.00    -0.065 NA
ATOM      6  N   UNL     1     -14.130   3.407  33.444  0.00  0.00    -0.130 NA
ATOM     16  C   UNL     1     -14.824   4.454  31.589  0.00  0.00    +0.138 A 
ATOM     17  C   UNL     1     -14.480   3.241  32.132  0.00  0.00    +0.108 A 
BRANCH  17  19
ATOM     19  C   UNL     1     -14.465   1.957  31.490  0.00  0.00    -0.023 C 
ATOM     20  C   UNL     1     -13.845   1.801  30.132  0.00  0.00    +0.037 C 
ATOM     21  C   UNL     1     -13.698   0.285  30.001  0.00  0.00    +0.009 C 
ATOM     22  C   UNL     1     -14.721  -0.318  30.958  0.00  0.00    +0.028 C 
ATOM     23  C   UNL     1     -14.945   0.787  31.935  0.00  0.00    -0.021 C 
ENDBRANCH  17  19
ENDBRANCH  14   3
ENDBRANCH   8  14
TORSDOF 5
ENDMDL
MODEL 5
REMARK VINA RESULT:      -6.7     31.393     37.448
REMARK  Name = 11942988
REMARK  5 active torsions:
REMARK  status: ('A' for Active; 'I' for Inactive)
REMARK    1  A    between atoms: N_3  and  C_14
REMARK    2  A    between atoms: N_4  and  C_18
REMARK    3  A    between atoms: C_8  and  C_14
REMARK    4  A    between atoms: C_9  and  C_15
REMARK    5  A    between atoms: C_17  and  C_19
REMARK                            x       y       z     vdW  Elec       q    Type
REMARK                         _______ _______ _______ _____ _____    ______ ____
ROOT
ATOM      2  N   UNL     1      13.435   5.885   1.806  0.00  0.00    -0.297 NA
ATOM      7  C   UNL     1      13.035   3.549   0.729  0.00  0.00    +0.005 C 
ATOM      8  C   UNL     1      12.231   5.250   2.404  0.00  0.00    +0.078 C 
ATOM      9  C   UNL     1      13.183   4.642  -0.347  0.00  0.00    +0.092 C 
ATOM     10  C   UNL     1      11.881   3.931   1.677  0.00  0.00    +0.025 C 
ATOM     11  C   UNL     1      14.333   3.563   1.557  0.00  0.00    +0.020 C 
ATOM     12  C   UNL     1      13.271   6.018   0.337  0.00  0.00    +0.097 C 
ATOM     13  C   UNL     1      14.595   4.994   2.062  0.00  0.00    +0.085 C 
ENDROOT
BRANCH   9  15
ATOM      1  O   UNL     1      11.106   5.353  -1.253  0.00  0.00    -0.275 OA
ATOM      4  N   UNL     1      12.273   3.585  -2.279  0.00  0.00    -0.285 N 
ATOM     15  C   UNL     1      12.058   4.583  -1.337  0.00  0.00    +0.222 C 
ATOM     29  H   UNL     1      13.118   3.026  -2.191  0.00  0.00    +0.155 HD
BRANCH   4  18
ATOM     18  C   UNL     1      11.435   3.230  -3.364  0.00  0.00    +0.033 A 
ATOM     24  C   UNL     1      11.826   3.550  -4.654  0.00  0.00    +0.023 A 
ATOM     25  C   UNL     1      10.244   2.570  -3.112  0.00  0.00    +0.023 A 
ATOM     26  C   UNL     1      11.001   3.201  -5.722  0.00  0.00    +0.002 A 
ATOM     27  C   UNL     1       9.419   2.221  -4.181  0.00  0.00    +0.002 A 
ATOM     28  C   UNL     1       9.798   2.536  -5.486  0.00  0.00    +0.000 A 
ENDBRANCH   4  18
ENDBRANCH   9  15
BRANCH   8  14
ATOM     14  C   UNL     1      11.035   6.203   2.459  0.00  0.00    +0.164 C 
BRANCH  14   3
ATOM      3  N   UNL     1      10.435   6.243   3.782  0.00  0.00    -0.250 N 
ATOM      5  N   UNL     1       9.500   7.153   4.070  0.00  0.00    -0.065 NA
ATOM      6  N   UNL     1       9.141   6.950   5.332  0.00  0.00    -0.130 NA
ATOM     16  C   UNL     1      10.710   5.432   4.831  0.00  0.00    +0.138 A 
ATOM     17  C   UNL     1       9.873   5.899   5.813  0.00  0.00    +0.108 A 
BRANCH  17  19
ATOM     19  C   UNL     1       9.730   5.414   7.156  0.00  0.00    -0.023 C 
ATOM     20  C   UNL     1       9.464   6.374   8.280  0.00  0.00    +0.037 C 
ATOM     21  C   UNL     1       9.011   5.452   9.411  0.00  0.00    +0.009 C 
ATOM     22  C   UNL     1       9.583   4.076   9.083  0.00  0.00    +0.028 C 
ATOM     23  C   UNL     1       9.795   4.154   7.608  0.00  0.00    -0.021 C 
ENDBRANCH  17  19
ENDBRANCH  14   3
ENDBRANCH   8  14
TORSDOF 5
ENDMDL
MODEL 6
REMARK VINA RESULT:      -6.7     28.791     31.944
REMARK  Name = 11942988
REMARK  5 active torsions:
REMARK  status: ('A' for Active; 'I' for Inactive)
REMARK    1  A    between atoms: N_3  and  C_14
REMARK    2  A    between atoms: N_4  and  C_18
REMARK    3  A    between atoms: C_8  and  C_14
REMARK    4  A    between atoms: C_9  and  C_15
REMARK    5  A    between atoms: C_17  and  C_19
REMARK                            x       y       z     vdW  Elec       q    Type
REMARK                         _______ _______ _______ _____ _____    ______ ____
ROOT
ATOM      2  N   UNL     1      12.671   9.525  19.572  0.00  0.00    -0.297 NA
ATOM      7  C   UNL     1      12.570   7.944  21.638  0.00  0.00    +0.005 C 
ATOM      8  C   UNL     1      12.330   8.144  19.139  0.00  0.00    +0.078 C 
ATOM      9  C   UNL     1      13.897   8.726  21.598  0.00  0.00    +0.092 C 
ATOM     10  C   UNL     1      12.413   7.155  20.323  0.00  0.00    +0.025 C 
ATOM     11  C   UNL     1      11.440   8.989  21.684  0.00  0.00    +0.020 C 
ATOM     12  C   UNL     1      13.971   9.532  20.289  0.00  0.00    +0.097 C 
ATOM     13  C   UNL     1      11.620   9.979  20.518  0.00  0.00    +0.085 C 
ENDROOT
BRANCH   9  15
ATOM      1  O   UNL     1      15.009   6.824  22.484  0.00  0.00    -0.275 OA
ATOM      4  N   UNL     1      16.149   8.241  20.991  0.00  0.00    -0.285 N 
ATOM     15  C   UNL     1      15.072   7.808  21.754  0.00  0.00    +0.222 C 
ATOM     29  H   UNL     1      16.032   9.094  20.448  0.00  0.00    +0.155 HD
BRANCH   4  18
ATOM     18  C   UNL     1      17.425   7.637  20.880  0.00  0.00    +0.033 A 
ATOM     24  C   UNL     1      18.521   8.258  21.455  0.00  0.00    +0.023 A 
ATOM     25  C   UNL     1      17.549   6.436  20.201  0.00  0.00    +0.023 A 
ATOM     26  C   UNL     1      19.777   7.663  21.346  0.00  0.00    +0.002 A 
ATOM     27  C   UNL     1      18.806   5.841  20.093  0.00  0.00    +0.002 A 
ATOM     28  C   UNL     1      19.920   6.454  20.665  0.00  0.00    +0.000 A 
ENDBRANCH   4  18
ENDBRANCH   9  15
BRANCH   8  14
ATOM     14  C   UNL     1      13.175   7.680  17.951  0.00  0.00    +0.164 C 
BRANCH  14   3
ATOM      3  N   UNL     1      13.199   8.668  16.885  0.00  0.00    -0.250 N 
ATOM      5  N   UNL     1      12.146   8.810  16.075  0.00  0.00    -0.065 NA
ATOM      6  N   UNL     1      12.450   9.774  15.213  0.00  0.00    -0.130 NA
ATOM     16  C   UNL     1      14.205   9.522  16.581  0.00  0.00    +0.138 A 
ATOM     17  C   UNL     1      13.708  10.220  15.509  0.00  0.00    +0.108 A 
BRANCH  17  19
ATOM     19  C   UNL     1      14.347  11.268  14.765  0.00  0.00    -0.023 C 
ATOM     20  C   UNL     1      15.787  11.135  14.360  0.00  0.00    +0.037 C 
ATOM     21  C   UNL     1      15.942  12.229  13.304  0.00  0.00    +0.009 C 
ATOM     22  C   UNL     1      14.836  13.241  13.585  0.00  0.00    +0.028 C 
ATOM     23  C   UNL     1      13.834  12.429  14.336  0.00  0.00    -0.021 C 
ENDBRANCH  17  19
ENDBRANCH  14   3
ENDBRANCH   8  14
TORSDOF 5
ENDMDL
MODEL 7
REMARK VINA RESULT:      -6.7     18.240     20.959
REMARK  Name = 11942988
REMARK  5 active torsions:
REMARK  status: ('A' for Active; 'I' for Inactive)
REMARK    1  A    between atoms: N_3  and  C_14
REMARK    2  A    between atoms: N_4  and  C_18
REMARK    3  A    between atoms: C_8  and  C_14
REMARK    4  A    between atoms: C_9  and  C_15
REMARK    5  A    between atoms: C_17  and  C_19
REMARK                            x       y       z     vdW  Elec       q    Type
REMARK                         _______ _______ _______ _____ _____    ______ ____
ROOT
ATOM      2  N   UNL     1      -4.964 -10.540  17.870  0.00  0.00    -0.297 NA
ATOM      7  C   UNL     1      -5.188 -12.854  16.699  0.00  0.00    +0.005 C 
ATOM      8  C   UNL     1      -6.372 -10.760  17.446  0.00  0.00    +0.078 C 
ATOM      9  C   UNL     1      -4.054 -12.020  16.074  0.00  0.00    +0.092 C 
ATOM     10  C   UNL     1      -6.504 -12.055  16.614  0.00  0.00    +0.025 C 
ATOM     11  C   UNL     1      -4.848 -13.018  18.192  0.00  0.00    +0.020 C 
ATOM     12  C   UNL     1      -4.056 -10.613  16.698  0.00  0.00    +0.097 C 
ATOM     13  C   UNL     1      -4.595 -11.630  18.808  0.00  0.00    +0.085 C 
ENDROOT
BRANCH   9  15
ATOM      1  O   UNL     1      -4.527 -12.956  13.944  0.00  0.00    -0.275 OA
ATOM      4  N   UNL     1      -3.855 -10.706  14.096  0.00  0.00    -0.285 N 
ATOM     15  C   UNL     1      -4.179 -11.967  14.580  0.00  0.00    +0.222 C 
ATOM     29  H   UNL     1      -3.573  -9.999  14.771  0.00  0.00    +0.155 HD
BRANCH   4  18
ATOM     18  C   UNL     1      -3.856 -10.275  12.748  0.00  0.00    +0.033 A 
ATOM     24  C   UNL     1      -2.660 -10.222  12.052  0.00  0.00    +0.023 A 
ATOM     25  C   UNL     1      -5.055  -9.917  12.152  0.00  0.00    +0.023 A 
ATOM     26  C   UNL     1      -2.661  -9.797  10.724  0.00  0.00    +0.002 A 
ATOM     27  C   UNL     1      -5.056  -9.493  10.824  0.00  0.00    +0.002 A 
ATOM     28  C   UNL     1      -3.859  -9.433  10.110  0.00  0.00    +0.000 A 
ENDBRANCH   4  18
ENDBRANCH   9  15
BRANCH   8  14
ATOM     14  C   UNL     1      -6.955  -9.551  16.711  0.00  0.00    +0.164 C 
BRANCH  14   3
ATOM      3  N   UNL     1      -8.365  -9.365  17.009  0.00  0.00    -0.250 N 
ATOM      5  N   UNL     1      -9.127  -8.609  16.214  0.00  0.00    -0.065 NA
ATOM      6  N   UNL     1     -10.352  -8.623  16.727  0.00  0.00    -0.130 NA
ATOM     16  C   UNL     1      -9.058  -9.887  18.048  0.00  0.00    +0.138 A 
ATOM     17  C   UNL     1     -10.327  -9.401  17.851  0.00  0.00    +0.108 A 
BRANCH  17  19
ATOM     19  C   UNL     1     -11.495  -9.630  18.654  0.00  0.00    -0.023 C 
ATOM     20  C   UNL     1     -11.353 -10.081  20.079  0.00  0.00    +0.037 C 
ATOM     21  C   UNL     1     -12.749  -9.833  20.651  0.00  0.00    +0.009 C 
ATOM     22  C   UNL     1     -13.696  -9.828  19.455  0.00  0.00    +0.028 C 
ATOM     23  C   UNL     1     -12.786  -9.496  18.320  0.00  0.00    -0.021 C 
ENDBRANCH  17  19
ENDBRANCH  14   3
ENDBRANCH   8  14
TORSDOF 5
ENDMDL
MODEL 8
REMARK VINA RESULT:      -6.4     31.405     33.881
REMARK  Name = 11942988
REMARK  5 active torsions:
REMARK  status: ('A' for Active; 'I' for Inactive)
REMARK    1  A    between atoms: N_3  and  C_14
REMARK    2  A    between atoms: N_4  and  C_18
REMARK    3  A    between atoms: C_8  and  C_14
REMARK    4  A    between atoms: C_9  and  C_15
REMARK    5  A    between atoms: C_17  and  C_19
REMARK                            x       y       z     vdW  Elec       q    Type
REMARK                         _______ _______ _______ _____ _____    ______ ____
ROOT
ATOM      2  N   UNL     1      10.230   8.457   6.264  0.00  0.00    -0.297 NA
ATOM      7  C   UNL     1       9.130   6.131   6.659  0.00  0.00    +0.005 C 
ATOM      8  C   UNL     1       8.879   8.423   5.644  0.00  0.00    +0.078 C 
ATOM      9  C   UNL     1      10.535   5.986   6.046  0.00  0.00    +0.092 C 
ATOM     10  C   UNL     1       8.265   7.008   5.731  0.00  0.00    +0.025 C 
ATOM     11  C   UNL     1       9.300   6.897   7.984  0.00  0.00    +0.020 C 
ATOM     12  C   UNL     1      11.083   7.382   5.697  0.00  0.00    +0.097 C 
ATOM     13  C   UNL     1      10.072   8.202   7.718  0.00  0.00    +0.085 C 
ENDROOT
BRANCH   9  15
ATOM      1  O   UNL     1      10.107   3.928   4.942  0.00  0.00    -0.275 OA
ATOM      4  N   UNL     1      11.000   5.731   3.723  0.00  0.00    -0.285 N 
ATOM     15  C   UNL     1      10.514   5.081   4.850  0.00  0.00    +0.222 C 
ATOM     29  H   UNL     1      11.311   6.695   3.830  0.00  0.00    +0.155 HD
BRANCH   4  18
ATOM     18  C   UNL     1      11.133   5.205   2.416  0.00  0.00    +0.033 A 
ATOM     24  C   UNL     1      12.254   4.456   2.097  0.00  0.00    +0.023 A 
ATOM     25  C   UNL     1      10.139   5.450   1.483  0.00  0.00    +0.023 A 
ATOM     26  C   UNL     1      12.385   3.939   0.809  0.00  0.00    +0.002 A 
ATOM     27  C   UNL     1      10.270   4.931   0.195  0.00  0.00    +0.002 A 
ATOM     28  C   UNL     1      11.393   4.176  -0.142  0.00  0.00    +0.000 A 
ENDBRANCH   4  18
ENDBRANCH   9  15
BRANCH   8  14
ATOM     14  C   UNL     1       8.882   8.955   4.210  0.00  0.00    +0.164 C 
BRANCH  14   3
ATOM      3  N   UNL     1       7.568   9.428   3.806  0.00  0.00    -0.250 N 
ATOM      5  N   UNL     1       6.826  10.154   4.647  0.00  0.00    -0.065 NA
ATOM      6  N   UNL     1       5.695  10.440   4.013  0.00  0.00    -0.130 NA
ATOM     16  C   UNL     1       6.954   9.223   2.617  0.00  0.00    +0.138 A 
ATOM     17  C   UNL     1       5.757   9.877   2.768  0.00  0.00    +0.108 A 
BRANCH  17  19
ATOM     19  C   UNL     1       4.689   9.998   1.816  0.00  0.00    -0.023 C 
ATOM     20  C   UNL     1       3.398  10.654   2.211  0.00  0.00    +0.037 C 
ATOM     21  C   UNL     1       2.725  10.913   0.864  0.00  0.00    +0.009 C 
ATOM     22  C   UNL     1       3.347   9.918  -0.111  0.00  0.00    +0.028 C 
ATOM     23  C   UNL     1       4.650   9.596   0.538  0.00  0.00    -0.021 C 
ENDBRANCH  17  19
ENDBRANCH  14   3
ENDBRANCH   8  14
TORSDOF 5
ENDMDL
MODEL 9
REMARK VINA RESULT:      -6.3     17.510     19.858
REMARK  Name = 11942988
REMARK  5 active torsions:
REMARK  status: ('A' for Active; 'I' for Inactive)
REMARK    1  A    between atoms: N_3  and  C_14
REMARK    2  A    between atoms: N_4  and  C_18
REMARK    3  A    between atoms: C_8  and  C_14
REMARK    4  A    between atoms: C_9  and  C_15
REMARK    5  A    between atoms: C_17  and  C_19
REMARK                            x       y       z     vdW  Elec       q    Type
REMARK                         _______ _______ _______ _____ _____    ______ ____
ROOT
ATOM      2  N   UNL     1      -7.779  -9.649  40.540  0.00  0.00    -0.297 NA
ATOM      7  C   UNL     1      -5.567  -8.365  40.054  0.00  0.00    +0.005 C 
ATOM      8  C   UNL     1      -7.797  -9.115  39.152  0.00  0.00    +0.078 C 
ATOM      9  C   UNL     1      -6.232  -7.861  41.349  0.00  0.00    +0.092 C 
ATOM     10  C   UNL     1      -6.565  -8.220  38.887  0.00  0.00    +0.025 C 
ATOM     11  C   UNL     1      -5.304  -9.870  40.246  0.00  0.00    +0.020 C 
ATOM     12  C   UNL     1      -7.602  -8.543  41.515  0.00  0.00    +0.097 C 
ATOM     13  C   UNL     1      -6.616 -10.563  40.662  0.00  0.00    +0.085 C 
ENDROOT
BRANCH   9  15
ATOM      1  O   UNL     1      -5.370  -5.657  41.551  0.00  0.00    -0.275 OA
ATOM      4  N   UNL     1      -7.659  -5.969  41.106  0.00  0.00    -0.285 N 
ATOM     15  C   UNL     1      -6.351  -6.366  41.350  0.00  0.00    +0.222 C 
ATOM     29  H   UNL     1      -8.358  -6.697  40.972  0.00  0.00    +0.155 HD
BRANCH   4  18
ATOM     18  C   UNL     1      -8.159  -4.646  41.032  0.00  0.00    +0.033 A 
ATOM     24  C   UNL     1      -8.434  -4.094  39.791  0.00  0.00    +0.023 A 
ATOM     25  C   UNL     1      -8.361  -3.932  42.202  0.00  0.00    +0.023 A 
ATOM     26  C   UNL     1      -8.926  -2.791  39.719  0.00  0.00    +0.002 A 
ATOM     27  C   UNL     1      -8.853  -2.629  42.129  0.00  0.00    +0.002 A 
ATOM     28  C   UNL     1      -9.135  -2.058  40.887  0.00  0.00    +0.000 A 
ENDBRANCH   4  18
ENDBRANCH   9  15
BRANCH   8  14
ATOM     14  C   UNL     1      -9.105  -8.392  38.822  0.00  0.00    +0.164 C 
BRANCH  14   3
ATOM      3  N   UNL     1     -10.117  -9.308  38.323  0.00  0.00    -0.250 N 
ATOM      5  N   UNL     1     -11.227  -9.538  39.032  0.00  0.00    -0.065 NA
ATOM      6  N   UNL     1     -11.956 -10.403  38.337  0.00  0.00    -0.130 NA
ATOM     16  C   UNL     1     -10.090 -10.005  37.163  0.00  0.00    +0.138 A 
ATOM     17  C   UNL     1     -11.274 -10.699  37.189  0.00  0.00    +0.108 A 
BRANCH  17  19
ATOM     19  C   UNL     1     -11.786 -11.610  36.205  0.00  0.00    -0.023 C 
ATOM     20  C   UNL     1     -13.103 -11.336  35.537  0.00  0.00    +0.037 C 
ATOM     21  C   UNL     1     -13.080 -12.290  34.343  0.00  0.00    +0.009 C 
ATOM     22  C   UNL     1     -12.100 -13.399  34.713  0.00  0.00    +0.028 C 
ATOM     23  C   UNL     1     -11.244 -12.747  35.746  0.00  0.00    -0.021 C 
ENDBRANCH  17  19
ENDBRANCH  14   3
ENDBRANCH   8  14
TORSDOF 5
ENDMDL
MODEL 10
REMARK VINA RESULT:      -6.3     17.564     19.313
REMARK  Name = 11942988
REMARK  5 active torsions:
REMARK  status: ('A' for Active; 'I' for Inactive)
REMARK    1  A    between atoms: N_3  and  C_14
REMARK    2  A    between atoms: N_4  and  C_18
REMARK    3  A    between atoms: C_8  and  C_14
REMARK    4  A    between atoms: C_9  and  C_15
REMARK    5  A    between atoms: C_17  and  C_19
REMARK                            x       y       z     vdW  Elec       q    Type
REMARK                         _______ _______ _______ _____ _____    ______ ____
ROOT
ATOM      2  N   UNL     1      -7.805 -12.264  17.383  0.00  0.00    -0.297 NA
ATOM      7  C   UNL     1      -9.040 -11.675  19.598  0.00  0.00    +0.005 C 
ATOM      8  C   UNL     1      -7.061 -11.203  18.113  0.00  0.00    +0.078 C 
ATOM      9  C   UNL     1      -9.995 -11.603  18.391  0.00  0.00    +0.092 C 
ATOM     10  C   UNL     1      -7.850 -10.726  19.353  0.00  0.00    +0.025 C 
ATOM     11  C   UNL     1      -8.483 -13.109  19.639  0.00  0.00    +0.020 C 
ATOM     12  C   UNL     1      -9.190 -11.815  17.095  0.00  0.00    +0.097 C 
ATOM     13  C   UNL     1      -7.880 -13.457  18.264  0.00  0.00    +0.085 C 
ENDROOT
BRANCH   9  15
ATOM      1  O   UNL     1     -11.290  -9.881  19.387  0.00  0.00    -0.275 OA
ATOM      4  N   UNL     1     -10.727  -9.734  17.107  0.00  0.00    -0.285 N 
ATOM     15  C   UNL     1     -10.749 -10.307  18.372  0.00  0.00    +0.222 C 
ATOM     29  H   UNL     1     -10.237 -10.235  16.369  0.00  0.00    +0.155 HD
BRANCH   4  18
ATOM     18  C   UNL     1     -11.326  -8.517  16.702  0.00  0.00    +0.033 A 
ATOM     24  C   UNL     1     -10.572  -7.355  16.710  0.00  0.00    +0.023 A 
ATOM     25  C   UNL     1     -12.653  -8.514  16.306  0.00  0.00    +0.023 A 
ATOM     26  C   UNL     1     -11.162  -6.156  16.312  0.00  0.00    +0.002 A 
ATOM     27  C   UNL     1     -13.243  -7.315  15.907  0.00  0.00    +0.002 A 
ATOM     28  C   UNL     1     -12.498  -6.136  15.910  0.00  0.00    +0.000 A 
ENDBRANCH   4  18
ENDBRANCH   9  15
BRANCH   8  14
ATOM     14  C   UNL     1      -6.670 -10.036  17.205  0.00  0.00    +0.164 C 
BRANCH  14   3
ATOM      3  N   UNL     1      -5.491 -10.339  16.411  0.00  0.00    -0.250 N 
ATOM      5  N   UNL     1      -4.388 -10.815  16.997  0.00  0.00    -0.065 NA
ATOM      6  N   UNL     1      -3.490 -10.997  16.036  0.00  0.00    -0.130 NA
ATOM     16  C   UNL     1      -5.347 -10.199  15.072  0.00  0.00    +0.138 A 
ATOM     17  C   UNL     1      -4.061 -10.625  14.851  0.00  0.00    +0.108 A 
BRANCH  17  19
ATOM     19  C   UNL     1      -3.357 -10.697  13.602  0.00  0.00    -0.023 C 
ATOM     20  C   UNL     1      -4.040 -11.243  12.382  0.00  0.00    +0.037 C 
ATOM     21  C   UNL     1      -3.117 -10.795  11.249  0.00  0.00    +0.009 C 
ATOM     22  C   UNL     1      -1.752 -10.565  11.890  0.00  0.00    +0.028 C 
ATOM     23  C   UNL     1      -2.099 -10.328  13.322  0.00  0.00    -0.021 C 
ENDBRANCH  17  19
ENDBRANCH  14   3
ENDBRANCH   8  14
TORSDOF 5
ENDMDL
