MODEL 1
REMARK VINA RESULT:      -6.7      0.000      0.000
REMARK  Name = 28963020
REMARK  12 active torsions:
REMARK  status: ('A' for Active; 'I' for Inactive)
REMARK    1  A    between atoms: O_1  and  C_10
REMARK    2  A    between atoms: O_4  and  C_29
REMARK    3  A    between atoms: O_4  and  C_30
REMARK    4  A    between atoms: N_5  and  C_14
REMARK    5  A    between atoms: N_6  and  C_23
REMARK    6  A    between atoms: C_7  and  C_17
REMARK    7  A    between atoms: C_9  and  C_19
REMARK    8  A    between atoms: C_12  and  C_18
REMARK    9  A    between atoms: C_18  and  C_20
REMARK   10  A    between atoms: C_18  and  C_21
REMARK   11  A    between atoms: C_22  and  C_24
REMARK   12  A    between atoms: C_24  and  C_29
REMARK                            x       y       z     vdW  Elec       q    Type
REMARK                         _______ _______ _______ _____ _____    ______ ____
ROOT
ATOM      7  C   UNL     1      15.809  10.291  21.309  0.00  0.00    -0.027 C 
ATOM      8  C   UNL     1      15.373   8.836  21.683  0.00  0.00    +0.028 C 
ATOM      9  C   UNL     1      16.362   7.781  21.071  0.00  0.00    +0.012 C 
ATOM     10  C   UNL     1      13.867   8.600  21.369  0.00  0.00    +0.122 C 
ATOM     11  C   UNL     1      14.883  11.306  22.019  0.00  0.00    +0.007 C 
ATOM     12  C   UNL     1      12.954   9.679  21.996  0.00  0.00    +0.029 C 
ATOM     13  C   UNL     1      17.249  10.533  21.819  0.00  0.00    +0.009 C 
ATOM     14  C   UNL     1      17.818   8.079  21.529  0.00  0.00    +0.076 C 
ATOM     15  C   UNL     1      13.411  11.104  21.683  0.00  0.00    +0.007 C 
ATOM     16  C   UNL     1      18.251   9.523  21.278  0.00  0.00    +0.023 C 
ATOM     17  C   UNL     1      15.758  10.554  19.783  0.00  0.00    +0.011 C 
ATOM     19  C   UNL     1      16.008   6.327  21.423  0.00  0.00    +0.010 C 
ENDROOT
BRANCH  14   5
ATOM      3  O   UNL     1      19.717   6.339  22.832  0.00  0.00    -0.276 OA
ATOM      5  N   UNL     1      18.772   7.196  20.891  0.00  0.00    -0.312 N 
ATOM     22  C   UNL     1      19.648   6.395  21.607  0.00  0.00    +0.215 C 
ATOM     31  H   UNL     1      18.839   7.217  19.877  0.00  0.00    +0.149 HD
BRANCH  22  24
ATOM     24  C   UNL     1      20.531   5.573  20.682  0.00  0.00    +0.124 C 
BRANCH  24  29
ATOM     29  C   UNL     1      21.863   6.244  20.383  0.00  0.00    +0.168 C 
BRANCH  29   4
ATOM      4  O   UNL     1      21.666   7.645  20.242  0.00  0.00    -0.382 OA
ATOM     30  C   UNL     1      22.902   8.336  20.125  0.00  0.00    +0.194 C 
ENDBRANCH  29   4
ENDBRANCH  24  29
ENDBRANCH  22  24
ENDBRANCH  14   5
BRANCH  10   1
ATOM      1  O   UNL     1      13.456   7.348  21.917  0.00  0.00    -0.391 OA
ATOM     32  H   UNL     1      12.673   7.044  21.427  0.00  0.00    +0.210 HD
ENDBRANCH  10   1
BRANCH  12  18
ATOM     18  C   UNL     1      11.492   9.505  21.568  0.00  0.00    +0.077 C 
ATOM     20  C   UNL     1      10.655   9.017  22.745  0.00  0.00    +0.017 C 
BRANCH  18  21
ATOM      2  O   UNL     1      10.966   7.399  20.493  0.00  0.00    -0.276 OA
ATOM      6  N   UNL     1      11.876   9.103  19.209  0.00  0.00    -0.312 N 
ATOM     21  C   UNL     1      11.405   8.542  20.388  0.00  0.00    +0.216 C 
ATOM     33  H   UNL     1      12.201  10.065  19.205  0.00  0.00    +0.149 HD
BRANCH   6  23
ATOM     23  C   UNL     1      11.898   8.386  17.958  0.00  0.00    +0.073 C 
ATOM     25  C   UNL     1      12.311   9.282  16.796  0.00  0.00    +0.022 C 
ATOM     26  C   UNL     1      12.971   7.305  17.949  0.00  0.00    +0.022 C 
ATOM     27  C   UNL     1      13.838   9.294  16.831  0.00  0.00    +0.002 C 
ATOM     28  C   UNL     1      14.261   8.046  17.608  0.00  0.00    +0.002 C 
ENDBRANCH   6  23
ENDBRANCH  18  21
ENDBRANCH  12  18
TORSDOF 8
ENDMDL
MODEL 2
REMARK VINA RESULT:      -6.6     27.577     30.046
REMARK  Name = 28963020
REMARK  12 active torsions:
REMARK  status: ('A' for Active; 'I' for Inactive)
REMARK    1  A    between atoms: O_1  and  C_10
REMARK    2  A    between atoms: O_4  and  C_29
REMARK    3  A    between atoms: O_4  and  C_30
REMARK    4  A    between atoms: N_5  and  C_14
REMARK    5  A    between atoms: N_6  and  C_23
REMARK    6  A    between atoms: C_7  and  C_17
REMARK    7  A    between atoms: C_9  and  C_19
REMARK    8  A    between atoms: C_12  and  C_18
REMARK    9  A    between atoms: C_18  and  C_20
REMARK   10  A    between atoms: C_18  and  C_21
REMARK   11  A    between atoms: C_22  and  C_24
REMARK   12  A    between atoms: C_24  and  C_29
REMARK                            x       y       z     vdW  Elec       q    Type
REMARK                         _______ _______ _______ _____ _____    ______ ____
ROOT
ATOM      7  C   UNL     1      -4.816 -11.060  16.969  0.00  0.00    -0.027 C 
ATOM      8  C   UNL     1      -5.653 -10.483  15.779  0.00  0.00    +0.028 C 
ATOM      9  C   UNL     1      -7.191 -10.658  16.041  0.00  0.00    +0.012 C 
ATOM     10  C   UNL     1      -5.142 -11.028  14.414  0.00  0.00    +0.122 C 
ATOM     11  C   UNL     1      -3.315 -10.771  16.732  0.00  0.00    +0.007 C 
ATOM     12  C   UNL     1      -3.620 -10.830  14.227  0.00  0.00    +0.029 C 
ATOM     13  C   UNL     1      -5.232 -10.342  18.273  0.00  0.00    +0.009 C 
ATOM     14  C   UNL     1      -7.586  -9.998  17.393  0.00  0.00    +0.076 C 
ATOM     15  C   UNL     1      -2.801 -11.337  15.414  0.00  0.00    +0.007 C 
ATOM     16  C   UNL     1      -6.721 -10.454  18.568  0.00  0.00    +0.023 C 
ATOM     17  C   UNL     1      -5.006 -12.588  17.145  0.00  0.00    +0.011 C 
ATOM     19  C   UNL     1      -8.077 -10.087  14.922  0.00  0.00    +0.010 C 
ENDROOT
BRANCH  14   5
ATOM      3  O   UNL     1      -9.692  -8.035  17.593  0.00  0.00    -0.276 OA
ATOM      5  N   UNL     1      -8.974 -10.240  17.723  0.00  0.00    -0.312 N 
ATOM     22  C   UNL     1      -9.916  -9.225  17.795  0.00  0.00    +0.215 C 
ATOM     31  H   UNL     1      -9.249 -11.186  17.973  0.00  0.00    +0.149 HD
BRANCH  22  24
ATOM     24  C   UNL     1     -11.289  -9.767  18.159  0.00  0.00    +0.124 C 
BRANCH  24  29
ATOM     29  C   UNL     1     -11.459  -9.996  19.653  0.00  0.00    +0.168 C 
BRANCH  29   4
ATOM      4  O   UNL     1     -10.317 -10.674  20.161  0.00  0.00    -0.382 OA
ATOM     30  C   UNL     1     -10.556 -12.068  20.294  0.00  0.00    +0.194 C 
ENDBRANCH  29   4
ENDBRANCH  24  29
ENDBRANCH  22  24
ENDBRANCH  14   5
BRANCH  10   1
ATOM      1  O   UNL     1      -5.779 -10.322  13.350  0.00  0.00    -0.391 OA
ATOM     32  H   UNL     1      -5.889  -9.395  13.624  0.00  0.00    +0.210 HD
ENDBRANCH  10   1
BRANCH  12  18
ATOM     18  C   UNL     1      -3.114 -11.488  12.938  0.00  0.00    +0.077 C 
ATOM     20  C   UNL     1      -1.883 -12.338  13.230  0.00  0.00    +0.017 C 
BRANCH  18  21
ATOM      2  O   UNL     1      -1.683  -9.995  11.677  0.00  0.00    -0.276 OA
ATOM      6  N   UNL     1      -3.957  -9.996  11.225  0.00  0.00    -0.312 N 
ATOM     21  C   UNL     1      -2.816 -10.420  11.890  0.00  0.00    +0.216 C 
ATOM     33  H   UNL     1      -4.854 -10.417  11.446  0.00  0.00    +0.149 HD
BRANCH   6  23
ATOM     23  C   UNL     1      -3.929  -8.990  10.191  0.00  0.00    +0.073 C 
ATOM     25  C   UNL     1      -4.225  -9.579   8.817  0.00  0.00    +0.022 C 
ATOM     26  C   UNL     1      -5.046  -7.970  10.369  0.00  0.00    +0.022 C 
ATOM     27  C   UNL     1      -5.750  -9.640   8.733  0.00  0.00    +0.002 C 
ATOM     28  C   UNL     1      -6.277  -8.637   9.760  0.00  0.00    +0.002 C 
ENDBRANCH   6  23
ENDBRANCH  18  21
ENDBRANCH  12  18
TORSDOF 8
ENDMDL
MODEL 3
REMARK VINA RESULT:      -6.5     26.388     30.983
REMARK  Name = 28963020
REMARK  12 active torsions:
REMARK  status: ('A' for Active; 'I' for Inactive)
REMARK    1  A    between atoms: O_1  and  C_10
REMARK    2  A    between atoms: O_4  and  C_29
REMARK    3  A    between atoms: O_4  and  C_30
REMARK    4  A    between atoms: N_5  and  C_14
REMARK    5  A    between atoms: N_6  and  C_23
REMARK    6  A    between atoms: C_7  and  C_17
REMARK    7  A    between atoms: C_9  and  C_19
REMARK    8  A    between atoms: C_12  and  C_18
REMARK    9  A    between atoms: C_18  and  C_20
REMARK   10  A    between atoms: C_18  and  C_21
REMARK   11  A    between atoms: C_22  and  C_24
REMARK   12  A    between atoms: C_24  and  C_29
REMARK                            x       y       z     vdW  Elec       q    Type
REMARK                         _______ _______ _______ _____ _____    ______ ____
ROOT
ATOM      7  C   UNL     1     -16.201   6.364  22.057  0.00  0.00    -0.027 C 
ATOM      8  C   UNL     1     -14.760   6.004  22.553  0.00  0.00    +0.028 C 
ATOM      9  C   UNL     1     -13.733   6.051  21.366  0.00  0.00    +0.012 C 
ATOM     10  C   UNL     1     -14.763   4.689  23.384  0.00  0.00    +0.122 C 
ATOM     11  C   UNL     1     -17.164   6.420  23.266  0.00  0.00    +0.007 C 
ATOM     12  C   UNL     1     -15.802   4.711  24.528  0.00  0.00    +0.029 C 
ATOM     13  C   UNL     1     -16.175   7.769  21.411  0.00  0.00    +0.009 C 
ATOM     14  C   UNL     1     -13.770   7.444  20.675  0.00  0.00    +0.076 C 
ATOM     15  C   UNL     1     -17.199   5.121  24.059  0.00  0.00    +0.007 C 
ATOM     16  C   UNL     1     -15.176   7.883  20.268  0.00  0.00    +0.023 C 
ATOM     17  C   UNL     1     -16.749   5.341  21.031  0.00  0.00    +0.011 C 
ATOM     19  C   UNL     1     -12.289   5.734  21.789  0.00  0.00    +0.010 C 
ENDROOT
BRANCH  14   5
ATOM      3  O   UNL     1     -11.623   9.300  20.151  0.00  0.00    -0.276 OA
ATOM      5  N   UNL     1     -12.919   7.484  19.505  0.00  0.00    -0.312 N 
ATOM     22  C   UNL     1     -11.909   8.420  19.344  0.00  0.00    +0.215 C 
ATOM     31  H   UNL     1     -13.117   6.837  18.746  0.00  0.00    +0.149 HD
BRANCH  22  24
ATOM     24  C   UNL     1     -11.178   8.226  18.024  0.00  0.00    +0.124 C 
BRANCH  24  29
ATOM     29  C   UNL     1     -10.078   9.252  17.800  0.00  0.00    +0.168 C 
BRANCH  29   4
ATOM      4  O   UNL     1     -10.100   9.679  16.444  0.00  0.00    -0.382 OA
ATOM     30  C   UNL     1     -10.053  11.096  16.343  0.00  0.00    +0.194 C 
ENDBRANCH  29   4
ENDBRANCH  24  29
ENDBRANCH  22  24
ENDBRANCH  14   5
BRANCH  10   1
ATOM      1  O   UNL     1     -13.486   4.510  23.996  0.00  0.00    -0.391 OA
ATOM     32  H   UNL     1     -12.828   5.003  23.476  0.00  0.00    +0.210 HD
ENDBRANCH  10   1
BRANCH  12  18
ATOM     18  C   UNL     1     -15.881   3.362  25.252  0.00  0.00    +0.077 C 
ATOM     20  C   UNL     1     -16.762   2.396  24.467  0.00  0.00    +0.017 C 
BRANCH  18  21
ATOM      2  O   UNL     1     -17.536   3.966  26.913  0.00  0.00    -0.276 OA
ATOM      6  N   UNL     1     -15.455   3.239  27.634  0.00  0.00    -0.312 N 
ATOM     21  C   UNL     1     -16.401   3.561  26.672  0.00  0.00    +0.216 C 
ATOM     33  H   UNL     1     -14.547   2.888  27.348  0.00  0.00    +0.149 HD
BRANCH   6  23
ATOM     23  C   UNL     1     -15.714   3.348  29.049  0.00  0.00    +0.073 C 
ATOM     25  C   UNL     1     -16.590   2.209  29.557  0.00  0.00    +0.022 C 
ATOM     26  C   UNL     1     -14.440   3.185  29.867  0.00  0.00    +0.022 C 
ATOM     27  C   UNL     1     -15.625   1.052  29.810  0.00  0.00    +0.002 C 
ATOM     28  C   UNL     1     -14.238   1.676  29.967  0.00  0.00    +0.002 C 
ENDBRANCH   6  23
ENDBRANCH  18  21
ENDBRANCH  12  18
TORSDOF 8
ENDMDL
MODEL 4
REMARK VINA RESULT:      -6.4     27.492     30.434
REMARK  Name = 28963020
REMARK  12 active torsions:
REMARK  status: ('A' for Active; 'I' for Inactive)
REMARK    1  A    between atoms: O_1  and  C_10
REMARK    2  A    between atoms: O_4  and  C_29
REMARK    3  A    between atoms: O_4  and  C_30
REMARK    4  A    between atoms: N_5  and  C_14
REMARK    5  A    between atoms: N_6  and  C_23
REMARK    6  A    between atoms: C_7  and  C_17
REMARK    7  A    between atoms: C_9  and  C_19
REMARK    8  A    between atoms: C_12  and  C_18
REMARK    9  A    between atoms: C_18  and  C_20
REMARK   10  A    between atoms: C_18  and  C_21
REMARK   11  A    between atoms: C_22  and  C_24
REMARK   12  A    between atoms: C_24  and  C_29
REMARK                            x       y       z     vdW  Elec       q    Type
REMARK                         _______ _______ _______ _____ _____    ______ ____
ROOT
ATOM      7  C   UNL     1      -3.780 -10.537  10.378  0.00  0.00    -0.027 C 
ATOM      8  C   UNL     1      -5.113 -10.268  11.153  0.00  0.00    +0.028 C 
ATOM      9  C   UNL     1      -5.953  -9.146  10.446  0.00  0.00    +0.012 C 
ATOM     10  C   UNL     1      -4.849 -10.049  12.671  0.00  0.00    +0.122 C 
ATOM     11  C   UNL     1      -3.033 -11.722  11.034  0.00  0.00    +0.007 C 
ATOM     12  C   UNL     1      -4.011 -11.187  13.298  0.00  0.00    +0.029 C 
ATOM     13  C   UNL     1      -4.115 -10.940   8.924  0.00  0.00    +0.009 C 
ATOM     14  C   UNL     1      -6.219  -9.526   8.961  0.00  0.00    +0.076 C 
ATOM     15  C   UNL     1      -2.737 -11.494  12.511  0.00  0.00    +0.007 C 
ATOM     16  C   UNL     1      -4.952  -9.900   8.193  0.00  0.00    +0.023 C 
ATOM     17  C   UNL     1      -2.842  -9.304  10.363  0.00  0.00    +0.011 C 
ATOM     19  C   UNL     1      -7.293  -8.849  11.140  0.00  0.00    +0.010 C 
ENDROOT
BRANCH  14   5
ATOM      3  O   UNL     1      -8.351  -9.802   7.036  0.00  0.00    -0.276 OA
ATOM      5  N   UNL     1      -6.892  -8.461   8.247  0.00  0.00    -0.312 N 
ATOM     22  C   UNL     1      -7.911  -8.696   7.336  0.00  0.00    +0.215 C 
ATOM     31  H   UNL     1      -6.555  -7.511   8.377  0.00  0.00    +0.149 HD
BRANCH  22  24
ATOM     24  C   UNL     1      -8.432  -7.397   6.741  0.00  0.00    +0.124 C 
BRANCH  24  29
ATOM     29  C   UNL     1      -8.523  -6.272   7.760  0.00  0.00    +0.168 C 
BRANCH  29   4
ATOM      4  O   UNL     1      -9.200  -6.739   8.920  0.00  0.00    -0.382 OA
ATOM     30  C   UNL     1     -10.493  -6.159   9.037  0.00  0.00    +0.194 C 
ENDBRANCH  29   4
ENDBRANCH  24  29
ENDBRANCH  22  24
ENDBRANCH  14   5
BRANCH  10   1
ATOM      1  O   UNL     1      -6.092 -10.023  13.372  0.00  0.00    -0.391 OA
ATOM     32  H   UNL     1      -6.224  -9.125  13.722  0.00  0.00    +0.210 HD
ENDBRANCH  10   1
BRANCH  12  18
ATOM     18  C   UNL     1      -3.651 -10.889  14.759  0.00  0.00    +0.077 C 
ATOM     20  C   UNL     1      -2.160 -10.596  14.883  0.00  0.00    +0.017 C 
BRANCH  18  21
ATOM      2  O   UNL     1      -4.112 -13.218  15.238  0.00  0.00    -0.276 OA
ATOM      6  N   UNL     1      -4.371 -11.663  16.939  0.00  0.00    -0.312 N 
ATOM     21  C   UNL     1      -4.063 -12.060  15.646  0.00  0.00    +0.216 C 
ATOM     33  H   UNL     1      -4.281 -10.687  17.200  0.00  0.00    +0.149 HD
BRANCH   6  23
ATOM     23  C   UNL     1      -4.790 -12.592  17.961  0.00  0.00    +0.073 C 
ATOM     25  C   UNL     1      -4.510 -12.059  19.361  0.00  0.00    +0.022 C 
ATOM     26  C   UNL     1      -6.301 -12.777  17.966  0.00  0.00    +0.022 C 
ATOM     27  C   UNL     1      -5.696 -11.151  19.683  0.00  0.00    +0.002 C 
ATOM     28  C   UNL     1      -6.833 -11.585  18.757  0.00  0.00    +0.002 C 
ENDBRANCH   6  23
ENDBRANCH  18  21
ENDBRANCH  12  18
TORSDOF 8
ENDMDL
MODEL 5
REMARK VINA RESULT:      -6.3     25.886     30.078
REMARK  Name = 28963020
REMARK  12 active torsions:
REMARK  status: ('A' for Active; 'I' for Inactive)
REMARK    1  A    between atoms: O_1  and  C_10
REMARK    2  A    between atoms: O_4  and  C_29
REMARK    3  A    between atoms: O_4  and  C_30
REMARK    4  A    between atoms: N_5  and  C_14
REMARK    5  A    between atoms: N_6  and  C_23
REMARK    6  A    between atoms: C_7  and  C_17
REMARK    7  A    between atoms: C_9  and  C_19
REMARK    8  A    between atoms: C_12  and  C_18
REMARK    9  A    between atoms: C_18  and  C_20
REMARK   10  A    between atoms: C_18  and  C_21
REMARK   11  A    between atoms: C_22  and  C_24
REMARK   12  A    between atoms: C_24  and  C_29
REMARK                            x       y       z     vdW  Elec       q    Type
REMARK                         _______ _______ _______ _____ _____    ______ ____
ROOT
ATOM      7  C   UNL     1     -15.237   7.280  20.363  0.00  0.00    -0.027 C 
ATOM      8  C   UNL     1     -14.040   6.432  20.910  0.00  0.00    +0.028 C 
ATOM      9  C   UNL     1     -14.416   5.751  22.275  0.00  0.00    +0.012 C 
ATOM     10  C   UNL     1     -12.721   7.257  20.916  0.00  0.00    +0.122 C 
ATOM     11  C   UNL     1     -14.875   7.843  18.969  0.00  0.00    +0.007 C 
ATOM     12  C   UNL     1     -12.419   7.904  19.544  0.00  0.00    +0.029 C 
ATOM     13  C   UNL     1     -16.469   6.362  20.195  0.00  0.00    +0.009 C 
ATOM     14  C   UNL     1     -15.701   4.891  22.112  0.00  0.00    +0.076 C 
ATOM     15  C   UNL     1     -13.605   8.684  18.977  0.00  0.00    +0.007 C 
ATOM     16  C   UNL     1     -16.866   5.652  21.481  0.00  0.00    +0.023 C 
ATOM     17  C   UNL     1     -15.604   8.462  21.296  0.00  0.00    +0.011 C 
ATOM     19  C   UNL     1     -13.293   4.878  22.857  0.00  0.00    +0.010 C 
ENDROOT
BRANCH  14   5
ATOM      3  O   UNL     1     -16.684   2.222  22.597  0.00  0.00    -0.276 OA
ATOM      5  N   UNL     1     -16.142   4.341  23.376  0.00  0.00    -0.312 N 
ATOM     22  C   UNL     1     -16.601   3.040  23.509  0.00  0.00    +0.215 C 
ATOM     31  H   UNL     1     -16.173   4.960  24.182  0.00  0.00    +0.149 HD
BRANCH  22  24
ATOM     24  C   UNL     1     -16.995   2.735  24.946  0.00  0.00    +0.124 C 
BRANCH  24  29
ATOM     29  C   UNL     1     -16.071   3.384  25.964  0.00  0.00    +0.168 C 
BRANCH  29   4
ATOM      4  O   UNL     1     -16.724   4.503  26.550  0.00  0.00    -0.382 OA
ATOM     30  C   UNL     1     -16.692   4.441  27.969  0.00  0.00    +0.194 C 
ENDBRANCH  29   4
ENDBRANCH  24  29
ENDBRANCH  22  24
ENDBRANCH  14   5
BRANCH  10   1
ATOM      1  O   UNL     1     -11.622   6.396  21.212  0.00  0.00    -0.391 OA
ATOM     32  H   UNL     1     -11.407   6.492  22.156  0.00  0.00    +0.210 HD
ENDBRANCH  10   1
BRANCH  12  18
ATOM     18  C   UNL     1     -11.188   8.817  19.605  0.00  0.00    +0.077 C 
ATOM     20  C   UNL     1     -11.542  10.130  20.293  0.00  0.00    +0.017 C 
BRANCH  18  21
ATOM      2  O   UNL     1     -10.425   8.140  17.408  0.00  0.00    -0.276 OA
ATOM      6  N   UNL     1     -10.435  10.399  17.931  0.00  0.00    -0.312 N 
ATOM     21  C   UNL     1     -10.646   9.054  18.199  0.00  0.00    +0.216 C 
ATOM     33  H   UNL     1     -10.667  11.094  18.634  0.00  0.00    +0.149 HD
BRANCH   6  23
ATOM     23  C   UNL     1      -9.924  10.872  16.668  0.00  0.00    +0.073 C 
ATOM     25  C   UNL     1     -11.043  11.147  15.669  0.00  0.00    +0.022 C 
ATOM     26  C   UNL     1      -9.253  12.232  16.807  0.00  0.00    +0.022 C 
ATOM     27  C   UNL     1     -11.538  12.552  16.009  0.00  0.00    +0.002 C 
ATOM     28  C   UNL     1     -10.404  13.234  16.776  0.00  0.00    +0.002 C 
ENDBRANCH   6  23
ENDBRANCH  18  21
ENDBRANCH  12  18
TORSDOF 8
ENDMDL
MODEL 6
REMARK VINA RESULT:      -6.1     26.146     30.232
REMARK  Name = 28963020
REMARK  12 active torsions:
REMARK  status: ('A' for Active; 'I' for Inactive)
REMARK    1  A    between atoms: O_1  and  C_10
REMARK    2  A    between atoms: O_4  and  C_29
REMARK    3  A    between atoms: O_4  and  C_30
REMARK    4  A    between atoms: N_5  and  C_14
REMARK    5  A    between atoms: N_6  and  C_23
REMARK    6  A    between atoms: C_7  and  C_17
REMARK    7  A    between atoms: C_9  and  C_19
REMARK    8  A    between atoms: C_12  and  C_18
REMARK    9  A    between atoms: C_18  and  C_20
REMARK   10  A    between atoms: C_18  and  C_21
REMARK   11  A    between atoms: C_22  and  C_24
REMARK   12  A    between atoms: C_24  and  C_29
REMARK                            x       y       z     vdW  Elec       q    Type
REMARK                         _______ _______ _______ _____ _____    ______ ____
ROOT
ATOM      7  C   UNL     1     -12.937   7.362  20.896  0.00  0.00    -0.027 C 
ATOM      8  C   UNL     1     -13.802   7.384  19.592  0.00  0.00    +0.028 C 
ATOM      9  C   UNL     1     -13.415   8.607  18.686  0.00  0.00    +0.012 C 
ATOM     10  C   UNL     1     -15.317   7.245  19.917  0.00  0.00    +0.122 C 
ATOM     11  C   UNL     1     -13.262   6.087  21.709  0.00  0.00    +0.007 C 
ATOM     12  C   UNL     1     -15.622   6.026  20.817  0.00  0.00    +0.029 C 
ATOM     13  C   UNL     1     -11.441   7.304  20.509  0.00  0.00    +0.009 C 
ATOM     14  C   UNL     1     -11.893   8.581  18.366  0.00  0.00    +0.076 C 
ATOM     15  C   UNL     1     -14.739   5.967  22.063  0.00  0.00    +0.007 C 
ATOM     16  C   UNL     1     -11.013   8.453  19.608  0.00  0.00    +0.023 C 
ATOM     17  C   UNL     1     -13.185   8.600  21.794  0.00  0.00    +0.011 C 
ATOM     19  C   UNL     1     -14.208   8.674  17.370  0.00  0.00    +0.010 C 
ENDROOT
BRANCH  14   5
ATOM      3  O   UNL     1     -10.340   8.651  15.935  0.00  0.00    -0.276 OA
ATOM      5  N   UNL     1     -11.481   9.757  17.629  0.00  0.00    -0.312 N 
ATOM     22  C   UNL     1     -10.731   9.688  16.465  0.00  0.00    +0.215 C 
ATOM     31  H   UNL     1     -11.699  10.669  18.021  0.00  0.00    +0.149 HD
BRANCH  22  24
ATOM     24  C   UNL     1     -10.444  11.073  15.906  0.00  0.00    +0.124 C 
BRANCH  24  29
ATOM     29  C   UNL     1      -9.512  11.887  16.790  0.00  0.00    +0.168 C 
BRANCH  29   4
ATOM      4  O   UNL     1     -10.250  12.442  17.871  0.00  0.00    -0.382 OA
ATOM     30  C   UNL     1     -10.211  13.862  17.854  0.00  0.00    +0.194 C 
ENDBRANCH  29   4
ENDBRANCH  24  29
ENDBRANCH  22  24
ENDBRANCH  14   5
BRANCH  10   1
ATOM      1  O   UNL     1     -16.048   7.052  18.706  0.00  0.00    -0.391 OA
ATOM     32  H   UNL     1     -16.881   6.599  18.923  0.00  0.00    +0.210 HD
ENDBRANCH  10   1
BRANCH  12  18
ATOM     18  C   UNL     1     -17.097   5.981  21.232  0.00  0.00    +0.077 C 
ATOM     20  C   UNL     1     -17.411   7.132  22.182  0.00  0.00    +0.017 C 
BRANCH  18  21
ATOM      2  O   UNL     1     -17.568   3.605  21.211  0.00  0.00    -0.276 OA
ATOM      6  N   UNL     1     -17.522   4.708  23.251  0.00  0.00    -0.312 N 
ATOM     21  C   UNL     1     -17.418   4.632  21.869  0.00  0.00    +0.216 C 
ATOM     33  H   UNL     1     -17.360   5.594  23.718  0.00  0.00    +0.149 HD
BRANCH   6  23
ATOM     23  C   UNL     1     -17.822   3.563  24.075  0.00  0.00    +0.073 C 
ATOM     25  C   UNL     1     -16.573   2.747  24.390  0.00  0.00    +0.022 C 
ATOM     26  C   UNL     1     -18.312   3.977  25.456  0.00  0.00    +0.022 C 
ATOM     27  C   UNL     1     -15.931   3.453  25.583  0.00  0.00    +0.002 C 
ATOM     28  C   UNL     1     -17.038   4.276  26.242  0.00  0.00    +0.002 C 
ENDBRANCH   6  23
ENDBRANCH  18  21
ENDBRANCH  12  18
TORSDOF 8
ENDMDL
MODEL 7
REMARK VINA RESULT:      -6.1     23.979     28.606
REMARK  Name = 28963020
REMARK  12 active torsions:
REMARK  status: ('A' for Active; 'I' for Inactive)
REMARK    1  A    between atoms: O_1  and  C_10
REMARK    2  A    between atoms: O_4  and  C_29
REMARK    3  A    between atoms: O_4  and  C_30
REMARK    4  A    between atoms: N_5  and  C_14
REMARK    5  A    between atoms: N_6  and  C_23
REMARK    6  A    between atoms: C_7  and  C_17
REMARK    7  A    between atoms: C_9  and  C_19
REMARK    8  A    between atoms: C_12  and  C_18
REMARK    9  A    between atoms: C_18  and  C_20
REMARK   10  A    between atoms: C_18  and  C_21
REMARK   11  A    between atoms: C_22  and  C_24
REMARK   12  A    between atoms: C_24  and  C_29
REMARK                            x       y       z     vdW  Elec       q    Type
REMARK                         _______ _______ _______ _____ _____    ______ ____
ROOT
ATOM      7  C   UNL     1     -11.438   8.289  19.527  0.00  0.00    -0.027 C 
ATOM      8  C   UNL     1     -12.615   9.319  19.605  0.00  0.00    +0.028 C 
ATOM      9  C   UNL     1     -13.988   8.584  19.804  0.00  0.00    +0.012 C 
ATOM     10  C   UNL     1     -12.561  10.326  18.420  0.00  0.00    +0.122 C 
ATOM     11  C   UNL     1     -10.093   9.048  19.445  0.00  0.00    +0.007 C 
ATOM     12  C   UNL     1     -11.179  11.005  18.279  0.00  0.00    +0.029 C 
ATOM     13  C   UNL     1     -11.423   7.443  20.821  0.00  0.00    +0.009 C 
ATOM     14  C   UNL     1     -13.936   7.677  21.067  0.00  0.00    +0.076 C 
ATOM     15  C   UNL     1     -10.022  10.006  18.263  0.00  0.00    +0.007 C 
ATOM     16  C   UNL     1     -12.740   6.726  21.083  0.00  0.00    +0.023 C 
ATOM     17  C   UNL     1     -11.553   7.346  18.303  0.00  0.00    +0.011 C 
ATOM     19  C   UNL     1     -15.187   9.540  19.918  0.00  0.00    +0.010 C 
ENDROOT
BRANCH  14   5
ATOM      3  O   UNL     1     -15.707   7.635  23.345  0.00  0.00    -0.276 OA
ATOM      5  N   UNL     1     -15.146   6.896  21.216  0.00  0.00    -0.312 N 
ATOM     22  C   UNL     1     -15.934   6.944  22.356  0.00  0.00    +0.215 C 
ATOM     31  H   UNL     1     -15.386   6.241  20.477  0.00  0.00    +0.149 HD
BRANCH  22  24
ATOM     24  C   UNL     1     -17.139   6.024  22.236  0.00  0.00    +0.124 C 
BRANCH  24  29
ATOM     29  C   UNL     1     -16.754   4.561  22.084  0.00  0.00    +0.168 C 
BRANCH  29   4
ATOM      4  O   UNL     1     -15.464   4.350  22.642  0.00  0.00    -0.382 OA
ATOM     30  C   UNL     1     -15.544   3.797  23.948  0.00  0.00    +0.194 C 
ENDBRANCH  29   4
ENDBRANCH  24  29
ENDBRANCH  22  24
ENDBRANCH  14   5
BRANCH  10   1
ATOM      1  O   UNL     1     -13.509  11.371  18.640  0.00  0.00    -0.391 OA
ATOM     32  H   UNL     1     -14.381  10.965  18.780  0.00  0.00    +0.210 HD
ENDBRANCH  10   1
BRANCH  12  18
ATOM     18  C   UNL     1     -11.106  11.893  17.031  0.00  0.00    +0.077 C 
ATOM     20  C   UNL     1     -10.534  11.104  15.859  0.00  0.00    +0.017 C 
BRANCH  18  21
ATOM      2  O   UNL     1     -10.523  13.901  18.254  0.00  0.00    -0.276 OA
ATOM      6  N   UNL     1      -9.223  13.295  16.431  0.00  0.00    -0.312 N 
ATOM     21  C   UNL     1     -10.272  13.136  17.325  0.00  0.00    +0.216 C 
ATOM     33  H   UNL     1      -9.073  12.603  15.704  0.00  0.00    +0.149 HD
BRANCH   6  23
ATOM     23  C   UNL     1      -8.297  14.399  16.503  0.00  0.00    +0.073 C 
ATOM     25  C   UNL     1      -6.933  13.963  17.025  0.00  0.00    +0.022 C 
ATOM     26  C   UNL     1      -7.970  14.949  15.122  0.00  0.00    +0.022 C 
ATOM     27  C   UNL     1      -6.200  13.412  15.803  0.00  0.00    +0.002 C 
ATOM     28  C   UNL     1      -6.894  14.013  14.579  0.00  0.00    +0.002 C 
ENDBRANCH   6  23
ENDBRANCH  18  21
ENDBRANCH  12  18
TORSDOF 8
ENDMDL
MODEL 8
REMARK VINA RESULT:      -6.1      4.363      6.585
REMARK  Name = 28963020
REMARK  12 active torsions:
REMARK  status: ('A' for Active; 'I' for Inactive)
REMARK    1  A    between atoms: O_1  and  C_10
REMARK    2  A    between atoms: O_4  and  C_29
REMARK    3  A    between atoms: O_4  and  C_30
REMARK    4  A    between atoms: N_5  and  C_14
REMARK    5  A    between atoms: N_6  and  C_23
REMARK    6  A    between atoms: C_7  and  C_17
REMARK    7  A    between atoms: C_9  and  C_19
REMARK    8  A    between atoms: C_12  and  C_18
REMARK    9  A    between atoms: C_18  and  C_20
REMARK   10  A    between atoms: C_18  and  C_21
REMARK   11  A    between atoms: C_22  and  C_24
REMARK   12  A    between atoms: C_24  and  C_29
REMARK                            x       y       z     vdW  Elec       q    Type
REMARK                         _______ _______ _______ _____ _____    ______ ____
ROOT
ATOM      7  C   UNL     1      13.069   9.056  17.237  0.00  0.00    -0.027 C 
ATOM      8  C   UNL     1      13.636  10.162  18.189  0.00  0.00    +0.028 C 
ATOM      9  C   UNL     1      14.980  10.747  17.626  0.00  0.00    +0.012 C 
ATOM     10  C   UNL     1      13.687   9.667  19.662  0.00  0.00    +0.122 C 
ATOM     11  C   UNL     1      11.692   8.583  17.760  0.00  0.00    +0.007 C 
ATOM     12  C   UNL     1      12.333   9.098  20.145  0.00  0.00    +0.029 C 
ATOM     13  C   UNL     1      12.855   9.661  15.831  0.00  0.00    +0.009 C 
ATOM     14  C   UNL     1      14.772  11.284  16.181  0.00  0.00    +0.076 C 
ATOM     15  C   UNL     1      11.746   8.060  19.189  0.00  0.00    +0.007 C 
ATOM     16  C   UNL     1      14.121  10.269  15.243  0.00  0.00    +0.023 C 
ATOM     17  C   UNL     1      14.008   7.828  17.127  0.00  0.00    +0.011 C 
ATOM     19  C   UNL     1      15.580  11.862  18.499  0.00  0.00    +0.010 C 
ENDROOT
BRANCH  14   5
ATOM      3  O   UNL     1      15.284  13.818  14.899  0.00  0.00    -0.276 OA
ATOM      5  N   UNL     1      16.017  11.725  15.589  0.00  0.00    -0.312 N 
ATOM     22  C   UNL     1      16.165  12.968  14.992  0.00  0.00    +0.215 C 
ATOM     31  H   UNL     1      16.791  11.067  15.557  0.00  0.00    +0.149 HD
BRANCH  22  24
ATOM     24  C   UNL     1      17.575  13.162  14.457  0.00  0.00    +0.124 C 
BRANCH  24  29
ATOM     29  C   UNL     1      18.626  12.428  15.276  0.00  0.00    +0.168 C 
BRANCH  29   4
ATOM      4  O   UNL     1      18.966  11.210  14.627  0.00  0.00    -0.382 OA
ATOM     30  C   UNL     1      20.078  11.375  13.758  0.00  0.00    +0.194 C 
ENDBRANCH  29   4
ENDBRANCH  24  29
ENDBRANCH  22  24
ENDBRANCH  14   5
BRANCH  10   1
ATOM      1  O   UNL     1      14.001  10.762  20.523  0.00  0.00    -0.391 OA
ATOM     32  H   UNL     1      14.955  10.936  20.457  0.00  0.00    +0.210 HD
ENDBRANCH  10   1
BRANCH  12  18
ATOM     18  C   UNL     1      12.438   8.496  21.552  0.00  0.00    +0.077 C 
ATOM     20  C   UNL     1      12.275   6.982  21.489  0.00  0.00    +0.017 C 
BRANCH  18  21
ATOM      2  O   UNL     1      10.453   8.499  22.939  0.00  0.00    -0.276 OA
ATOM      6  N   UNL     1      11.640  10.477  22.698  0.00  0.00    -0.312 N 
ATOM     21  C   UNL     1      11.397   9.130  22.469  0.00  0.00    +0.216 C 
ATOM     33  H   UNL     1      12.458  10.916  22.289  0.00  0.00    +0.149 HD
BRANCH   6  23
ATOM     23  C   UNL     1      10.790  11.292  23.531  0.00  0.00    +0.073 C 
ATOM     25  C   UNL     1      11.224  11.257  24.992  0.00  0.00    +0.022 C 
ATOM     26  C   UNL     1      10.908  12.769  23.179  0.00  0.00    +0.022 C 
ATOM     27  C   UNL     1      12.342  12.294  25.096  0.00  0.00    +0.002 C 
ATOM     28  C   UNL     1      12.164  13.239  23.908  0.00  0.00    +0.002 C 
ENDBRANCH   6  23
ENDBRANCH  18  21
ENDBRANCH  12  18
TORSDOF 8
ENDMDL
MODEL 9
REMARK VINA RESULT:      -6.1      2.596      3.918
REMARK  Name = 28963020
REMARK  12 active torsions:
REMARK  status: ('A' for Active; 'I' for Inactive)
REMARK    1  A    between atoms: O_1  and  C_10
REMARK    2  A    between atoms: O_4  and  C_29
REMARK    3  A    between atoms: O_4  and  C_30
REMARK    4  A    between atoms: N_5  and  C_14
REMARK    5  A    between atoms: N_6  and  C_23
REMARK    6  A    between atoms: C_7  and  C_17
REMARK    7  A    between atoms: C_9  and  C_19
REMARK    8  A    between atoms: C_12  and  C_18
REMARK    9  A    between atoms: C_18  and  C_20
REMARK   10  A    between atoms: C_18  and  C_21
REMARK   11  A    between atoms: C_22  and  C_24
REMARK   12  A    between atoms: C_24  and  C_29
REMARK                            x       y       z     vdW  Elec       q    Type
REMARK                         _______ _______ _______ _____ _____    ______ ____
ROOT
ATOM      7  C   UNL     1      16.380   6.876  19.818  0.00  0.00    -0.027 C 
ATOM      8  C   UNL     1      16.906   8.308  20.169  0.00  0.00    +0.028 C 
ATOM      9  C   UNL     1      17.972   8.244  21.320  0.00  0.00    +0.012 C 
ATOM     10  C   UNL     1      15.730   9.300  20.401  0.00  0.00    +0.122 C 
ATOM     11  C   UNL     1      15.420   6.962  18.608  0.00  0.00    +0.007 C 
ATOM     12  C   UNL     1      14.717   9.304  19.233  0.00  0.00    +0.029 C 
ATOM     13  C   UNL     1      17.575   5.986  19.407  0.00  0.00    +0.009 C 
ATOM     14  C   UNL     1      19.133   7.286  20.928  0.00  0.00    +0.076 C 
ATOM     15  C   UNL     1      14.245   7.902  18.846  0.00  0.00    +0.007 C 
ATOM     16  C   UNL     1      18.656   5.907  20.475  0.00  0.00    +0.023 C 
ATOM     17  C   UNL     1      15.631   6.211  21.000  0.00  0.00    +0.011 C 
ATOM     19  C   UNL     1      18.554   9.616  21.698  0.00  0.00    +0.010 C 
ENDROOT
BRANCH  14   5
ATOM      3  O   UNL     1      22.013   7.262  20.740  0.00  0.00    -0.276 OA
ATOM      5  N   UNL     1      20.075   7.114  22.013  0.00  0.00    -0.312 N 
ATOM     22  C   UNL     1      21.449   7.116  21.821  0.00  0.00    +0.215 C 
ATOM     31  H   UNL     1      19.707   6.920  22.940  0.00  0.00    +0.149 HD
BRANCH  22  24
ATOM     24  C   UNL     1      22.192   6.916  23.132  0.00  0.00    +0.124 C 
BRANCH  24  29
ATOM     29  C   UNL     1      22.413   5.450  23.470  0.00  0.00    +0.168 C 
BRANCH  29   4
ATOM      4  O   UNL     1      21.435   4.659  22.807  0.00  0.00    -0.382 OA
ATOM     30  C   UNL     1      22.023   3.540  22.158  0.00  0.00    +0.194 C 
ENDBRANCH  29   4
ENDBRANCH  24  29
ENDBRANCH  22  24
ENDBRANCH  14   5
BRANCH  10   1
ATOM      1  O   UNL     1      16.241  10.629  20.503  0.00  0.00    -0.391 OA
ATOM     32  H   UNL     1      15.762  11.084  21.217  0.00  0.00    +0.210 HD
ENDBRANCH  10   1
BRANCH  12  18
ATOM     18  C   UNL     1      13.502  10.188  19.537  0.00  0.00    +0.077 C 
ATOM     20  C   UNL     1      12.216   9.384  19.381  0.00  0.00    +0.017 C 
BRANCH  18  21
ATOM      2  O   UNL     1      13.065  12.504  18.978  0.00  0.00    -0.276 OA
ATOM      6  N   UNL     1      14.052  11.144  17.380  0.00  0.00    -0.312 N 
ATOM     21  C   UNL     1      13.506  11.412  18.626  0.00  0.00    +0.216 C 
ATOM     33  H   UNL     1      14.415  10.218  17.179  0.00  0.00    +0.149 HD
BRANCH   6  23
ATOM     23  C   UNL     1      14.163  12.144  16.346  0.00  0.00    +0.073 C 
ATOM     25  C   UNL     1      15.542  12.793  16.328  0.00  0.00    +0.022 C 
ATOM     26  C   UNL     1      14.061  11.529  14.956  0.00  0.00    +0.022 C 
ATOM     27  C   UNL     1      16.417  11.839  15.516  0.00  0.00    +0.002 C 
ATOM     28  C   UNL     1      15.462  10.998  14.667  0.00  0.00    +0.002 C 
ENDBRANCH   6  23
ENDBRANCH  18  21
ENDBRANCH  12  18
TORSDOF 8
ENDMDL
MODEL 10
REMARK VINA RESULT:      -6.0     14.190     18.257
REMARK  Name = 28963020
REMARK  12 active torsions:
REMARK  status: ('A' for Active; 'I' for Inactive)
REMARK    1  A    between atoms: O_1  and  C_10
REMARK    2  A    between atoms: O_4  and  C_29
REMARK    3  A    between atoms: O_4  and  C_30
REMARK    4  A    between atoms: N_5  and  C_14
REMARK    5  A    between atoms: N_6  and  C_23
REMARK    6  A    between atoms: C_7  and  C_17
REMARK    7  A    between atoms: C_9  and  C_19
REMARK    8  A    between atoms: C_12  and  C_18
REMARK    9  A    between atoms: C_18  and  C_20
REMARK   10  A    between atoms: C_18  and  C_21
REMARK   11  A    between atoms: C_22  and  C_24
REMARK   12  A    between atoms: C_24  and  C_29
REMARK                            x       y       z     vdW  Elec       q    Type
REMARK                         _______ _______ _______ _____ _____    ______ ____
ROOT
ATOM      7  C   UNL     1       9.569   6.091   5.813  0.00  0.00    -0.027 C 
ATOM      8  C   UNL     1      10.486   7.283   5.379  0.00  0.00    +0.028 C 
ATOM      9  C   UNL     1       9.957   8.639   5.970  0.00  0.00    +0.012 C 
ATOM     10  C   UNL     1      10.732   7.275   3.842  0.00  0.00    +0.122 C 
ATOM     11  C   UNL     1      10.179   4.762   5.310  0.00  0.00    +0.007 C 
ATOM     12  C   UNL     1      11.243   5.909   3.330  0.00  0.00    +0.029 C 
ATOM     13  C   UNL     1       9.518   6.031   7.357  0.00  0.00    +0.009 C 
ATOM     14  C   UNL     1       9.837   8.541   7.518  0.00  0.00    +0.076 C 
ATOM     15  C   UNL     1      10.384   4.734   3.801  0.00  0.00    +0.007 C 
ATOM     16  C   UNL     1       9.036   7.328   7.990  0.00  0.00    +0.023 C 
ATOM     17  C   UNL     1       8.127   6.218   5.259  0.00  0.00    +0.011 C 
ATOM     19  C   UNL     1      10.829   9.852   5.606  0.00  0.00    +0.010 C 
ENDROOT
BRANCH  14   5
ATOM      3  O   UNL     1      11.166  10.565   9.088  0.00  0.00    -0.276 OA
ATOM      5  N   UNL     1       9.243   9.733   8.085  0.00  0.00    -0.312 N 
ATOM     22  C   UNL     1       9.969  10.651   8.829  0.00  0.00    +0.215 C 
ATOM     31  H   UNL     1       8.240   9.863   7.983  0.00  0.00    +0.149 HD
BRANCH  22  24
ATOM     24  C   UNL     1       9.092  11.802   9.298  0.00  0.00    +0.124 C 
BRANCH  24  29
ATOM     29  C   UNL     1       8.770  11.736  10.783  0.00  0.00    +0.168 C 
BRANCH  29   4
ATOM      4  O   UNL     1       7.910  12.814  11.128  0.00  0.00    -0.382 OA
ATOM     30  C   UNL     1       8.313  14.024  10.502  0.00  0.00    +0.194 C 
ENDBRANCH  29   4
ENDBRANCH  24  29
ENDBRANCH  22  24
ENDBRANCH  14   5
BRANCH  10   1
ATOM      1  O   UNL     1      11.736   8.236   3.515  0.00  0.00    -0.391 OA
ATOM     32  H   UNL     1      12.601   7.863   3.755  0.00  0.00    +0.210 HD
ENDBRANCH  10   1
BRANCH  12  18
ATOM     18  C   UNL     1      11.354   5.880   1.801  0.00  0.00    +0.077 C 
ATOM     20  C   UNL     1      10.014   5.497   1.184  0.00  0.00    +0.017 C 
BRANCH  18  21
ATOM      2  O   UNL     1      13.462   4.714   2.056  0.00  0.00    -0.276 OA
ATOM      6  N   UNL     1      12.194   4.311   0.156  0.00  0.00    -0.312 N 
ATOM     21  C   UNL     1      12.457   4.916   1.377  0.00  0.00    +0.216 C 
ATOM     33  H   UNL     1      11.327   4.517  -0.330  0.00  0.00    +0.149 HD
BRANCH   6  23
ATOM     23  C   UNL     1      13.092   3.362  -0.455  0.00  0.00    +0.073 C 
ATOM     25  C   UNL     1      12.420   2.589  -1.584  0.00  0.00    +0.022 C 
ATOM     26  C   UNL     1      14.248   4.057  -1.161  0.00  0.00    +0.022 C 
ATOM     27  C   UNL     1      12.532   3.500  -2.806  0.00  0.00    +0.002 C 
ATOM     28  C   UNL     1      13.679   4.470  -2.516  0.00  0.00    +0.002 C 
ENDBRANCH   6  23
ENDBRANCH  18  21
ENDBRANCH  12  18
TORSDOF 8
ENDMDL
