MODEL 1
REMARK VINA RESULT:      -7.5      0.000      0.000
REMARK  Name = 75366980
REMARK  11 active torsions:
REMARK  status: ('A' for Active; 'I' for Inactive)
REMARK    1  A    between atoms: O_3  and  C_11
REMARK    2  A    between atoms: N_6  and  C_15
REMARK    3  A    between atoms: N_8  and  C_20
REMARK    4  A    between atoms: N_8  and  C_22
REMARK    5  A    between atoms: N_8  and  C_23
REMARK    6  A    between atoms: C_9  and  C_14
REMARK    7  A    between atoms: C_10  and  C_15
REMARK    8  A    between atoms: C_14  and  C_16
REMARK    9  A    between atoms: C_18  and  C_20
REMARK   10  A    between atoms: C_19  and  C_21
REMARK   11  A    between atoms: C_22  and  C_24
REMARK                            x       y       z     vdW  Elec       q    Type
REMARK                         _______ _______ _______ _____ _____    ______ ____
ROOT
ATOM      2  O   UNL     1     -16.037   2.160  25.056  0.00  0.00    -0.369 OA
ATOM      9  C   UNL     1     -17.187   2.193  25.905  0.00  0.00    +0.125 C 
ATOM     10  C   UNL     1     -16.052   3.100  23.974  0.00  0.00    +0.164 C 
ATOM     11  C   UNL     1     -17.310   2.939  23.111  0.00  0.00    +0.145 C 
ATOM     12  C   UNL     1     -18.457   1.919  25.103  0.00  0.00    +0.034 C 
ATOM     13  C   UNL     1     -18.587   2.907  23.946  0.00  0.00    +0.036 C 
ENDROOT
BRANCH  11   3
ATOM      3  O   UNL     1     -17.225   1.703  22.397  0.00  0.00    -0.389 OA
ATOM     35  H   UNL     1     -16.801   1.887  21.542  0.00  0.00    +0.210 HD
ENDBRANCH  11   3
BRANCH   9  14
ATOM     14  C   UNL     1     -16.989   1.136  26.985  0.00  0.00    +0.090 C 
BRANCH  14  16
ATOM      4  O   UNL     1     -14.980   3.049  29.285  0.00  0.00    -0.358 OA
ATOM      7  N   UNL     1     -15.768   2.928  28.147  0.00  0.00    -0.083 NA
ATOM     16  C   UNL     1     -16.116   1.639  28.104  0.00  0.00    +0.086 A 
ATOM     17  C   UNL     1     -15.582   0.905  29.177  0.00  0.00    +0.072 A 
ATOM     18  C   UNL     1     -14.877   1.837  29.890  0.00  0.00    +0.151 A 
BRANCH  18  20
ATOM     20  C   UNL     1     -14.072   1.783  31.117  0.00  0.00    +0.161 C 
BRANCH  20   8
ATOM      8  N   UNL     1     -14.597   2.640  32.193  0.00  0.00    -0.294 NA
ATOM     23  C   UNL     1     -14.853   1.843  33.387  0.00  0.00    +0.105 C 
BRANCH   8  22
ATOM     22  C   UNL     1     -13.655   3.717  32.480  0.00  0.00    +0.119 C 
BRANCH  22  24
ATOM     24  C   UNL     1     -14.282   5.074  32.297  0.00  0.00    -0.033 A 
ATOM     27  C   UNL     1     -15.554   5.185  31.736  0.00  0.00    +0.005 A 
ATOM     28  C   UNL     1     -13.590   6.220  32.690  0.00  0.00    +0.005 A 
ATOM     32  C   UNL     1     -16.134   6.443  31.567  0.00  0.00    +0.000 A 
ATOM     33  C   UNL     1     -14.171   7.477  32.521  0.00  0.00    +0.000 A 
ATOM     34  C   UNL     1     -15.442   7.588  31.960  0.00  0.00    +0.000 A 
ENDBRANCH  22  24
ENDBRANCH   8  22
ENDBRANCH  20   8
ENDBRANCH  18  20
ENDBRANCH  14  16
ENDBRANCH   9  14
BRANCH  10  15
ATOM     15  C   UNL     1     -15.855   4.527  24.481  0.00  0.00    +0.138 C 
BRANCH  15   6
ATOM      5  O   UNL     1     -16.301   6.683  22.638  0.00  0.00    -0.270 OA
ATOM      6  N   UNL     1     -14.862   5.214  23.712  0.00  0.00    -0.309 N 
ATOM     19  C   UNL     1     -15.168   6.253  22.837  0.00  0.00    +0.244 C 
ATOM     36  H   UNL     1     -13.923   4.830  23.728  0.00  0.00    +0.149 HD
BRANCH  19  21
ATOM      1  F   UNL     1     -12.832  10.102  20.998  0.00  0.00    -0.205 F 
ATOM     21  C   UNL     1     -14.026   6.845  22.093  0.00  0.00    +0.039 A 
ATOM     25  C   UNL     1     -13.964   8.223  21.890  0.00  0.00    +0.051 A 
ATOM     26  C   UNL     1     -13.015   6.020  21.596  0.00  0.00    +0.013 A 
ATOM     29  C   UNL     1     -12.892   8.778  21.191  0.00  0.00    +0.124 A 
ATOM     30  C   UNL     1     -11.943   6.576  20.897  0.00  0.00    +0.004 A 
ATOM     31  C   UNL     1     -11.882   7.954  20.695  0.00  0.00    +0.038 A 
ENDBRANCH  19  21
ENDBRANCH  15   6
ENDBRANCH  10  15
TORSDOF 10
ENDMDL
MODEL 2
REMARK VINA RESULT:      -7.5     35.963     39.314
REMARK  Name = 75366980
REMARK  11 active torsions:
REMARK  status: ('A' for Active; 'I' for Inactive)
REMARK    1  A    between atoms: O_3  and  C_11
REMARK    2  A    between atoms: N_6  and  C_15
REMARK    3  A    between atoms: N_8  and  C_20
REMARK    4  A    between atoms: N_8  and  C_22
REMARK    5  A    between atoms: N_8  and  C_23
REMARK    6  A    between atoms: C_9  and  C_14
REMARK    7  A    between atoms: C_10  and  C_15
REMARK    8  A    between atoms: C_14  and  C_16
REMARK    9  A    between atoms: C_18  and  C_20
REMARK   10  A    between atoms: C_19  and  C_21
REMARK   11  A    between atoms: C_22  and  C_24
REMARK                            x       y       z     vdW  Elec       q    Type
REMARK                         _______ _______ _______ _____ _____    ______ ____
ROOT
ATOM      2  O   UNL     1       3.873 -14.634  -0.054  0.00  0.00    -0.369 OA
ATOM      9  C   UNL     1       2.765 -15.305   0.551  0.00  0.00    +0.125 C 
ATOM     10  C   UNL     1       4.803 -15.486  -0.734  0.00  0.00    +0.164 C 
ATOM     11  C   UNL     1       5.336 -16.585   0.194  0.00  0.00    +0.145 C 
ATOM     12  C   UNL     1       3.248 -16.331   1.573  0.00  0.00    +0.034 C 
ATOM     13  C   UNL     1       4.216 -17.319   0.928  0.00  0.00    +0.036 C 
ENDROOT
BRANCH  11   3
ATOM      3  O   UNL     1       6.183 -15.988   1.178  0.00  0.00    -0.389 OA
ATOM     35  H   UNL     1       5.631 -15.764   1.945  0.00  0.00    +0.210 HD
ENDBRANCH  11   3
BRANCH   9  14
ATOM     14  C   UNL     1       1.896 -14.244   1.216  0.00  0.00    +0.090 C 
BRANCH  14  16
ATOM      4  O   UNL     1      -1.451 -13.515   0.096  0.00  0.00    -0.358 OA
ATOM      7  N   UNL     1      -0.494 -13.674   1.092  0.00  0.00    -0.083 NA
ATOM     16  C   UNL     1       0.629 -13.995   0.443  0.00  0.00    +0.086 A 
ATOM     17  C   UNL     1       0.443 -14.053  -0.949  0.00  0.00    +0.072 A 
ATOM     18  C   UNL     1      -0.880 -13.743  -1.114  0.00  0.00    +0.151 A 
BRANCH  18  20
ATOM     20  C   UNL     1      -1.756 -13.617  -2.286  0.00  0.00    +0.161 C 
BRANCH  20   8
ATOM      8  N   UNL     1      -1.721 -14.796  -3.167  0.00  0.00    -0.294 NA
ATOM     23  C   UNL     1      -2.218 -15.968  -2.454  0.00  0.00    +0.105 C 
BRANCH   8  22
ATOM     22  C   UNL     1      -2.507 -14.547  -4.370  0.00  0.00    +0.119 C 
BRANCH  22  24
ATOM     24  C   UNL     1      -1.636 -14.391  -5.588  0.00  0.00    -0.033 A 
ATOM     27  C   UNL     1      -1.737 -13.244  -6.375  0.00  0.00    +0.005 A 
ATOM     28  C   UNL     1      -0.727 -15.393  -5.928  0.00  0.00    +0.005 A 
ATOM     32  C   UNL     1      -0.929 -13.100  -7.504  0.00  0.00    +0.000 A 
ATOM     33  C   UNL     1       0.081 -15.248  -7.056  0.00  0.00    +0.000 A 
ATOM     34  C   UNL     1      -0.020 -14.101  -7.843  0.00  0.00    +0.000 A 
ENDBRANCH  22  24
ENDBRANCH   8  22
ENDBRANCH  20   8
ENDBRANCH  18  20
ENDBRANCH  14  16
ENDBRANCH   9  14
BRANCH  10  15
ATOM     15  C   UNL     1       4.203 -16.035  -2.027  0.00  0.00    +0.138 C 
BRANCH  15   6
ATOM      5  O   UNL     1       1.872 -15.850  -3.693  0.00  0.00    -0.270 OA
ATOM      6  N   UNL     1       3.884 -14.976  -2.935  0.00  0.00    -0.309 N 
ATOM     19  C   UNL     1       2.726 -14.966  -3.709  0.00  0.00    +0.244 C 
ATOM     36  H   UNL     1       4.601 -14.277  -3.096  0.00  0.00    +0.149 HD
BRANCH  19  21
ATOM      1  F   UNL     1       0.634 -10.724  -4.841  0.00  0.00    -0.205 F 
ATOM     21  C   UNL     1       2.553 -13.807  -4.622  0.00  0.00    +0.039 A 
ATOM     25  C   UNL     1       1.656 -12.790  -4.297  0.00  0.00    +0.051 A 
ATOM     26  C   UNL     1       3.290 -13.736  -5.805  0.00  0.00    +0.013 A 
ATOM     29  C   UNL     1       1.495 -11.701  -5.155  0.00  0.00    +0.124 A 
ATOM     30  C   UNL     1       3.128 -12.647  -6.663  0.00  0.00    +0.004 A 
ATOM     31  C   UNL     1       2.231 -11.631  -6.337  0.00  0.00    +0.038 A 
ENDBRANCH  19  21
ENDBRANCH  15   6
ENDBRANCH  10  15
TORSDOF 10
ENDMDL
MODEL 3
REMARK VINA RESULT:      -7.1      3.265      6.508
REMARK  Name = 75366980
REMARK  11 active torsions:
REMARK  status: ('A' for Active; 'I' for Inactive)
REMARK    1  A    between atoms: O_3  and  C_11
REMARK    2  A    between atoms: N_6  and  C_15
REMARK    3  A    between atoms: N_8  and  C_20
REMARK    4  A    between atoms: N_8  and  C_22
REMARK    5  A    between atoms: N_8  and  C_23
REMARK    6  A    between atoms: C_9  and  C_14
REMARK    7  A    between atoms: C_10  and  C_15
REMARK    8  A    between atoms: C_14  and  C_16
REMARK    9  A    between atoms: C_18  and  C_20
REMARK   10  A    between atoms: C_19  and  C_21
REMARK   11  A    between atoms: C_22  and  C_24
REMARK                            x       y       z     vdW  Elec       q    Type
REMARK                         _______ _______ _______ _____ _____    ______ ____
ROOT
ATOM      2  O   UNL     1     -14.458   2.804  30.954  0.00  0.00    -0.369 OA
ATOM      9  C   UNL     1     -15.073   2.416  32.186  0.00  0.00    +0.125 C 
ATOM     10  C   UNL     1     -14.802   1.995  29.821  0.00  0.00    +0.164 C 
ATOM     11  C   UNL     1     -14.500   0.513  30.081  0.00  0.00    +0.145 C 
ATOM     12  C   UNL     1     -14.702   0.978  32.544  0.00  0.00    +0.034 C 
ATOM     13  C   UNL     1     -15.074   0.028  31.409  0.00  0.00    +0.036 C 
ENDROOT
BRANCH  11   3
ATOM      3  O   UNL     1     -13.083   0.331  30.126  0.00  0.00    -0.389 OA
ATOM     35  H   UNL     1     -12.682   1.000  29.546  0.00  0.00    +0.210 HD
ENDBRANCH  11   3
BRANCH   9  14
ATOM     14  C   UNL     1     -14.594   3.383  33.261  0.00  0.00    +0.090 C 
BRANCH  14  16
ATOM      4  O   UNL     1     -15.816   6.610  32.222  0.00  0.00    -0.358 OA
ATOM      7  N   UNL     1     -16.002   5.276  32.563  0.00  0.00    -0.083 NA
ATOM     16  C   UNL     1     -14.779   4.817  32.843  0.00  0.00    +0.086 A 
ATOM     17  C   UNL     1     -13.791   5.807  32.696  0.00  0.00    +0.072 A 
ATOM     18  C   UNL     1     -14.496   6.914  32.305  0.00  0.00    +0.151 A 
BRANCH  18  20
ATOM     20  C   UNL     1     -14.118   8.294  31.975  0.00  0.00    +0.161 C 
BRANCH  20   8
ATOM      8  N   UNL     1     -12.749   8.638  32.394  0.00  0.00    -0.294 NA
ATOM     23  C   UNL     1     -12.010   9.203  31.271  0.00  0.00    +0.105 C 
BRANCH   8  22
ATOM     22  C   UNL     1     -12.788   9.572  33.513  0.00  0.00    +0.119 C 
BRANCH  22  24
ATOM     24  C   UNL     1     -12.168   8.987  34.755  0.00  0.00    -0.033 A 
ATOM     27  C   UNL     1     -12.827   7.977  35.454  0.00  0.00    +0.005 A 
ATOM     28  C   UNL     1     -10.933   9.455  35.204  0.00  0.00    +0.005 A 
ATOM     32  C   UNL     1     -12.251   7.435  36.604  0.00  0.00    +0.000 A 
ATOM     33  C   UNL     1     -10.357   8.913  36.353  0.00  0.00    +0.000 A 
ATOM     34  C   UNL     1     -11.017   7.903  37.053  0.00  0.00    +0.000 A 
ENDBRANCH  22  24
ENDBRANCH   8  22
ENDBRANCH  20   8
ENDBRANCH  18  20
ENDBRANCH  14  16
ENDBRANCH   9  14
BRANCH  10  15
ATOM     15  C   UNL     1     -16.244   2.243  29.384  0.00  0.00    +0.138 C 
BRANCH  15   6
ATOM      5  O   UNL     1     -16.851   0.625  27.091  0.00  0.00    -0.270 OA
ATOM      6  N   UNL     1     -16.300   2.678  28.022  0.00  0.00    -0.309 N 
ATOM     19  C   UNL     1     -16.604   1.822  26.966  0.00  0.00    +0.244 C 
ATOM     36  H   UNL     1     -15.983   3.622  27.828  0.00  0.00    +0.149 HD
BRANCH  19  21
ATOM      1  F   UNL     1     -15.054   5.190  23.819  0.00  0.00    -0.205 F 
ATOM     21  C   UNL     1     -16.596   2.423  25.608  0.00  0.00    +0.039 A 
ATOM     25  C   UNL     1     -15.814   3.547  25.346  0.00  0.00    +0.051 A 
ATOM     26  C   UNL     1     -17.373   1.862  24.593  0.00  0.00    +0.013 A 
ATOM     29  C   UNL     1     -15.807   4.111  24.070  0.00  0.00    +0.124 A 
ATOM     30  C   UNL     1     -17.367   2.427  23.317  0.00  0.00    +0.004 A 
ATOM     31  C   UNL     1     -16.584   3.551  23.056  0.00  0.00    +0.038 A 
ENDBRANCH  19  21
ENDBRANCH  15   6
ENDBRANCH  10  15
TORSDOF 10
ENDMDL
MODEL 4
REMARK VINA RESULT:      -7.0     28.335     32.515
REMARK  Name = 75366980
REMARK  11 active torsions:
REMARK  status: ('A' for Active; 'I' for Inactive)
REMARK    1  A    between atoms: O_3  and  C_11
REMARK    2  A    between atoms: N_6  and  C_15
REMARK    3  A    between atoms: N_8  and  C_20
REMARK    4  A    between atoms: N_8  and  C_22
REMARK    5  A    between atoms: N_8  and  C_23
REMARK    6  A    between atoms: C_9  and  C_14
REMARK    7  A    between atoms: C_10  and  C_15
REMARK    8  A    between atoms: C_14  and  C_16
REMARK    9  A    between atoms: C_18  and  C_20
REMARK   10  A    between atoms: C_19  and  C_21
REMARK   11  A    between atoms: C_22  and  C_24
REMARK                            x       y       z     vdW  Elec       q    Type
REMARK                         _______ _______ _______ _____ _____    ______ ____
ROOT
ATOM      2  O   UNL     1      11.356   8.801  19.337  0.00  0.00    -0.369 OA
ATOM      9  C   UNL     1      12.492   8.019  18.960  0.00  0.00    +0.125 C 
ATOM     10  C   UNL     1      11.270   9.118  20.732  0.00  0.00    +0.164 C 
ATOM     11  C   UNL     1      11.309   7.852  21.596  0.00  0.00    +0.145 C 
ATOM     12  C   UNL     1      12.506   6.691  19.713  0.00  0.00    +0.034 C 
ATOM     13  C   UNL     1      12.464   6.927  21.221  0.00  0.00    +0.036 C 
ENDROOT
BRANCH  11   3
ATOM      3  O   UNL     1      10.092   7.126  21.407  0.00  0.00    -0.389 OA
ATOM     35  H   UNL     1       9.378   7.634  21.829  0.00  0.00    +0.210 HD
ENDBRANCH  11   3
BRANCH   9  14
ATOM     14  C   UNL     1      12.410   7.788  17.456  0.00  0.00    +0.090 C 
BRANCH  14  16
ATOM      4  O   UNL     1      13.206  10.300  14.997  0.00  0.00    -0.358 OA
ATOM      7  N   UNL     1      12.578   9.127  15.399  0.00  0.00    -0.083 NA
ATOM     16  C   UNL     1      12.921   8.973  16.681  0.00  0.00    +0.086 A 
ATOM     17  C   UNL     1      13.756  10.008  17.138  0.00  0.00    +0.072 A 
ATOM     18  C   UNL     1      13.904  10.814  16.042  0.00  0.00    +0.151 A 
BRANCH  18  20
ATOM     20  C   UNL     1      14.635  12.063  15.790  0.00  0.00    +0.161 C 
BRANCH  20   8
ATOM      8  N   UNL     1      16.098  11.901  15.849  0.00  0.00    -0.294 NA
ATOM     23  C   UNL     1      16.610  11.506  14.541  0.00  0.00    +0.105 C 
BRANCH   8  22
ATOM     22  C   UNL     1      16.721  13.141  16.297  0.00  0.00    +0.119 C 
BRANCH  22  24
ATOM     24  C   UNL     1      17.845  12.885  17.267  0.00  0.00    -0.033 A 
ATOM     27  C   UNL     1      19.165  12.879  16.818  0.00  0.00    +0.005 A 
ATOM     28  C   UNL     1      17.564  12.655  18.614  0.00  0.00    +0.005 A 
ATOM     32  C   UNL     1      20.206  12.641  17.717  0.00  0.00    +0.000 A 
ATOM     33  C   UNL     1      18.605  12.419  19.512  0.00  0.00    +0.000 A 
ATOM     34  C   UNL     1      19.925  12.412  19.064  0.00  0.00    +0.000 A 
ENDBRANCH  22  24
ENDBRANCH   8  22
ENDBRANCH  20   8
ENDBRANCH  18  20
ENDBRANCH  14  16
ENDBRANCH   9  14
BRANCH  10  15
ATOM     15  C   UNL     1      12.330  10.144  21.129  0.00  0.00    +0.138 C 
BRANCH  15   6
ATOM      5  O   UNL     1      14.820  11.298  20.283  0.00  0.00    -0.270 OA
ATOM      6  N   UNL     1      13.625   9.540  21.214  0.00  0.00    -0.309 N 
ATOM     19  C   UNL     1      14.786  10.173  20.777  0.00  0.00    +0.244 C 
ATOM     36  H   UNL     1      13.658   8.565  21.492  0.00  0.00    +0.149 HD
BRANCH  19  21
ATOM      1  F   UNL     1      17.459   6.213  19.871  0.00  0.00    -0.205 F 
ATOM     21  C   UNL     1      16.047   9.401  20.911  0.00  0.00    +0.039 A 
ATOM     25  C   UNL     1      16.163   8.144  20.317  0.00  0.00    +0.051 A 
ATOM     26  C   UNL     1      17.117   9.933  21.632  0.00  0.00    +0.013 A 
ATOM     29  C   UNL     1      17.348   7.419  20.443  0.00  0.00    +0.124 A 
ATOM     30  C   UNL     1      18.302   9.207  21.759  0.00  0.00    +0.004 A 
ATOM     31  C   UNL     1      18.417   7.951  21.164  0.00  0.00    +0.038 A 
ENDBRANCH  19  21
ENDBRANCH  15   6
ENDBRANCH  10  15
TORSDOF 10
ENDMDL
MODEL 5
REMARK VINA RESULT:      -7.0     31.584     36.947
REMARK  Name = 75366980
REMARK  11 active torsions:
REMARK  status: ('A' for Active; 'I' for Inactive)
REMARK    1  A    between atoms: O_3  and  C_11
REMARK    2  A    between atoms: N_6  and  C_15
REMARK    3  A    between atoms: N_8  and  C_20
REMARK    4  A    between atoms: N_8  and  C_22
REMARK    5  A    between atoms: N_8  and  C_23
REMARK    6  A    between atoms: C_9  and  C_14
REMARK    7  A    between atoms: C_10  and  C_15
REMARK    8  A    between atoms: C_14  and  C_16
REMARK    9  A    between atoms: C_18  and  C_20
REMARK   10  A    between atoms: C_19  and  C_21
REMARK   11  A    between atoms: C_22  and  C_24
REMARK                            x       y       z     vdW  Elec       q    Type
REMARK                         _______ _______ _______ _____ _____    ______ ____
ROOT
ATOM      2  O   UNL     1      11.385   6.475   6.790  0.00  0.00    -0.369 OA
ATOM      9  C   UNL     1      10.713   7.731   6.661  0.00  0.00    +0.125 C 
ATOM     10  C   UNL     1      10.525   5.333   6.901  0.00  0.00    +0.164 C 
ATOM     11  C   UNL     1       9.536   5.489   8.063  0.00  0.00    +0.145 C 
ATOM     12  C   UNL     1       9.803   7.981   7.861  0.00  0.00    +0.034 C 
ATOM     13  C   UNL     1       8.813   6.832   8.034  0.00  0.00    +0.036 C 
ENDROOT
BRANCH  11   3
ATOM      3  O   UNL     1      10.256   5.408   9.296  0.00  0.00    -0.389 OA
ATOM     35  H   UNL     1       9.778   5.943   9.951  0.00  0.00    +0.210 HD
ENDBRANCH  11   3
BRANCH   9  14
ATOM     14  C   UNL     1      11.782   8.812   6.555  0.00  0.00    +0.090 C 
BRANCH  14  16
ATOM      4  O   UNL     1      15.062   7.389   6.108  0.00  0.00    -0.358 OA
ATOM      7  N   UNL     1      14.007   7.823   6.902  0.00  0.00    -0.083 NA
ATOM     16  C   UNL     1      13.084   8.261   6.040  0.00  0.00    +0.086 A 
ATOM     17  C   UNL     1      13.497   8.130   4.703  0.00  0.00    +0.072 A 
ATOM     18  C   UNL     1      14.746   7.577   4.801  0.00  0.00    +0.151 A 
BRANCH  18  20
ATOM     20  C   UNL     1      15.757   7.170   3.817  0.00  0.00    +0.161 C 
BRANCH  20   8
ATOM      8  N   UNL     1      16.718   8.239   3.496  0.00  0.00    -0.294 NA
ATOM     23  C   UNL     1      16.121   9.184   2.559  0.00  0.00    +0.105 C 
BRANCH   8  22
ATOM     22  C   UNL     1      17.141   8.915   4.717  0.00  0.00    +0.119 C 
BRANCH  22  24
ATOM     24  C   UNL     1      18.511   8.471   5.158  0.00  0.00    -0.033 A 
ATOM     27  C   UNL     1      19.346   7.796   4.268  0.00  0.00    +0.005 A 
ATOM     28  C   UNL     1      18.945   8.735   6.458  0.00  0.00    +0.005 A 
ATOM     32  C   UNL     1      20.615   7.384   4.677  0.00  0.00    +0.000 A 
ATOM     33  C   UNL     1      20.214   8.324   6.866  0.00  0.00    +0.000 A 
ATOM     34  C   UNL     1      21.048   7.649   5.976  0.00  0.00    +0.000 A 
ENDBRANCH  22  24
ENDBRANCH   8  22
ENDBRANCH  20   8
ENDBRANCH  18  20
ENDBRANCH  14  16
ENDBRANCH   9  14
BRANCH  10  15
ATOM     15  C   UNL     1       9.840   5.029   5.570  0.00  0.00    +0.138 C 
BRANCH  15   6
ATOM      5  O   UNL     1      10.353   6.417   3.109  0.00  0.00    -0.270 OA
ATOM      6  N   UNL     1      10.798   4.669   4.569  0.00  0.00    -0.309 N 
ATOM     19  C   UNL     1      10.982   5.402   3.400  0.00  0.00    +0.244 C 
ATOM     36  H   UNL     1      11.263   3.774   4.680  0.00  0.00    +0.149 HD
BRANCH  19  21
ATOM      1  F   UNL     1      14.781   6.092   0.443  0.00  0.00    -0.205 F 
ATOM     21  C   UNL     1      11.998   4.882   2.450  0.00  0.00    +0.039 A 
ATOM     25  C   UNL     1      12.931   5.749   1.880  0.00  0.00    +0.051 A 
ATOM     26  C   UNL     1      12.020   3.524   2.127  0.00  0.00    +0.013 A 
ATOM     29  C   UNL     1      13.885   5.259   0.988  0.00  0.00    +0.124 A 
ATOM     30  C   UNL     1      12.974   3.035   1.233  0.00  0.00    +0.004 A 
ATOM     31  C   UNL     1      13.906   3.903   0.665  0.00  0.00    +0.038 A 
ENDBRANCH  19  21
ENDBRANCH  15   6
ENDBRANCH  10  15
TORSDOF 10
ENDMDL
MODEL 6
REMARK VINA RESULT:      -6.9     32.047     37.002
REMARK  Name = 75366980
REMARK  11 active torsions:
REMARK  status: ('A' for Active; 'I' for Inactive)
REMARK    1  A    between atoms: O_3  and  C_11
REMARK    2  A    between atoms: N_6  and  C_15
REMARK    3  A    between atoms: N_8  and  C_20
REMARK    4  A    between atoms: N_8  and  C_22
REMARK    5  A    between atoms: N_8  and  C_23
REMARK    6  A    between atoms: C_9  and  C_14
REMARK    7  A    between atoms: C_10  and  C_15
REMARK    8  A    between atoms: C_14  and  C_16
REMARK    9  A    between atoms: C_18  and  C_20
REMARK   10  A    between atoms: C_19  and  C_21
REMARK   11  A    between atoms: C_22  and  C_24
REMARK                            x       y       z     vdW  Elec       q    Type
REMARK                         _______ _______ _______ _____ _____    ______ ____
ROOT
ATOM      2  O   UNL     1      14.154   7.301   4.115  0.00  0.00    -0.369 OA
ATOM      9  C   UNL     1      15.453   7.559   4.655  0.00  0.00    +0.125 C 
ATOM     10  C   UNL     1      14.113   7.090   2.698  0.00  0.00    +0.164 C 
ATOM     11  C   UNL     1      14.740   8.267   1.940  0.00  0.00    +0.145 C 
ATOM     12  C   UNL     1      16.069   8.798   4.008  0.00  0.00    +0.034 C 
ATOM     13  C   UNL     1      16.112   8.648   2.490  0.00  0.00    +0.036 C 
ENDROOT
BRANCH  11   3
ATOM      3  O   UNL     1      13.887   9.406   2.069  0.00  0.00    -0.389 OA
ATOM     35  H   UNL     1      13.949   9.915   1.243  0.00  0.00    +0.210 HD
ENDBRANCH  11   3
BRANCH   9  14
ATOM     14  C   UNL     1      15.294   7.753   6.157  0.00  0.00    +0.090 C 
BRANCH  14  16
ATOM      4  O   UNL     1      11.930   8.756   6.973  0.00  0.00    -0.358 OA
ATOM      7  N   UNL     1      13.230   9.028   6.564  0.00  0.00    -0.083 NA
ATOM     16  C   UNL     1      13.847   7.843   6.559  0.00  0.00    +0.086 A 
ATOM     17  C   UNL     1      12.994   6.797   6.952  0.00  0.00    +0.072 A 
ATOM     18  C   UNL     1      11.802   7.423   7.200  0.00  0.00    +0.151 A 
BRANCH  18  20
ATOM     20  C   UNL     1      10.482   6.957   7.643  0.00  0.00    +0.161 C 
BRANCH  20   8
ATOM      8  N   UNL     1      10.123   5.635   7.104  0.00  0.00    -0.294 NA
ATOM     23  C   UNL     1       9.679   4.759   8.184  0.00  0.00    +0.105 C 
BRANCH   8  22
ATOM     22  C   UNL     1       9.086   5.772   6.088  0.00  0.00    +0.119 C 
BRANCH  22  24
ATOM     24  C   UNL     1       9.655   5.718   4.695  0.00  0.00    -0.033 A 
ATOM     27  C   UNL     1      10.469   4.651   4.315  0.00  0.00    +0.005 A 
ATOM     28  C   UNL     1       9.368   6.734   3.784  0.00  0.00    +0.005 A 
ATOM     32  C   UNL     1      10.996   4.601   3.025  0.00  0.00    +0.000 A 
ATOM     33  C   UNL     1       9.895   6.684   2.493  0.00  0.00    +0.000 A 
ATOM     34  C   UNL     1      10.708   5.617   2.114  0.00  0.00    +0.000 A 
ENDBRANCH  22  24
ENDBRANCH   8  22
ENDBRANCH  20   8
ENDBRANCH  18  20
ENDBRANCH  14  16
ENDBRANCH   9  14
BRANCH  10  15
ATOM     15  C   UNL     1      14.729   5.743   2.325  0.00  0.00    +0.138 C 
BRANCH  15   6
ATOM      5  O   UNL     1      13.975   3.076   1.572  0.00  0.00    -0.270 OA
ATOM      6  N   UNL     1      14.280   5.313   1.035  0.00  0.00    -0.309 N 
ATOM     19  C   UNL     1      13.934   3.993   0.756  0.00  0.00    +0.244 C 
ATOM     36  H   UNL     1      14.342   5.987   0.279  0.00  0.00    +0.149 HD
BRANCH  19  21
ATOM      1  F   UNL     1      11.139   1.608  -2.431  0.00  0.00    -0.205 F 
ATOM     21  C   UNL     1      13.512   3.704  -0.639  0.00  0.00    +0.039 A 
ATOM     25  C   UNL     1      12.504   2.773  -0.885  0.00  0.00    +0.051 A 
ATOM     26  C   UNL     1      14.125   4.366  -1.704  0.00  0.00    +0.013 A 
ATOM     29  C   UNL     1      12.108   2.502  -2.195  0.00  0.00    +0.124 A 
ATOM     30  C   UNL     1      13.730   4.094  -3.014  0.00  0.00    +0.004 A 
ATOM     31  C   UNL     1      12.722   3.163  -3.259  0.00  0.00    +0.038 A 
ENDBRANCH  19  21
ENDBRANCH  15   6
ENDBRANCH  10  15
TORSDOF 10
ENDMDL
MODEL 7
REMARK VINA RESULT:      -6.9     18.197     20.448
REMARK  Name = 75366980
REMARK  11 active torsions:
REMARK  status: ('A' for Active; 'I' for Inactive)
REMARK    1  A    between atoms: O_3  and  C_11
REMARK    2  A    between atoms: N_6  and  C_15
REMARK    3  A    between atoms: N_8  and  C_20
REMARK    4  A    between atoms: N_8  and  C_22
REMARK    5  A    between atoms: N_8  and  C_23
REMARK    6  A    between atoms: C_9  and  C_14
REMARK    7  A    between atoms: C_10  and  C_15
REMARK    8  A    between atoms: C_14  and  C_16
REMARK    9  A    between atoms: C_18  and  C_20
REMARK   10  A    between atoms: C_19  and  C_21
REMARK   11  A    between atoms: C_22  and  C_24
REMARK                            x       y       z     vdW  Elec       q    Type
REMARK                         _______ _______ _______ _____ _____    ______ ____
ROOT
ATOM      2  O   UNL     1      -5.258 -10.847  17.753  0.00  0.00    -0.369 OA
ATOM      9  C   UNL     1      -5.893 -12.123  17.633  0.00  0.00    +0.125 C 
ATOM     10  C   UNL     1      -4.759 -10.298  16.526  0.00  0.00    +0.164 C 
ATOM     11  C   UNL     1      -3.796 -11.268  15.831  0.00  0.00    +0.145 C 
ATOM     12  C   UNL     1      -4.928 -13.153  17.052  0.00  0.00    +0.034 C 
ATOM     13  C   UNL     1      -4.374 -12.676  15.712  0.00  0.00    +0.036 C 
ENDROOT
BRANCH  11   3
ATOM      3  O   UNL     1      -2.593 -11.355  16.599  0.00  0.00    -0.389 OA
ATOM     35  H   UNL     1      -2.054 -10.574  16.391  0.00  0.00    +0.210 HD
ENDBRANCH  11   3
BRANCH   9  14
ATOM     14  C   UNL     1      -6.354 -12.536  19.025  0.00  0.00    +0.090 C 
BRANCH  14  16
ATOM      4  O   UNL     1      -9.394 -10.919  20.089  0.00  0.00    -0.358 OA
ATOM      7  N   UNL     1      -8.009 -11.029  20.046  0.00  0.00    -0.083 NA
ATOM     16  C   UNL     1      -7.772 -12.108  19.294  0.00  0.00    +0.086 A 
ATOM     17  C   UNL     1      -8.957 -12.712  18.840  0.00  0.00    +0.072 A 
ATOM     18  C   UNL     1      -9.946 -11.927  19.367  0.00  0.00    +0.151 A 
BRANCH  18  20
ATOM     20  C   UNL     1     -11.413 -11.962  19.305  0.00  0.00    +0.161 C 
BRANCH  20   8
ATOM      8  N   UNL     1     -11.960 -11.293  18.113  0.00  0.00    -0.294 NA
ATOM     23  C   UNL     1     -13.060 -12.076  17.561  0.00  0.00    +0.105 C 
BRANCH   8  22
ATOM     22  C   UNL     1     -12.402  -9.945  18.454  0.00  0.00    +0.119 C 
BRANCH  22  24
ATOM     24  C   UNL     1     -11.775  -8.907  17.561  0.00  0.00    -0.033 A 
ATOM     27  C   UNL     1     -12.568  -8.176  16.677  0.00  0.00    +0.005 A 
ATOM     28  C   UNL     1     -10.401  -8.676  17.619  0.00  0.00    +0.005 A 
ATOM     32  C   UNL     1     -11.987  -7.215  15.850  0.00  0.00    +0.000 A 
ATOM     33  C   UNL     1      -9.820  -7.714  16.793  0.00  0.00    +0.000 A 
ATOM     34  C   UNL     1     -10.613  -6.983  15.909  0.00  0.00    +0.000 A 
ENDBRANCH  22  24
ENDBRANCH   8  22
ENDBRANCH  20   8
ENDBRANCH  18  20
ENDBRANCH  14  16
ENDBRANCH   9  14
BRANCH  10  15
ATOM     15  C   UNL     1      -5.902  -9.841  15.622  0.00  0.00    +0.138 C 
BRANCH  15   6
ATOM      5  O   UNL     1      -6.866 -10.884  13.126  0.00  0.00    -0.270 OA
ATOM      6  N   UNL     1      -5.422  -9.511  14.314  0.00  0.00    -0.309 N 
ATOM     19  C   UNL     1      -5.950 -10.066  13.151  0.00  0.00    +0.244 C 
ATOM     36  H   UNL     1      -4.584  -8.941  14.264  0.00  0.00    +0.149 HD
BRANCH  19  21
ATOM      1  F   UNL     1      -6.141  -7.688   8.914  0.00  0.00    -0.205 F 
ATOM     21  C   UNL     1      -5.324  -9.638  11.874  0.00  0.00    +0.039 A 
ATOM     25  C   UNL     1      -6.041  -8.849  10.975  0.00  0.00    +0.051 A 
ATOM     26  C   UNL     1      -4.017 -10.026  11.574  0.00  0.00    +0.013 A 
ATOM     29  C   UNL     1      -5.452  -8.447   9.776  0.00  0.00    +0.124 A 
ATOM     30  C   UNL     1      -3.429  -9.625  10.374  0.00  0.00    +0.004 A 
ATOM     31  C   UNL     1      -4.147  -8.835   9.476  0.00  0.00    +0.038 A 
ENDBRANCH  19  21
ENDBRANCH  15   6
ENDBRANCH  10  15
TORSDOF 10
ENDMDL
MODEL 8
REMARK VINA RESULT:      -6.9     27.534     31.271
REMARK  Name = 75366980
REMARK  11 active torsions:
REMARK  status: ('A' for Active; 'I' for Inactive)
REMARK    1  A    between atoms: O_3  and  C_11
REMARK    2  A    between atoms: N_6  and  C_15
REMARK    3  A    between atoms: N_8  and  C_20
REMARK    4  A    between atoms: N_8  and  C_22
REMARK    5  A    between atoms: N_8  and  C_23
REMARK    6  A    between atoms: C_9  and  C_14
REMARK    7  A    between atoms: C_10  and  C_15
REMARK    8  A    between atoms: C_14  and  C_16
REMARK    9  A    between atoms: C_18  and  C_20
REMARK   10  A    between atoms: C_19  and  C_21
REMARK   11  A    between atoms: C_22  and  C_24
REMARK                            x       y       z     vdW  Elec       q    Type
REMARK                         _______ _______ _______ _____ _____    ______ ____
ROOT
ATOM      2  O   UNL     1      12.660  11.517  22.909  0.00  0.00    -0.369 OA
ATOM      9  C   UNL     1      12.130  12.699  22.302  0.00  0.00    +0.125 C 
ATOM     10  C   UNL     1      11.709  10.727  23.636  0.00  0.00    +0.164 C 
ATOM     11  C   UNL     1      10.996  11.559  24.709  0.00  0.00    +0.145 C 
ATOM     12  C   UNL     1      11.511  13.615  23.356  0.00  0.00    +0.034 C 
ATOM     13  C   UNL     1      10.446  12.872  24.157  0.00  0.00    +0.036 C 
ENDROOT
BRANCH  11   3
ATOM      3  O   UNL     1      11.930  11.878  25.742  0.00  0.00    -0.389 OA
ATOM     35  H   UNL     1      11.557  11.566  26.583  0.00  0.00    +0.210 HD
ENDBRANCH  11   3
BRANCH   9  14
ATOM     14  C   UNL     1      13.277  13.397  21.582  0.00  0.00    +0.090 C 
BRANCH  14  16
ATOM      4  O   UNL     1      16.269  12.940  23.537  0.00  0.00    -0.358 OA
ATOM      7  N   UNL     1      15.020  13.507  23.314  0.00  0.00    -0.083 NA
ATOM     16  C   UNL     1      14.614  13.000  22.147  0.00  0.00    +0.086 A 
ATOM     17  C   UNL     1      15.557  12.117  21.592  0.00  0.00    +0.072 A 
ATOM     18  C   UNL     1      16.578  12.115  22.504  0.00  0.00    +0.151 A 
BRANCH  18  20
ATOM     20  C   UNL     1      17.874  11.429  22.578  0.00  0.00    +0.161 C 
BRANCH  20   8
ATOM      8  N   UNL     1      18.117  10.524  21.441  0.00  0.00    -0.294 NA
ATOM     23  C   UNL     1      19.225  11.022  20.634  0.00  0.00    +0.105 C 
BRANCH   8  22
ATOM     22  C   UNL     1      18.391   9.176  21.925  0.00  0.00    +0.119 C 
BRANCH  22  24
ATOM     24  C   UNL     1      17.817   8.125  21.011  0.00  0.00    -0.033 A 
ATOM     27  C   UNL     1      16.529   8.273  20.500  0.00  0.00    +0.005 A 
ATOM     28  C   UNL     1      18.576   7.003  20.675  0.00  0.00    +0.005 A 
ATOM     32  C   UNL     1      15.997   7.299  19.653  0.00  0.00    +0.000 A 
ATOM     33  C   UNL     1      18.045   6.030  19.829  0.00  0.00    +0.000 A 
ATOM     34  C   UNL     1      16.756   6.179  19.318  0.00  0.00    +0.000 A 
ENDBRANCH  22  24
ENDBRANCH   8  22
ENDBRANCH  20   8
ENDBRANCH  18  20
ENDBRANCH  14  16
ENDBRANCH   9  14
BRANCH  10  15
ATOM     15  C   UNL     1      10.742  10.020  22.688  0.00  0.00    +0.138 C 
BRANCH  15   6
ATOM      5  O   UNL     1      12.140   7.703  21.728  0.00  0.00    -0.270 OA
ATOM      6  N   UNL     1      11.326   9.849  21.392  0.00  0.00    -0.309 N 
ATOM     19  C   UNL     1      11.989   8.687  21.008  0.00  0.00    +0.244 C 
ATOM     36  H   UNL     1      11.352  10.665  20.790  0.00  0.00    +0.149 HD
BRANCH  19  21
ATOM      1  F   UNL     1      14.259  10.926  17.336  0.00  0.00    -0.205 F 
ATOM     21  C   UNL     1      12.561   8.677  19.637  0.00  0.00    +0.039 A 
ATOM     25  C   UNL     1      13.153   9.829  19.119  0.00  0.00    +0.051 A 
ATOM     26  C   UNL     1      12.507   7.515  18.867  0.00  0.00    +0.013 A 
ATOM     29  C   UNL     1      13.690   9.820  17.831  0.00  0.00    +0.124 A 
ATOM     30  C   UNL     1      13.043   7.506  17.579  0.00  0.00    +0.004 A 
ATOM     31  C   UNL     1      13.634   8.658  17.062  0.00  0.00    +0.038 A 
ENDBRANCH  19  21
ENDBRANCH  15   6
ENDBRANCH  10  15
TORSDOF 10
ENDMDL
MODEL 9
REMARK VINA RESULT:      -6.9      3.363      9.862
REMARK  Name = 75366980
REMARK  11 active torsions:
REMARK  status: ('A' for Active; 'I' for Inactive)
REMARK    1  A    between atoms: O_3  and  C_11
REMARK    2  A    between atoms: N_6  and  C_15
REMARK    3  A    between atoms: N_8  and  C_20
REMARK    4  A    between atoms: N_8  and  C_22
REMARK    5  A    between atoms: N_8  and  C_23
REMARK    6  A    between atoms: C_9  and  C_14
REMARK    7  A    between atoms: C_10  and  C_15
REMARK    8  A    between atoms: C_14  and  C_16
REMARK    9  A    between atoms: C_18  and  C_20
REMARK   10  A    between atoms: C_19  and  C_21
REMARK   11  A    between atoms: C_22  and  C_24
REMARK                            x       y       z     vdW  Elec       q    Type
REMARK                         _______ _______ _______ _____ _____    ______ ____
ROOT
ATOM      2  O   UNL     1     -17.440   2.495  23.768  0.00  0.00    -0.369 OA
ATOM      9  C   UNL     1     -18.316   3.625  23.790  0.00  0.00    +0.125 C 
ATOM     10  C   UNL     1     -16.559   2.385  24.894  0.00  0.00    +0.164 C 
ATOM     11  C   UNL     1     -15.723   3.658  25.075  0.00  0.00    +0.145 C 
ATOM     12  C   UNL     1     -17.518   4.926  23.852  0.00  0.00    +0.034 C 
ATOM     13  C   UNL     1     -16.577   4.923  25.054  0.00  0.00    +0.036 C 
ENDROOT
BRANCH  11   3
ATOM      3  O   UNL     1     -14.782   3.749  24.002  0.00  0.00    -0.389 OA
ATOM     35  H   UNL     1     -14.831   4.652  23.644  0.00  0.00    +0.210 HD
ENDBRANCH  11   3
BRANCH   9  14
ATOM     14  C   UNL     1     -19.167   3.570  22.527  0.00  0.00    +0.090 C 
BRANCH  14  16
ATOM      4  O   UNL     1     -17.167   4.677  19.741  0.00  0.00    -0.358 OA
ATOM      7  N   UNL     1     -17.523   3.742  20.705  0.00  0.00    -0.083 NA
ATOM     16  C   UNL     1     -18.521   4.311  21.387  0.00  0.00    +0.086 A 
ATOM     17  C   UNL     1     -18.835   5.593  20.904  0.00  0.00    +0.072 A 
ATOM     18  C   UNL     1     -17.956   5.775  19.870  0.00  0.00    +0.151 A 
BRANCH  18  20
ATOM     20  C   UNL     1     -17.714   6.871  18.923  0.00  0.00    +0.161 C 
BRANCH  20   8
ATOM      8  N   UNL     1     -16.288   7.063  18.611  0.00  0.00    -0.294 NA
ATOM     23  C   UNL     1     -16.139   7.595  17.260  0.00  0.00    +0.105 C 
BRANCH   8  22
ATOM     22  C   UNL     1     -15.676   7.955  19.590  0.00  0.00    +0.119 C 
BRANCH  22  24
ATOM     24  C   UNL     1     -14.403   7.380  20.153  0.00  0.00    -0.033 A 
ATOM     27  C   UNL     1     -14.456   6.452  21.192  0.00  0.00    +0.005 A 
ATOM     28  C   UNL     1     -13.170   7.777  19.634  0.00  0.00    +0.005 A 
ATOM     32  C   UNL     1     -13.276   5.921  21.714  0.00  0.00    +0.000 A 
ATOM     33  C   UNL     1     -11.991   7.245  20.155  0.00  0.00    +0.000 A 
ATOM     34  C   UNL     1     -12.044   6.316  21.195  0.00  0.00    +0.000 A 
ENDBRANCH  22  24
ENDBRANCH   8  22
ENDBRANCH  20   8
ENDBRANCH  18  20
ENDBRANCH  14  16
ENDBRANCH   9  14
BRANCH  10  15
ATOM     15  C   UNL     1     -17.324   1.990  26.155  0.00  0.00    +0.138 C 
BRANCH  15   6
ATOM      5  O   UNL     1     -17.547   0.248  28.427  0.00  0.00    -0.270 OA
ATOM      6  N   UNL     1     -16.456   1.953  27.293  0.00  0.00    -0.309 N 
ATOM     19  C   UNL     1     -16.638   1.072  28.356  0.00  0.00    +0.244 C 
ATOM     36  H   UNL     1     -15.761   2.689  27.363  0.00  0.00    +0.149 HD
BRANCH  19  21
ATOM      1  F   UNL     1     -12.913   3.301  30.548  0.00  0.00    -0.205 F 
ATOM     21  C   UNL     1     -15.665   1.178  29.473  0.00  0.00    +0.039 A 
ATOM     25  C   UNL     1     -14.727   2.210  29.486  0.00  0.00    +0.051 A 
ATOM     26  C   UNL     1     -15.690   0.245  30.510  0.00  0.00    +0.013 A 
ATOM     29  C   UNL     1     -13.813   2.309  30.536  0.00  0.00    +0.124 A 
ATOM     30  C   UNL     1     -14.775   0.344  31.559  0.00  0.00    +0.004 A 
ATOM     31  C   UNL     1     -13.838   1.376  31.571  0.00  0.00    +0.038 A 
ENDBRANCH  19  21
ENDBRANCH  15   6
ENDBRANCH  10  15
TORSDOF 10
ENDMDL
MODEL 10
REMARK VINA RESULT:      -6.9     32.506     37.985
REMARK  Name = 75366980
REMARK  11 active torsions:
REMARK  status: ('A' for Active; 'I' for Inactive)
REMARK    1  A    between atoms: O_3  and  C_11
REMARK    2  A    between atoms: N_6  and  C_15
REMARK    3  A    between atoms: N_8  and  C_20
REMARK    4  A    between atoms: N_8  and  C_22
REMARK    5  A    between atoms: N_8  and  C_23
REMARK    6  A    between atoms: C_9  and  C_14
REMARK    7  A    between atoms: C_10  and  C_15
REMARK    8  A    between atoms: C_14  and  C_16
REMARK    9  A    between atoms: C_18  and  C_20
REMARK   10  A    between atoms: C_19  and  C_21
REMARK   11  A    between atoms: C_22  and  C_24
REMARK                            x       y       z     vdW  Elec       q    Type
REMARK                         _______ _______ _______ _____ _____    ______ ____
ROOT
ATOM      2  O   UNL     1      12.932   3.370   0.834  0.00  0.00    -0.369 OA
ATOM      9  C   UNL     1      13.161   3.674  -0.545  0.00  0.00    +0.125 C 
ATOM     10  C   UNL     1      13.533   4.278   1.765  0.00  0.00    +0.164 C 
ATOM     11  C   UNL     1      15.044   4.402   1.529  0.00  0.00    +0.145 C 
ATOM     12  C   UNL     1      14.656   3.691  -0.852  0.00  0.00    +0.034 C 
ATOM     13  C   UNL     1      15.383   4.671   0.065  0.00  0.00    +0.036 C 
ENDROOT
BRANCH  11   3
ATOM      3  O   UNL     1      15.672   3.173   1.903  0.00  0.00    -0.389 OA
ATOM     35  H   UNL     1      15.930   2.714   1.086  0.00  0.00    +0.210 HD
ENDBRANCH  11   3
BRANCH   9  14
ATOM     14  C   UNL     1      12.449   2.610  -1.372  0.00  0.00    +0.090 C 
BRANCH  14  16
ATOM      4  O   UNL     1       9.494   4.335  -2.506  0.00  0.00    -0.358 OA
ATOM      7  N   UNL     1      10.417   3.989  -1.526  0.00  0.00    -0.083 NA
ATOM     16  C   UNL     1      11.290   3.185  -2.141  0.00  0.00    +0.086 A 
ATOM     17  C   UNL     1      10.971   2.989  -3.496  0.00  0.00    +0.072 A 
ATOM     18  C   UNL     1       9.835   3.732  -3.674  0.00  0.00    +0.151 A 
BRANCH  18  20
ATOM     20  C   UNL     1       8.960   3.991  -4.825  0.00  0.00    +0.161 C 
BRANCH  20   8
ATOM      8  N   UNL     1       8.844   5.421  -5.156  0.00  0.00    -0.294 NA
ATOM     23  C   UNL     1       9.904   5.808  -6.080  0.00  0.00    +0.105 C 
BRANCH   8  22
ATOM     22  C   UNL     1       7.530   5.698  -5.726  0.00  0.00    +0.119 C 
BRANCH  22  24
ATOM     24  C   UNL     1       6.545   6.139  -4.676  0.00  0.00    -0.033 A 
ATOM     27  C   UNL     1       6.972   6.916  -3.600  0.00  0.00    +0.005 A 
ATOM     28  C   UNL     1       5.203   5.770  -4.780  0.00  0.00    +0.005 A 
ATOM     32  C   UNL     1       6.059   7.324  -2.628  0.00  0.00    +0.000 A 
ATOM     33  C   UNL     1       4.290   6.179  -3.809  0.00  0.00    +0.000 A 
ATOM     34  C   UNL     1       4.718   6.956  -2.733  0.00  0.00    +0.000 A 
ENDBRANCH  22  24
ENDBRANCH   8  22
ENDBRANCH  20   8
ENDBRANCH  18  20
ENDBRANCH  14  16
ENDBRANCH   9  14
BRANCH  10  15
ATOM     15  C   UNL     1      12.816   5.627   1.761  0.00  0.00    +0.138 C 
BRANCH  15   6
ATOM      5  O   UNL     1       9.960   5.378   1.920  0.00  0.00    -0.270 OA
ATOM      6  N   UNL     1      12.008   5.783   2.932  0.00  0.00    -0.309 N 
ATOM     19  C   UNL     1      10.622   5.644   2.920  0.00  0.00    +0.244 C 
ATOM     36  H   UNL     1      12.471   6.127   3.767  0.00  0.00    +0.149 HD
BRANCH  19  21
ATOM      1  F   UNL     1       9.813   4.447   7.563  0.00  0.00    -0.205 F 
ATOM     21  C   UNL     1       9.927   5.863   4.214  0.00  0.00    +0.039 A 
ATOM     25  C   UNL     1      10.201   5.035   5.302  0.00  0.00    +0.051 A 
ATOM     26  C   UNL     1       8.998   6.897   4.340  0.00  0.00    +0.013 A 
ATOM     29  C   UNL     1       9.548   5.241   6.518  0.00  0.00    +0.124 A 
ATOM     30  C   UNL     1       8.344   7.102   5.556  0.00  0.00    +0.004 A 
ATOM     31  C   UNL     1       8.620   6.274   6.643  0.00  0.00    +0.038 A 
ENDBRANCH  19  21
ENDBRANCH  15   6
ENDBRANCH  10  15
TORSDOF 10
ENDMDL
