MODEL 1
REMARK VINA RESULT:      -7.4      0.000      0.000
REMARK  Name = 11911724
REMARK  10 active torsions:
REMARK  status: ('A' for Active; 'I' for Inactive)
REMARK    1  A    between atoms: N_4  and  C_12
REMARK    2  A    between atoms: N_5  and  C_13
REMARK    3  A    between atoms: N_8  and  C_27
REMARK    4  A    between atoms: N_8  and  C_33
REMARK    5  A    between atoms: N_8  and  C_34
REMARK    6  A    between atoms: N_9  and  C_32
REMARK    7  A    between atoms: N_9  and  C_35
REMARK    8  A    between atoms: N_9  and  C_36
REMARK    9  A    between atoms: C_16  and  C_18
REMARK   10  A    between atoms: C_19  and  C_26
REMARK                            x       y       z     vdW  Elec       q    Type
REMARK                         _______ _______ _______ _____ _____    ______ ____
ROOT
ATOM      1  O   UNL     1      -6.001 -11.626  10.019  0.00  0.00    -0.370 OA
ATOM      2  O   UNL     1      -4.960  -8.686  10.097  0.00  0.00    -0.370 OA
ATOM     10  C   UNL     1      -4.528  -9.865   9.398  0.00  0.00    +0.171 C 
ATOM     11  C   UNL     1      -4.726 -11.042  10.334  0.00  0.00    +0.171 C 
ATOM     12  C   UNL     1      -5.451 -10.157   8.238  0.00  0.00    +0.130 C 
ATOM     13  C   UNL     1      -4.760 -10.419  11.710  0.00  0.00    +0.130 C 
ATOM     14  C   UNL     1      -6.577 -10.928   8.905  0.00  0.00    +0.185 C 
ATOM     15  C   UNL     1      -5.334  -9.040  11.436  0.00  0.00    +0.185 C 
ENDROOT
BRANCH  13   5
ATOM      5  N   UNL     1      -3.417 -10.307  12.236  0.00  0.00    -0.306 N 
ATOM      6  N   UNL     1      -4.131 -10.678  14.439  0.00  0.00    -0.214 NA
ATOM      7  N   UNL     1      -1.803 -10.309  13.938  0.00  0.00    -0.223 NA
ATOM     17  C   UNL     1      -3.108 -10.435  13.578  0.00  0.00    +0.216 A 
ATOM     19  C   UNL     1      -3.794 -10.797  15.741  0.00  0.00    +0.076 A 
ATOM     22  C   UNL     1      -1.537 -10.439  15.255  0.00  0.00    +0.116 A 
ATOM     23  C   UNL     1      -2.501 -10.686  16.210  0.00  0.00    +0.048 A 
ATOM     38  H   UNL     1      -2.641 -10.178  11.596  0.00  0.00    +0.149 HD
BRANCH  19  26
ATOM     26  C   UNL     1      -4.895 -11.056  16.637  0.00  0.00    +0.001 A 
ATOM     28  C   UNL     1      -4.684 -11.077  18.018  0.00  0.00    +0.012 A 
ATOM     29  C   UNL     1      -6.175 -11.282  16.127  0.00  0.00    +0.012 A 
ATOM     30  C   UNL     1      -5.749 -11.324  18.884  0.00  0.00    +0.024 A 
ATOM     31  C   UNL     1      -7.240 -11.528  16.995  0.00  0.00    +0.024 A 
ATOM     32  C   UNL     1      -7.028 -11.550  18.373  0.00  0.00    +0.029 A 
BRANCH  32   9
ATOM      9  N   UNL     1      -8.104 -11.800  19.248  0.00  0.00    -0.336 N 
ATOM     35  C   UNL     1      -9.183 -10.842  19.379  0.00  0.00    +0.129 C 
ATOM     36  C   UNL     1      -8.151 -13.026  20.020  0.00  0.00    +0.129 C 
ENDBRANCH  32   9
ENDBRANCH  19  26
ENDBRANCH  13   5
BRANCH  12   4
ATOM      3  O   UNL     1      -6.226 -10.437   5.487  0.00  0.00    -0.270 OA
ATOM      4  N   UNL     1      -4.793 -10.958   7.235  0.00  0.00    -0.304 N 
ATOM     16  C   UNL     1      -5.244 -11.031   5.924  0.00  0.00    +0.244 C 
ATOM     37  H   UNL     1      -4.044 -11.566   7.552  0.00  0.00    +0.149 HD
BRANCH  16  18
ATOM     18  C   UNL     1      -4.471 -11.920   5.020  0.00  0.00    +0.037 A 
ATOM     20  C   UNL     1      -3.298 -12.481   5.480  0.00  0.00    +0.015 A 
ATOM     21  C   UNL     1      -4.951 -12.157   3.748  0.00  0.00    +0.015 A 
ATOM     24  C   UNL     1      -2.573 -13.317   4.631  0.00  0.00    +0.024 A 
ATOM     25  C   UNL     1      -4.225 -12.993   2.900  0.00  0.00    +0.024 A 
ATOM     27  C   UNL     1      -3.036 -13.573   3.341  0.00  0.00    +0.029 A 
BRANCH  27   8
ATOM      8  N   UNL     1      -2.303 -14.419   2.484  0.00  0.00    -0.336 N 
ATOM     33  C   UNL     1      -0.869 -14.264   2.348  0.00  0.00    +0.129 C 
ATOM     34  C   UNL     1      -2.974 -15.465   1.736  0.00  0.00    +0.129 C 
ENDBRANCH  27   8
ENDBRANCH  16  18
ENDBRANCH  12   4
TORSDOF 6
ENDMDL
MODEL 2
REMARK VINA RESULT:      -7.1     24.338     30.487
REMARK  Name = 11911724
REMARK  10 active torsions:
REMARK  status: ('A' for Active; 'I' for Inactive)
REMARK    1  A    between atoms: N_4  and  C_12
REMARK    2  A    between atoms: N_5  and  C_13
REMARK    3  A    between atoms: N_8  and  C_27
REMARK    4  A    between atoms: N_8  and  C_33
REMARK    5  A    between atoms: N_8  and  C_34
REMARK    6  A    between atoms: N_9  and  C_32
REMARK    7  A    between atoms: N_9  and  C_35
REMARK    8  A    between atoms: N_9  and  C_36
REMARK    9  A    between atoms: C_16  and  C_18
REMARK   10  A    between atoms: C_19  and  C_26
REMARK                            x       y       z     vdW  Elec       q    Type
REMARK                         _______ _______ _______ _____ _____    ______ ____
ROOT
ATOM      1  O   UNL     1     -13.842   7.207  32.039  0.00  0.00    -0.370 OA
ATOM      2  O   UNL     1     -15.619   6.348  34.455  0.00  0.00    -0.370 OA
ATOM     10  C   UNL     1     -14.202   6.524  34.289  0.00  0.00    +0.171 C 
ATOM     11  C   UNL     1     -13.850   6.050  32.892  0.00  0.00    +0.171 C 
ATOM     12  C   UNL     1     -13.852   7.994  34.278  0.00  0.00    +0.130 C 
ATOM     13  C   UNL     1     -14.987   5.129  32.516  0.00  0.00    +0.130 C 
ATOM     14  C   UNL     1     -14.101   8.376  32.829  0.00  0.00    +0.185 C 
ATOM     15  C   UNL     1     -16.157   5.716  33.285  0.00  0.00    +0.185 C 
ENDROOT
BRANCH  13   5
ATOM      5  N   UNL     1     -14.709   3.786  32.975  0.00  0.00    -0.306 N 
ATOM      6  N   UNL     1     -15.318   2.839  30.918  0.00  0.00    -0.214 NA
ATOM      7  N   UNL     1     -14.572   1.455  32.744  0.00  0.00    -0.223 NA
ATOM     17  C   UNL     1     -14.872   2.660  32.189  0.00  0.00    +0.216 A 
ATOM     19  C   UNL     1     -15.465   1.719  30.179  0.00  0.00    +0.076 A 
ATOM     22  C   UNL     1     -14.742   0.378  31.949  0.00  0.00    +0.116 A 
ATOM     23  C   UNL     1     -15.190   0.450  30.646  0.00  0.00    +0.048 A 
ATOM     38  H   UNL     1     -14.326   3.646  33.904  0.00  0.00    +0.149 HD
BRANCH  19  26
ATOM     26  C   UNL     1     -15.940   1.932  28.832  0.00  0.00    +0.001 A 
ATOM     28  C   UNL     1     -16.564   0.893  28.136  0.00  0.00    +0.012 A 
ATOM     29  C   UNL     1     -15.781   3.178  28.222  0.00  0.00    +0.012 A 
ATOM     30  C   UNL     1     -17.025   1.101  26.837  0.00  0.00    +0.024 A 
ATOM     31  C   UNL     1     -16.243   3.385  26.922  0.00  0.00    +0.024 A 
ATOM     32  C   UNL     1     -16.865   2.346  26.229  0.00  0.00    +0.029 A 
BRANCH  32   9
ATOM      9  N   UNL     1     -17.330   2.555  24.915  0.00  0.00    -0.336 N 
ATOM     35  C   UNL     1     -18.701   2.242  24.562  0.00  0.00    +0.129 C 
ATOM     36  C   UNL     1     -16.448   3.098  23.901  0.00  0.00    +0.129 C 
ENDBRANCH  32   9
ENDBRANCH  19  26
ENDBRANCH  13   5
BRANCH  12   4
ATOM      3  O   UNL     1     -12.874   8.911  36.817  0.00  0.00    -0.270 OA
ATOM      4  N   UNL     1     -12.473   8.206  34.644  0.00  0.00    -0.304 N 
ATOM     16  C   UNL     1     -12.096   8.653  35.903  0.00  0.00    +0.244 C 
ATOM     37  H   UNL     1     -11.784   8.124  33.903  0.00  0.00    +0.149 HD
BRANCH  16  18
ATOM     18  C   UNL     1     -10.638   8.846  36.113  0.00  0.00    +0.037 A 
ATOM     20  C   UNL     1      -9.950   9.695  35.272  0.00  0.00    +0.015 A 
ATOM     21  C   UNL     1     -10.018   8.169  37.144  0.00  0.00    +0.015 A 
ATOM     24  C   UNL     1      -8.581   9.877  35.471  0.00  0.00    +0.024 A 
ATOM     25  C   UNL     1      -8.650   8.351  37.342  0.00  0.00    +0.024 A 
ATOM     27  C   UNL     1      -7.931   9.205  36.506  0.00  0.00    +0.029 A 
BRANCH  27   8
ATOM      8  N   UNL     1      -6.548   9.390  36.707  0.00  0.00    -0.336 N 
ATOM     33  C   UNL     1      -5.912   8.917  37.921  0.00  0.00    +0.129 C 
ATOM     34  C   UNL     1      -5.740  10.045  35.696  0.00  0.00    +0.129 C 
ENDBRANCH  27   8
ENDBRANCH  16  18
ENDBRANCH  12   4
TORSDOF 6
ENDMDL
MODEL 3
REMARK VINA RESULT:      -7.1     28.230     33.372
REMARK  Name = 11911724
REMARK  10 active torsions:
REMARK  status: ('A' for Active; 'I' for Inactive)
REMARK    1  A    between atoms: N_4  and  C_12
REMARK    2  A    between atoms: N_5  and  C_13
REMARK    3  A    between atoms: N_8  and  C_27
REMARK    4  A    between atoms: N_8  and  C_33
REMARK    5  A    between atoms: N_8  and  C_34
REMARK    6  A    between atoms: N_9  and  C_32
REMARK    7  A    between atoms: N_9  and  C_35
REMARK    8  A    between atoms: N_9  and  C_36
REMARK    9  A    between atoms: C_16  and  C_18
REMARK   10  A    between atoms: C_19  and  C_26
REMARK                            x       y       z     vdW  Elec       q    Type
REMARK                         _______ _______ _______ _____ _____    ______ ____
ROOT
ATOM      1  O   UNL     1      14.009  12.288  23.696  0.00  0.00    -0.370 OA
ATOM      2  O   UNL     1      11.173  13.479  24.219  0.00  0.00    -0.370 OA
ATOM     10  C   UNL     1      12.010  12.569  24.953  0.00  0.00    +0.171 C 
ATOM     11  C   UNL     1      12.722  11.695  23.940  0.00  0.00    +0.171 C 
ATOM     12  C   UNL     1      13.126  13.319  25.642  0.00  0.00    +0.130 C 
ATOM     13  C   UNL     1      11.861  11.785  22.702  0.00  0.00    +0.130 C 
ATOM     14  C   UNL     1      14.166  13.437  24.542  0.00  0.00    +0.185 C 
ATOM     15  C   UNL     1      11.254  13.171  22.820  0.00  0.00    +0.185 C 
ENDROOT
BRANCH  13   5
ATOM      5  N   UNL     1      10.823  10.779  22.748  0.00  0.00    -0.306 N 
ATOM      6  N   UNL     1      12.265   9.098  21.974  0.00  0.00    -0.214 NA
ATOM      7  N   UNL     1       9.959   8.613  22.482  0.00  0.00    -0.223 NA
ATOM     17  C   UNL     1      11.022   9.457  22.391  0.00  0.00    +0.216 A 
ATOM     19  C   UNL     1      12.424   7.801  21.633  0.00  0.00    +0.076 A 
ATOM     22  C   UNL     1      10.190   7.332  22.125  0.00  0.00    +0.116 A 
ATOM     23  C   UNL     1      11.412   6.865  21.690  0.00  0.00    +0.048 A 
ATOM     38  H   UNL     1       9.906  11.023  23.106  0.00  0.00    +0.149 HD
BRANCH  19  26
ATOM     26  C   UNL     1      13.751   7.442  21.195  0.00  0.00    +0.001 A 
ATOM     28  C   UNL     1      13.956   6.963  19.899  0.00  0.00    +0.012 A 
ATOM     29  C   UNL     1      14.836   7.575  22.065  0.00  0.00    +0.012 A 
ATOM     30  C   UNL     1      15.239   6.619  19.475  0.00  0.00    +0.024 A 
ATOM     31  C   UNL     1      16.120   7.230  21.640  0.00  0.00    +0.024 A 
ATOM     32  C   UNL     1      16.321   6.752  20.345  0.00  0.00    +0.029 A 
BRANCH  32   9
ATOM      9  N   UNL     1      17.618   6.403  19.917  0.00  0.00    -0.336 N 
ATOM     35  C   UNL     1      17.804   5.525  18.779  0.00  0.00    +0.129 C 
ATOM     36  C   UNL     1      18.783   6.927  20.602  0.00  0.00    +0.129 C 
ENDBRANCH  32   9
ENDBRANCH  19  26
ENDBRANCH  13   5
BRANCH  12   4
ATOM      3  O   UNL     1      14.612  14.377  27.861  0.00  0.00    -0.270 OA
ATOM      4  N   UNL     1      13.638  12.577  26.768  0.00  0.00    -0.304 N 
ATOM     16  C   UNL     1      14.348  13.179  27.797  0.00  0.00    +0.244 C 
ATOM     37  H   UNL     1      13.558  11.566  26.725  0.00  0.00    +0.149 HD
BRANCH  16  18
ATOM     18  C   UNL     1      14.830  12.272  28.871  0.00  0.00    +0.037 A 
ATOM     20  C   UNL     1      14.429  12.506  30.170  0.00  0.00    +0.015 A 
ATOM     21  C   UNL     1      15.662  11.224  28.535  0.00  0.00    +0.015 A 
ATOM     24  C   UNL     1      14.879  11.654  31.178  0.00  0.00    +0.024 A 
ATOM     25  C   UNL     1      16.113  10.372  29.544  0.00  0.00    +0.024 A 
ATOM     27  C   UNL     1      15.722  10.587  30.865  0.00  0.00    +0.029 A 
BRANCH  27   8
ATOM      8  N   UNL     1      16.176   9.725  31.884  0.00  0.00    -0.336 N 
ATOM     33  C   UNL     1      16.962   8.552  31.558  0.00  0.00    +0.129 C 
ATOM     34  C   UNL     1      15.874  10.008  33.274  0.00  0.00    +0.129 C 
ENDBRANCH  27   8
ENDBRANCH  16  18
ENDBRANCH  12   4
TORSDOF 6
ENDMDL
MODEL 4
REMARK VINA RESULT:      -6.9     29.004     33.317
REMARK  Name = 11911724
REMARK  10 active torsions:
REMARK  status: ('A' for Active; 'I' for Inactive)
REMARK    1  A    between atoms: N_4  and  C_12
REMARK    2  A    between atoms: N_5  and  C_13
REMARK    3  A    between atoms: N_8  and  C_27
REMARK    4  A    between atoms: N_8  and  C_33
REMARK    5  A    between atoms: N_8  and  C_34
REMARK    6  A    between atoms: N_9  and  C_32
REMARK    7  A    between atoms: N_9  and  C_35
REMARK    8  A    between atoms: N_9  and  C_36
REMARK    9  A    between atoms: C_16  and  C_18
REMARK   10  A    between atoms: C_19  and  C_26
REMARK                            x       y       z     vdW  Elec       q    Type
REMARK                         _______ _______ _______ _____ _____    ______ ____
ROOT
ATOM      1  O   UNL     1      20.890   6.204  23.990  0.00  0.00    -0.370 OA
ATOM      2  O   UNL     1      22.425   8.478  22.505  0.00  0.00    -0.370 OA
ATOM     10  C   UNL     1      21.218   7.753  22.216  0.00  0.00    +0.171 C 
ATOM     11  C   UNL     1      21.434   6.321  22.665  0.00  0.00    +0.171 C 
ATOM     12  C   UNL     1      20.087   8.246  23.088  0.00  0.00    +0.130 C 
ATOM     13  C   UNL     1      22.936   6.166  22.699  0.00  0.00    +0.130 C 
ATOM     14  C   UNL     1      20.293   7.453  24.367  0.00  0.00    +0.185 C 
ATOM     15  C   UNL     1      23.408   7.572  23.026  0.00  0.00    +0.185 C 
ENDROOT
BRANCH  13   5
ATOM      5  N   UNL     1      23.422   5.766  21.397  0.00  0.00    -0.306 N 
ATOM      6  N   UNL     1      23.943   3.601  22.135  0.00  0.00    -0.214 NA
ATOM      7  N   UNL     1      24.340   4.258  19.851  0.00  0.00    -0.223 NA
ATOM     17  C   UNL     1      23.917   4.504  21.120  0.00  0.00    +0.216 A 
ATOM     19  C   UNL     1      24.432   2.380  21.830  0.00  0.00    +0.076 A 
ATOM     22  C   UNL     1      24.817   3.018  19.616  0.00  0.00    +0.116 A 
ATOM     23  C   UNL     1      24.887   2.029  20.576  0.00  0.00    +0.048 A 
ATOM     38  H   UNL     1      23.358   6.414  20.620  0.00  0.00    +0.149 HD
BRANCH  19  26
ATOM     26  C   UNL     1      24.451   1.438  22.922  0.00  0.00    +0.001 A 
ATOM     28  C   UNL     1      25.504   0.528  23.045  0.00  0.00    +0.012 A 
ATOM     29  C   UNL     1      23.417   1.434  23.862  0.00  0.00    +0.012 A 
ATOM     30  C   UNL     1      25.522  -0.381  24.103  0.00  0.00    +0.024 A 
ATOM     31  C   UNL     1      23.437   0.524  24.920  0.00  0.00    +0.024 A 
ATOM     32  C   UNL     1      24.489  -0.383  25.041  0.00  0.00    +0.029 A 
BRANCH  32   9
ATOM      9  N   UNL     1      24.508  -1.303  26.109  0.00  0.00    -0.336 N 
ATOM     35  C   UNL     1      23.649  -2.470  26.088  0.00  0.00    +0.129 C 
ATOM     36  C   UNL     1      25.396  -1.100  27.236  0.00  0.00    +0.129 C 
ENDBRANCH  32   9
ENDBRANCH  19  26
ENDBRANCH  13   5
BRANCH  12   4
ATOM      3  O   UNL     1      18.731   9.798  21.088  0.00  0.00    -0.270 OA
ATOM      4  N   UNL     1      18.804   7.955  22.494  0.00  0.00    -0.304 N 
ATOM     16  C   UNL     1      18.227   8.769  21.529  0.00  0.00    +0.244 C 
ATOM     37  H   UNL     1      18.279   7.184  22.894  0.00  0.00    +0.149 HD
BRANCH  16  18
ATOM     18  C   UNL     1      16.891   8.345  21.036  0.00  0.00    +0.037 A 
ATOM     20  C   UNL     1      15.968   9.313  20.700  0.00  0.00    +0.015 A 
ATOM     21  C   UNL     1      16.617   6.997  20.929  0.00  0.00    +0.015 A 
ATOM     24  C   UNL     1      14.714   8.914  20.235  0.00  0.00    +0.024 A 
ATOM     25  C   UNL     1      15.364   6.600  20.465  0.00  0.00    +0.024 A 
ATOM     27  C   UNL     1      14.412   7.558  20.118  0.00  0.00    +0.029 A 
BRANCH  27   8
ATOM      8  N   UNL     1      13.145   7.156  19.647  0.00  0.00    -0.336 N 
ATOM     33  C   UNL     1      12.174   6.578  20.554  0.00  0.00    +0.129 C 
ATOM     34  C   UNL     1      12.793   7.328  18.252  0.00  0.00    +0.129 C 
ENDBRANCH  27   8
ENDBRANCH  16  18
ENDBRANCH  12   4
TORSDOF 6
ENDMDL
MODEL 5
REMARK VINA RESULT:      -6.7      4.749     11.116
REMARK  Name = 11911724
REMARK  10 active torsions:
REMARK  status: ('A' for Active; 'I' for Inactive)
REMARK    1  A    between atoms: N_4  and  C_12
REMARK    2  A    between atoms: N_5  and  C_13
REMARK    3  A    between atoms: N_8  and  C_27
REMARK    4  A    between atoms: N_8  and  C_33
REMARK    5  A    between atoms: N_8  and  C_34
REMARK    6  A    between atoms: N_9  and  C_32
REMARK    7  A    between atoms: N_9  and  C_35
REMARK    8  A    between atoms: N_9  and  C_36
REMARK    9  A    between atoms: C_16  and  C_18
REMARK   10  A    between atoms: C_19  and  C_26
REMARK                            x       y       z     vdW  Elec       q    Type
REMARK                         _______ _______ _______ _____ _____    ______ ____
ROOT
ATOM      1  O   UNL     1      -6.580 -12.830  17.257  0.00  0.00    -0.370 OA
ATOM      2  O   UNL     1      -5.169 -11.500  19.702  0.00  0.00    -0.370 OA
ATOM     10  C   UNL     1      -6.016 -10.992  18.657  0.00  0.00    +0.171 C 
ATOM     11  C   UNL     1      -5.658 -11.734  17.385  0.00  0.00    +0.171 C 
ATOM     12  C   UNL     1      -7.455 -11.375  18.915  0.00  0.00    +0.130 C 
ATOM     13  C   UNL     1      -4.262 -12.252  17.639  0.00  0.00    +0.130 C 
ATOM     14  C   UNL     1      -7.528 -12.776  18.334  0.00  0.00    +0.185 C 
ATOM     15  C   UNL     1      -4.249 -12.449  19.144  0.00  0.00    +0.185 C 
ENDROOT
BRANCH  13   5
ATOM      5  N   UNL     1      -3.287 -11.253  17.257  0.00  0.00    -0.306 N 
ATOM      6  N   UNL     1      -3.267 -11.969  15.023  0.00  0.00    -0.214 NA
ATOM      7  N   UNL     1      -1.886 -10.131  15.746  0.00  0.00    -0.223 NA
ATOM     17  C   UNL     1      -2.799 -11.114  15.970  0.00  0.00    +0.216 A 
ATOM     19  C   UNL     1      -2.769 -11.805  13.779  0.00  0.00    +0.076 A 
ATOM     22  C   UNL     1      -1.430 -10.024  14.480  0.00  0.00    +0.116 A 
ATOM     23  C   UNL     1      -1.840 -10.841  13.446  0.00  0.00    +0.048 A 
ATOM     38  H   UNL     1      -2.971 -10.577  17.943  0.00  0.00    +0.149 HD
BRANCH  19  26
ATOM     26  C   UNL     1      -3.280 -12.723  12.789  0.00  0.00    +0.001 A 
ATOM     28  C   UNL     1      -3.677 -14.009  13.164  0.00  0.00    +0.012 A 
ATOM     29  C   UNL     1      -3.382 -12.328  11.453  0.00  0.00    +0.012 A 
ATOM     30  C   UNL     1      -4.173 -14.894  12.208  0.00  0.00    +0.024 A 
ATOM     31  C   UNL     1      -3.879 -13.214  10.497  0.00  0.00    +0.024 A 
ATOM     32  C   UNL     1      -4.274 -14.498  10.874  0.00  0.00    +0.029 A 
BRANCH  32   9
ATOM      9  N   UNL     1      -4.774 -15.393   9.907  0.00  0.00    -0.336 N 
ATOM     35  C   UNL     1      -3.881 -16.014   8.949  0.00  0.00    +0.129 C 
ATOM     36  C   UNL     1      -6.187 -15.715   9.867  0.00  0.00    +0.129 C 
ENDBRANCH  32   9
ENDBRANCH  19  26
ENDBRANCH  13   5
BRANCH  12   4
ATOM      3  O   UNL     1     -10.055 -10.559  19.822  0.00  0.00    -0.270 OA
ATOM      4  N   UNL     1      -8.363 -10.481  18.238  0.00  0.00    -0.304 N 
ATOM     16  C   UNL     1      -9.605 -10.144  18.757  0.00  0.00    +0.244 C 
ATOM     37  H   UNL     1      -8.106 -10.191  17.299  0.00  0.00    +0.149 HD
BRANCH  16  18
ATOM     18  C   UNL     1     -10.432  -9.232  17.926  0.00  0.00    +0.037 A 
ATOM     20  C   UNL     1     -11.761  -9.538  17.724  0.00  0.00    +0.015 A 
ATOM     21  C   UNL     1      -9.844  -8.108  17.383  0.00  0.00    +0.015 A 
ATOM     24  C   UNL     1     -12.538  -8.680  16.944  0.00  0.00    +0.024 A 
ATOM     25  C   UNL     1     -10.621  -7.252  16.603  0.00  0.00    +0.024 A 
ATOM     27  C   UNL     1     -11.968  -7.538  16.384  0.00  0.00    +0.029 A 
BRANCH  27   8
ATOM      8  N   UNL     1     -12.754  -6.671  15.597  0.00  0.00    -0.336 N 
ATOM     33  C   UNL     1     -12.127  -5.698  14.725  0.00  0.00    +0.129 C 
ATOM     34  C   UNL     1     -14.201  -6.751  15.640  0.00  0.00    +0.129 C 
ENDBRANCH  27   8
ENDBRANCH  16  18
ENDBRANCH  12   4
TORSDOF 6
ENDMDL
MODEL 6
REMARK VINA RESULT:      -6.7      2.312     11.806
REMARK  Name = 11911724
REMARK  10 active torsions:
REMARK  status: ('A' for Active; 'I' for Inactive)
REMARK    1  A    between atoms: N_4  and  C_12
REMARK    2  A    between atoms: N_5  and  C_13
REMARK    3  A    between atoms: N_8  and  C_27
REMARK    4  A    between atoms: N_8  and  C_33
REMARK    5  A    between atoms: N_8  and  C_34
REMARK    6  A    between atoms: N_9  and  C_32
REMARK    7  A    between atoms: N_9  and  C_35
REMARK    8  A    between atoms: N_9  and  C_36
REMARK    9  A    between atoms: C_16  and  C_18
REMARK   10  A    between atoms: C_19  and  C_26
REMARK                            x       y       z     vdW  Elec       q    Type
REMARK                         _______ _______ _______ _____ _____    ______ ____
ROOT
ATOM      1  O   UNL     1      -3.240 -12.974  13.060  0.00  0.00    -0.370 OA
ATOM      2  O   UNL     1      -2.109 -10.089  13.426  0.00  0.00    -0.370 OA
ATOM     10  C   UNL     1      -3.276 -10.761  13.930  0.00  0.00    +0.171 C 
ATOM     11  C   UNL     1      -3.787 -11.666  12.826  0.00  0.00    +0.171 C 
ATOM     12  C   UNL     1      -2.897 -11.713  15.041  0.00  0.00    +0.130 C 
ATOM     13  C   UNL     1      -3.207 -11.073  11.563  0.00  0.00    +0.130 C 
ATOM     14  C   UNL     1      -2.475 -12.954  14.275  0.00  0.00    +0.185 C 
ATOM     15  C   UNL     1      -1.911 -10.453  12.053  0.00  0.00    +0.185 C 
ENDROOT
BRANCH  13   5
ATOM      5  N   UNL     1      -4.088 -10.049  11.047  0.00  0.00    -0.306 N 
ATOM      6  N   UNL     1      -4.213 -11.066   8.937  0.00  0.00    -0.214 NA
ATOM      7  N   UNL     1      -5.406  -9.023   9.398  0.00  0.00    -0.223 NA
ATOM     17  C   UNL     1      -4.583 -10.046   9.755  0.00  0.00    +0.216 A 
ATOM     19  C   UNL     1      -4.714 -11.031   7.683  0.00  0.00    +0.076 A 
ATOM     22  C   UNL     1      -5.870  -9.052   8.131  0.00  0.00    +0.116 A 
ATOM     23  C   UNL     1      -5.555 -10.040   7.222  0.00  0.00    +0.048 A 
ATOM     38  H   UNL     1      -4.413  -9.313  11.664  0.00  0.00    +0.149 HD
BRANCH  19  26
ATOM     26  C   UNL     1      -4.308 -12.123   6.831  0.00  0.00    +0.001 A 
ATOM     28  C   UNL     1      -3.955 -13.354   7.390  0.00  0.00    +0.012 A 
ATOM     29  C   UNL     1      -4.269 -11.953   5.446  0.00  0.00    +0.012 A 
ATOM     30  C   UNL     1      -3.565 -14.410   6.566  0.00  0.00    +0.024 A 
ATOM     31  C   UNL     1      -3.879 -13.010   4.622  0.00  0.00    +0.024 A 
ATOM     32  C   UNL     1      -3.527 -14.238   5.181  0.00  0.00    +0.029 A 
BRANCH  32   9
ATOM      9  N   UNL     1      -3.132 -15.305   4.349  0.00  0.00    -0.336 N 
ATOM     35  C   UNL     1      -2.935 -16.631   4.899  0.00  0.00    +0.129 C 
ATOM     36  C   UNL     1      -2.929 -15.092   2.930  0.00  0.00    +0.129 C 
ENDBRANCH  32   9
ENDBRANCH  19  26
ENDBRANCH  13   5
BRANCH  12   4
ATOM      3  O   UNL     1      -4.102  -9.903  16.917  0.00  0.00    -0.270 OA
ATOM      4  N   UNL     1      -4.022 -11.987  15.901  0.00  0.00    -0.304 N 
ATOM     16  C   UNL     1      -4.537 -11.044  16.780  0.00  0.00    +0.244 C 
ATOM     37  H   UNL     1      -4.359 -12.944  15.924  0.00  0.00    +0.149 HD
BRANCH  16  18
ATOM     18  C   UNL     1      -5.682 -11.490  17.615  0.00  0.00    +0.037 A 
ATOM     20  C   UNL     1      -6.762 -12.086  16.999  0.00  0.00    +0.015 A 
ATOM     21  C   UNL     1      -5.627 -11.296  18.980  0.00  0.00    +0.015 A 
ATOM     24  C   UNL     1      -7.836 -12.507  17.783  0.00  0.00    +0.024 A 
ATOM     25  C   UNL     1      -6.701 -11.717  19.763  0.00  0.00    +0.024 A 
ATOM     27  C   UNL     1      -7.806 -12.322  19.165  0.00  0.00    +0.029 A 
BRANCH  27   8
ATOM      8  N   UNL     1      -8.892 -12.748  19.958  0.00  0.00    -0.336 N 
ATOM     33  C   UNL     1     -10.070 -11.917  20.098  0.00  0.00    +0.129 C 
ATOM     34  C   UNL     1      -8.848 -14.031  20.633  0.00  0.00    +0.129 C 
ENDBRANCH  27   8
ENDBRANCH  16  18
ENDBRANCH  12   4
TORSDOF 6
ENDMDL
MODEL 7
REMARK VINA RESULT:      -6.7     22.095     24.821
REMARK  Name = 11911724
REMARK  10 active torsions:
REMARK  status: ('A' for Active; 'I' for Inactive)
REMARK    1  A    between atoms: N_4  and  C_12
REMARK    2  A    between atoms: N_5  and  C_13
REMARK    3  A    between atoms: N_8  and  C_27
REMARK    4  A    between atoms: N_8  and  C_33
REMARK    5  A    between atoms: N_8  and  C_34
REMARK    6  A    between atoms: N_9  and  C_32
REMARK    7  A    between atoms: N_9  and  C_35
REMARK    8  A    between atoms: N_9  and  C_36
REMARK    9  A    between atoms: C_16  and  C_18
REMARK   10  A    between atoms: C_19  and  C_26
REMARK                            x       y       z     vdW  Elec       q    Type
REMARK                         _______ _______ _______ _____ _____    ______ ____
ROOT
ATOM      1  O   UNL     1       6.732   7.083  -2.534  0.00  0.00    -0.370 OA
ATOM      2  O   UNL     1       8.424   7.628  -5.098  0.00  0.00    -0.370 OA
ATOM     10  C   UNL     1       7.523   6.574  -4.718  0.00  0.00    +0.171 C 
ATOM     11  C   UNL     1       7.726   6.319  -3.237  0.00  0.00    +0.171 C 
ATOM     12  C   UNL     1       6.091   7.044  -4.818  0.00  0.00    +0.130 C 
ATOM     13  C   UNL     1       9.105   6.867  -2.953  0.00  0.00    +0.130 C 
ATOM     14  C   UNL     1       5.884   7.742  -3.485  0.00  0.00    +0.185 C 
ATOM     15  C   UNL     1       9.234   7.987  -3.969  0.00  0.00    +0.185 C 
ENDROOT
BRANCH  13   5
ATOM      5  N   UNL     1      10.103   5.849  -3.201  0.00  0.00    -0.306 N 
ATOM      6  N   UNL     1      10.429   5.454  -0.912  0.00  0.00    -0.214 NA
ATOM      7  N   UNL     1      11.669   4.220  -2.570  0.00  0.00    -0.223 NA
ATOM     17  C   UNL     1      10.753   5.154  -2.198  0.00  0.00    +0.216 A 
ATOM     19  C   UNL     1      11.083   4.757   0.042  0.00  0.00    +0.076 A 
ATOM     22  C   UNL     1      12.284   3.562  -1.565  0.00  0.00    +0.116 A 
ATOM     23  C   UNL     1      12.029   3.791  -0.229  0.00  0.00    +0.048 A 
ATOM     38  H   UNL     1      10.314   5.580  -4.156  0.00  0.00    +0.149 HD
BRANCH  19  26
ATOM     26  C   UNL     1      10.723   5.092   1.399  0.00  0.00    +0.001 A 
ATOM     28  C   UNL     1      11.026   4.212   2.441  0.00  0.00    +0.012 A 
ATOM     29  C   UNL     1      10.075   6.298   1.675  0.00  0.00    +0.012 A 
ATOM     30  C   UNL     1      10.680   4.538   3.753  0.00  0.00    +0.024 A 
ATOM     31  C   UNL     1       9.730   6.622   2.987  0.00  0.00    +0.024 A 
ATOM     32  C   UNL     1      10.032   5.743   4.026  0.00  0.00    +0.029 A 
BRANCH  32   9
ATOM      9  N   UNL     1       9.683   6.071   5.352  0.00  0.00    -0.336 N 
ATOM     35  C   UNL     1       8.308   6.380   5.694  0.00  0.00    +0.129 C 
ATOM     36  C   UNL     1      10.690   6.091   6.393  0.00  0.00    +0.129 C 
ENDBRANCH  32   9
ENDBRANCH  19  26
ENDBRANCH  13   5
BRANCH  12   4
ATOM      3  O   UNL     1       3.315   7.181  -5.541  0.00  0.00    -0.270 OA
ATOM      4  N   UNL     1       5.185   5.932  -4.971  0.00  0.00    -0.304 N 
ATOM     16  C   UNL     1       3.853   6.098  -5.325  0.00  0.00    +0.244 C 
ATOM     37  H   UNL     1       5.531   5.018  -4.696  0.00  0.00    +0.149 HD
BRANCH  16  18
ATOM     18  C   UNL     1       3.046   4.854  -5.416  0.00  0.00    +0.037 A 
ATOM     20  C   UNL     1       2.003   4.672  -4.533  0.00  0.00    +0.015 A 
ATOM     21  C   UNL     1       3.364   3.922  -6.382  0.00  0.00    +0.015 A 
ATOM     24  C   UNL     1       1.243   3.505  -4.619  0.00  0.00    +0.024 A 
ATOM     25  C   UNL     1       2.604   2.755  -6.468  0.00  0.00    +0.024 A 
ATOM     27  C   UNL     1       1.544   2.547  -5.586  0.00  0.00    +0.029 A 
BRANCH  27   8
ATOM      8  N   UNL     1       0.775   1.368  -5.674  0.00  0.00    -0.336 N 
ATOM     33  C   UNL     1      -0.360   1.296  -6.571  0.00  0.00    +0.129 C 
ATOM     34  C   UNL     1       1.119   0.206  -4.877  0.00  0.00    +0.129 C 
ENDBRANCH  27   8
ENDBRANCH  16  18
ENDBRANCH  12   4
TORSDOF 6
ENDMDL
MODEL 8
REMARK VINA RESULT:      -6.6      6.124     14.211
REMARK  Name = 11911724
REMARK  10 active torsions:
REMARK  status: ('A' for Active; 'I' for Inactive)
REMARK    1  A    between atoms: N_4  and  C_12
REMARK    2  A    between atoms: N_5  and  C_13
REMARK    3  A    between atoms: N_8  and  C_27
REMARK    4  A    between atoms: N_8  and  C_33
REMARK    5  A    between atoms: N_8  and  C_34
REMARK    6  A    between atoms: N_9  and  C_32
REMARK    7  A    between atoms: N_9  and  C_35
REMARK    8  A    between atoms: N_9  and  C_36
REMARK    9  A    between atoms: C_16  and  C_18
REMARK   10  A    between atoms: C_19  and  C_26
REMARK                            x       y       z     vdW  Elec       q    Type
REMARK                         _______ _______ _______ _____ _____    ______ ____
ROOT
ATOM      1  O   UNL     1     -11.564  -8.777  16.810  0.00  0.00    -0.370 OA
ATOM      2  O   UNL     1     -11.654 -11.750  17.753  0.00  0.00    -0.370 OA
ATOM     10  C   UNL     1     -12.062 -10.512  18.359  0.00  0.00    +0.171 C 
ATOM     11  C   UNL     1     -11.045  -9.459  17.964  0.00  0.00    +0.171 C 
ATOM     12  C   UNL     1     -13.353 -10.025  17.743  0.00  0.00    +0.130 C 
ATOM     13  C   UNL     1      -9.815 -10.255  17.593  0.00  0.00    +0.130 C 
ATOM     14  C   UNL     1     -12.867  -9.294  16.504  0.00  0.00    +0.185 C 
ATOM     15  C   UNL     1     -10.403 -11.555  17.077  0.00  0.00    +0.185 C 
ENDROOT
BRANCH  13   5
ATOM      5  N   UNL     1      -9.011 -10.501  18.770  0.00  0.00    -0.306 N 
ATOM      6  N   UNL     1      -7.024 -10.599  17.528  0.00  0.00    -0.214 NA
ATOM      7  N   UNL     1      -7.003 -10.893  19.920  0.00  0.00    -0.223 NA
ATOM     17  C   UNL     1      -7.639 -10.669  18.738  0.00  0.00    +0.216 A 
ATOM     19  C   UNL     1      -5.684 -10.768  17.533  0.00  0.00    +0.076 A 
ATOM     22  C   UNL     1      -5.665 -11.054  19.851  0.00  0.00    +0.116 A 
ATOM     23  C   UNL     1      -4.946 -11.000  18.675  0.00  0.00    +0.048 A 
ATOM     38  H   UNL     1      -9.452 -10.503  19.683  0.00  0.00    +0.149 HD
BRANCH  19  26
ATOM     26  C   UNL     1      -5.052 -10.689  16.238  0.00  0.00    +0.001 A 
ATOM     28  C   UNL     1      -3.683 -10.935  16.110  0.00  0.00    +0.012 A 
ATOM     29  C   UNL     1      -5.808 -10.368  15.108  0.00  0.00    +0.012 A 
ATOM     30  C   UNL     1      -3.074 -10.861  14.858  0.00  0.00    +0.024 A 
ATOM     31  C   UNL     1      -5.197 -10.295  13.855  0.00  0.00    +0.024 A 
ATOM     32  C   UNL     1      -3.830 -10.541  13.730  0.00  0.00    +0.029 A 
BRANCH  32   9
ATOM      9  N   UNL     1      -3.214 -10.465  12.465  0.00  0.00    -0.336 N 
ATOM     35  C   UNL     1      -3.948  -9.968  11.318  0.00  0.00    +0.129 C 
ATOM     36  C   UNL     1      -1.833 -10.870  12.296  0.00  0.00    +0.129 C 
ENDBRANCH  32   9
ENDBRANCH  19  26
ENDBRANCH  13   5
BRANCH  12   4
ATOM      3  O   UNL     1     -16.184  -9.955  18.223  0.00  0.00    -0.270 OA
ATOM      4  N   UNL     1     -14.054  -9.133  18.634  0.00  0.00    -0.304 N 
ATOM     16  C   UNL     1     -15.432  -9.175  18.801  0.00  0.00    +0.244 C 
ATOM     37  H   UNL     1     -13.511  -8.387  19.057  0.00  0.00    +0.149 HD
BRANCH  16  18
ATOM     18  C   UNL     1     -16.004  -8.172  19.736  0.00  0.00    +0.037 A 
ATOM     20  C   UNL     1     -15.723  -8.282  21.082  0.00  0.00    +0.015 A 
ATOM     21  C   UNL     1     -16.797  -7.164  19.229  0.00  0.00    +0.015 A 
ATOM     24  C   UNL     1     -16.259  -7.340  21.960  0.00  0.00    +0.024 A 
ATOM     25  C   UNL     1     -17.332  -6.222  20.107  0.00  0.00    +0.024 A 
ATOM     27  C   UNL     1     -17.064  -6.311  21.473  0.00  0.00    +0.029 A 
BRANCH  27   8
ATOM      8  N   UNL     1     -17.605  -5.358  22.361  0.00  0.00    -0.336 N 
ATOM     33  C   UNL     1     -18.701  -5.711  23.240  0.00  0.00    +0.129 C 
ATOM     34  C   UNL     1     -17.061  -4.014  22.415  0.00  0.00    +0.129 C 
ENDBRANCH  27   8
ENDBRANCH  16  18
ENDBRANCH  12   4
TORSDOF 6
ENDMDL
MODEL 9
REMARK VINA RESULT:      -6.6     22.702     26.643
REMARK  Name = 11911724
REMARK  10 active torsions:
REMARK  status: ('A' for Active; 'I' for Inactive)
REMARK    1  A    between atoms: N_4  and  C_12
REMARK    2  A    between atoms: N_5  and  C_13
REMARK    3  A    between atoms: N_8  and  C_27
REMARK    4  A    between atoms: N_8  and  C_33
REMARK    5  A    between atoms: N_8  and  C_34
REMARK    6  A    between atoms: N_9  and  C_32
REMARK    7  A    between atoms: N_9  and  C_35
REMARK    8  A    between atoms: N_9  and  C_36
REMARK    9  A    between atoms: C_16  and  C_18
REMARK   10  A    between atoms: C_19  and  C_26
REMARK                            x       y       z     vdW  Elec       q    Type
REMARK                         _______ _______ _______ _____ _____    ______ ____
ROOT
ATOM      1  O   UNL     1     -17.110   5.776  24.469  0.00  0.00    -0.370 OA
ATOM      2  O   UNL     1     -16.761   3.227  22.705  0.00  0.00    -0.370 OA
ATOM     10  C   UNL     1     -16.236   3.618  23.985  0.00  0.00    +0.171 C 
ATOM     11  C   UNL     1     -15.961   5.108  23.923  0.00  0.00    +0.171 C 
ATOM     12  C   UNL     1     -17.297   3.483  25.052  0.00  0.00    +0.130 C 
ATOM     13  C   UNL     1     -15.837   5.400  22.446  0.00  0.00    +0.130 C 
ATOM     14  C   UNL     1     -18.052   4.795  24.926  0.00  0.00    +0.185 C 
ATOM     15  C   UNL     1     -16.750   4.359  21.824  0.00  0.00    +0.185 C 
ENDROOT
BRANCH  13   5
ATOM      5  N   UNL     1     -14.473   5.193  22.013  0.00  0.00    -0.306 N 
ATOM      6  N   UNL     1     -14.111   7.487  21.687  0.00  0.00    -0.214 NA
ATOM      7  N   UNL     1     -12.363   5.886  21.254  0.00  0.00    -0.223 NA
ATOM     17  C   UNL     1     -13.624   6.219  21.640  0.00  0.00    +0.216 A 
ATOM     19  C   UNL     1     -13.256   8.465  21.317  0.00  0.00    +0.076 A 
ATOM     22  C   UNL     1     -11.563   6.912  20.897  0.00  0.00    +0.116 A 
ATOM     23  C   UNL     1     -11.959   8.234  20.909  0.00  0.00    +0.048 A 
ATOM     38  H   UNL     1     -14.083   4.257  22.024  0.00  0.00    +0.149 HD
BRANCH  19  26
ATOM     26  C   UNL     1     -13.794   9.803  21.374  0.00  0.00    +0.001 A 
ATOM     28  C   UNL     1     -15.177  10.002  21.407  0.00  0.00    +0.012 A 
ATOM     29  C   UNL     1     -12.934  10.903  21.400  0.00  0.00    +0.012 A 
ATOM     30  C   UNL     1     -15.696  11.295  21.466  0.00  0.00    +0.024 A 
ATOM     31  C   UNL     1     -13.455  12.197  21.458  0.00  0.00    +0.024 A 
ATOM     32  C   UNL     1     -14.835  12.393  21.491  0.00  0.00    +0.029 A 
BRANCH  32   9
ATOM      9  N   UNL     1     -15.360  13.700  21.549  0.00  0.00    -0.336 N 
ATOM     35  C   UNL     1     -14.539  14.801  22.011  0.00  0.00    +0.129 C 
ATOM     36  C   UNL     1     -16.724  13.962  21.135  0.00  0.00    +0.129 C 
ENDBRANCH  32   9
ENDBRANCH  19  26
ENDBRANCH  13   5
BRANCH  12   4
ATOM      3  O   UNL     1     -16.878   1.034  26.492  0.00  0.00    -0.270 OA
ATOM      4  N   UNL     1     -16.707   3.344  26.361  0.00  0.00    -0.304 N 
ATOM     16  C   UNL     1     -16.546   2.112  26.979  0.00  0.00    +0.244 C 
ATOM     37  H   UNL     1     -16.515   4.200  26.871  0.00  0.00    +0.149 HD
BRANCH  16  18
ATOM     18  C   UNL     1     -15.945   2.140  28.338  0.00  0.00    +0.037 A 
ATOM     20  C   UNL     1     -15.974   0.992  29.102  0.00  0.00    +0.015 A 
ATOM     21  C   UNL     1     -15.376   3.313  28.791  0.00  0.00    +0.015 A 
ATOM     24  C   UNL     1     -15.408   1.018  30.377  0.00  0.00    +0.024 A 
ATOM     25  C   UNL     1     -14.811   3.338  30.066  0.00  0.00    +0.024 A 
ATOM     27  C   UNL     1     -14.828   2.191  30.859  0.00  0.00    +0.029 A 
BRANCH  27   8
ATOM      8  N   UNL     1     -14.255   2.216  32.147  0.00  0.00    -0.336 N 
ATOM     33  C   UNL     1     -13.222   3.179  32.473  0.00  0.00    +0.129 C 
ATOM     34  C   UNL     1     -14.702   1.288  33.167  0.00  0.00    +0.129 C 
ENDBRANCH  27   8
ENDBRANCH  16  18
ENDBRANCH  12   4
TORSDOF 6
ENDMDL
MODEL 10
REMARK VINA RESULT:      -6.6      1.830     12.204
REMARK  Name = 11911724
REMARK  10 active torsions:
REMARK  status: ('A' for Active; 'I' for Inactive)
REMARK    1  A    between atoms: N_4  and  C_12
REMARK    2  A    between atoms: N_5  and  C_13
REMARK    3  A    between atoms: N_8  and  C_27
REMARK    4  A    between atoms: N_8  and  C_33
REMARK    5  A    between atoms: N_8  and  C_34
REMARK    6  A    between atoms: N_9  and  C_32
REMARK    7  A    between atoms: N_9  and  C_35
REMARK    8  A    between atoms: N_9  and  C_36
REMARK    9  A    between atoms: C_16  and  C_18
REMARK   10  A    between atoms: C_19  and  C_26
REMARK                            x       y       z     vdW  Elec       q    Type
REMARK                         _______ _______ _______ _____ _____    ______ ____
ROOT
ATOM      1  O   UNL     1      -3.950 -12.566  12.095  0.00  0.00    -0.370 OA
ATOM      2  O   UNL     1      -3.462  -9.548  11.468  0.00  0.00    -0.370 OA
ATOM     10  C   UNL     1      -4.431 -10.243  12.271  0.00  0.00    +0.171 C 
ATOM     11  C   UNL     1      -4.780 -11.528  11.546  0.00  0.00    +0.171 C 
ATOM     12  C   UNL     1      -3.805 -10.709  13.566  0.00  0.00    +0.130 C 
ATOM     13  C   UNL     1      -4.398 -11.257  10.109  0.00  0.00    +0.130 C 
ATOM     14  C   UNL     1      -3.156 -12.020  13.159  0.00  0.00    +0.185 C 
ATOM     15  C   UNL     1      -3.249 -10.276  10.250  0.00  0.00    +0.185 C 
ENDROOT
BRANCH  13   5
ATOM      5  N   UNL     1      -5.504 -10.637   9.412  0.00  0.00    -0.306 N 
ATOM      6  N   UNL     1      -4.764 -11.408   7.325  0.00  0.00    -0.214 NA
ATOM      7  N   UNL     1      -6.768 -10.085   7.515  0.00  0.00    -0.223 NA
ATOM     17  C   UNL     1      -5.683 -10.712   8.043  0.00  0.00    +0.216 A 
ATOM     19  C   UNL     1      -4.970 -11.461   5.991  0.00  0.00    +0.076 A 
ATOM     22  C   UNL     1      -6.912 -10.178   6.176  0.00  0.00    +0.116 A 
ATOM     23  C   UNL     1      -6.036 -10.860   5.357  0.00  0.00    +0.048 A 
ATOM     38  H   UNL     1      -6.224 -10.160   9.944  0.00  0.00    +0.149 HD
BRANCH  19  26
ATOM     26  C   UNL     1      -3.981 -12.206   5.248  0.00  0.00    +0.001 A 
ATOM     28  C   UNL     1      -3.979 -12.168   3.852  0.00  0.00    +0.012 A 
ATOM     29  C   UNL     1      -3.022 -12.964   5.923  0.00  0.00    +0.012 A 
ATOM     30  C   UNL     1      -3.022 -12.885   3.134  0.00  0.00    +0.024 A 
ATOM     31  C   UNL     1      -2.065 -13.682   5.204  0.00  0.00    +0.024 A 
ATOM     32  C   UNL     1      -2.065 -13.643   3.810  0.00  0.00    +0.029 A 
BRANCH  32   9
ATOM      9  N   UNL     1      -1.098 -14.368   3.085  0.00  0.00    -0.336 N 
ATOM     35  C   UNL     1      -1.276 -14.615   1.668  0.00  0.00    +0.129 C 
ATOM     36  C   UNL     1       0.092 -14.867   3.744  0.00  0.00    +0.129 C 
ENDBRANCH  32   9
ENDBRANCH  19  26
ENDBRANCH  13   5
BRANCH  12   4
ATOM      3  O   UNL     1      -3.437 -10.462  16.403  0.00  0.00    -0.270 OA
ATOM      4  N   UNL     1      -4.805 -10.915  14.585  0.00  0.00    -0.304 N 
ATOM     16  C   UNL     1      -4.531 -10.771  15.938  0.00  0.00    +0.244 C 
ATOM     37  H   UNL     1      -5.700 -11.285  14.281  0.00  0.00    +0.149 HD
BRANCH  16  18
ATOM     18  C   UNL     1      -5.662 -11.044  16.863  0.00  0.00    +0.037 A 
ATOM     20  C   UNL     1      -6.654 -10.096  16.997  0.00  0.00    +0.015 A 
ATOM     21  C   UNL     1      -5.684 -12.236  17.556  0.00  0.00    +0.015 A 
ATOM     24  C   UNL     1      -7.717 -10.352  17.864  0.00  0.00    +0.024 A 
ATOM     25  C   UNL     1      -6.746 -12.491  18.423  0.00  0.00    +0.024 A 
ATOM     27  C   UNL     1      -7.763 -11.549  18.577  0.00  0.00    +0.029 A 
BRANCH  27   8
ATOM      8  N   UNL     1      -8.838 -11.808  19.452  0.00  0.00    -0.336 N 
ATOM     33  C   UNL     1      -9.027 -13.131  20.012  0.00  0.00    +0.129 C 
ATOM     34  C   UNL     1      -9.762 -10.750  19.813  0.00  0.00    +0.129 C 
ENDBRANCH  27   8
ENDBRANCH  16  18
ENDBRANCH  12   4
TORSDOF 6
ENDMDL
