MODEL 1
REMARK VINA RESULT:      -5.9      0.000      0.000
REMARK  Name = 75367142
REMARK  5 active torsions:
REMARK  status: ('A' for Active; 'I' for Inactive)
REMARK    1  A    between atoms: O_3  and  C_16
REMARK    2  A    between atoms: N_4  and  C_6
REMARK    3  A    between atoms: C_6  and  C_9
REMARK    4  A    between atoms: C_9  and  C_10
REMARK    5  A    between atoms: C_12  and  C_13
REMARK                            x       y       z     vdW  Elec       q    Type
REMARK                         _______ _______ _______ _____ _____    ______ ____
ROOT
ATOM      2  O   UNL     1     -13.996   7.333  19.532  0.00  0.00    -0.354 OA
ATOM      5  N   UNL     1     -14.861   6.814  20.487  0.00  0.00    -0.083 NA
ATOM     10  C   UNL     1     -14.197   6.908  21.643  0.00  0.00    +0.086 A 
ATOM     11  C   UNL     1     -12.920   7.473  21.479  0.00  0.00    +0.076 A 
ATOM     12  C   UNL     1     -12.844   7.722  20.134  0.00  0.00    +0.168 A 
ENDROOT
BRANCH  12  13
ATOM     13  C   UNL     1     -11.848   8.283  19.269  0.00  0.00    +0.023 A 
ATOM     14  C   UNL     1     -11.501   7.631  18.086  0.00  0.00    +0.057 A 
ATOM     15  C   UNL     1     -11.224   9.483  19.612  0.00  0.00    +0.012 A 
ATOM     16  C   UNL     1     -10.531   8.177  17.246  0.00  0.00    +0.118 A 
ATOM     17  C   UNL     1     -10.253  10.029  18.771  0.00  0.00    +0.004 A 
ATOM     18  C   UNL     1      -9.907   9.376  17.588  0.00  0.00    +0.045 A 
BRANCH  16   3
ATOM      3  O   UNL     1     -10.193   7.539  16.092  0.00  0.00    -0.507 OA
ATOM     21  H   UNL     1     -10.035   8.203  15.399  0.00  0.00    +0.292 HD
ENDBRANCH  16   3
ENDBRANCH  12  13
BRANCH  10   9
ATOM      9  C   UNL     1     -14.839   6.430  22.925  0.00  0.00    +0.085 C 
BRANCH   9   6
ATOM      1  O   UNL     1     -16.368   3.479  23.721  0.00  0.00    -0.376 OA
ATOM      6  C   UNL     1     -15.050   4.938  22.884  0.00  0.00    +0.069 C 
ATOM      7  C   UNL     1     -15.177   4.159  24.199  0.00  0.00    +0.184 C 
ATOM      8  C   UNL     1     -16.454   4.391  22.594  0.00  0.00    +0.184 C 
BRANCH   6   4
ATOM      4  N   UNL     1     -14.095   4.242  22.018  0.00  0.00    -0.321 NA
ATOM     19  H   UNL     1     -13.140   4.242  22.376  0.00  0.00    +0.119 HD
ATOM     20  H   UNL     1     -14.037   4.604  21.067  0.00  0.00    +0.119 HD
ENDBRANCH   6   4
ENDBRANCH   9   6
ENDBRANCH  10   9
TORSDOF 5
ENDMDL
MODEL 2
REMARK VINA RESULT:      -5.7     26.024     29.358
REMARK  Name = 75367142
REMARK  5 active torsions:
REMARK  status: ('A' for Active; 'I' for Inactive)
REMARK    1  A    between atoms: O_3  and  C_16
REMARK    2  A    between atoms: N_4  and  C_6
REMARK    3  A    between atoms: C_6  and  C_9
REMARK    4  A    between atoms: C_9  and  C_10
REMARK    5  A    between atoms: C_12  and  C_13
REMARK                            x       y       z     vdW  Elec       q    Type
REMARK                         _______ _______ _______ _____ _____    ______ ____
ROOT
ATOM      2  O   UNL     1      11.847   6.215   3.717  0.00  0.00    -0.354 OA
ATOM      5  N   UNL     1      11.322   6.684   4.915  0.00  0.00    -0.083 NA
ATOM     10  C   UNL     1      10.287   5.882   5.177  0.00  0.00    +0.086 A 
ATOM     11  C   UNL     1      10.112   4.897   4.189  0.00  0.00    +0.076 A 
ATOM     12  C   UNL     1      11.118   5.151   3.295  0.00  0.00    +0.168 A 
ENDROOT
BRANCH  12  13
ATOM     13  C   UNL     1      11.545   4.554   2.063  0.00  0.00    +0.023 A 
ATOM     14  C   UNL     1      10.732   4.628   0.932  0.00  0.00    +0.057 A 
ATOM     15  C   UNL     1      12.773   3.897   1.996  0.00  0.00    +0.012 A 
ATOM     16  C   UNL     1      11.147   4.045  -0.265  0.00  0.00    +0.118 A 
ATOM     17  C   UNL     1      13.188   3.314   0.798  0.00  0.00    +0.004 A 
ATOM     18  C   UNL     1      12.375   3.388  -0.333  0.00  0.00    +0.045 A 
BRANCH  16   3
ATOM      3  O   UNL     1      10.352   4.117  -1.368  0.00  0.00    -0.507 OA
ATOM     21  H   UNL     1       9.522   4.564  -1.130  0.00  0.00    +0.292 HD
ENDBRANCH  16   3
ENDBRANCH  12  13
BRANCH  10   9
ATOM      9  C   UNL     1       9.461   6.096   6.425  0.00  0.00    +0.085 C 
BRANCH   9   6
ATOM      1  O   UNL     1       9.483   4.151   9.234  0.00  0.00    -0.376 OA
ATOM      6  C   UNL     1      10.086   5.387   7.599  0.00  0.00    +0.069 C 
ATOM      7  C   UNL     1       9.494   5.584   9.001  0.00  0.00    +0.184 C 
ATOM      8  C   UNL     1       9.764   3.904   7.831  0.00  0.00    +0.184 C 
BRANCH   6   4
ATOM      4  N   UNL     1      11.538   5.563   7.675  0.00  0.00    -0.321 NA
ATOM     19  H   UNL     1      11.873   6.419   7.234  0.00  0.00    +0.119 HD
ATOM     20  H   UNL     1      12.083   4.805   7.265  0.00  0.00    +0.119 HD
ENDBRANCH   6   4
ENDBRANCH   9   6
ENDBRANCH  10   9
TORSDOF 5
ENDMDL
MODEL 3
REMARK VINA RESULT:      -5.5      3.155      7.453
REMARK  Name = 75367142
REMARK  5 active torsions:
REMARK  status: ('A' for Active; 'I' for Inactive)
REMARK    1  A    between atoms: O_3  and  C_16
REMARK    2  A    between atoms: N_4  and  C_6
REMARK    3  A    between atoms: C_6  and  C_9
REMARK    4  A    between atoms: C_9  and  C_10
REMARK    5  A    between atoms: C_12  and  C_13
REMARK                            x       y       z     vdW  Elec       q    Type
REMARK                         _______ _______ _______ _____ _____    ______ ____
ROOT
ATOM      2  O   UNL     1     -11.214   7.326  18.453  0.00  0.00    -0.354 OA
ATOM      5  N   UNL     1     -10.456   8.218  17.704  0.00  0.00    -0.083 NA
ATOM     10  C   UNL     1     -10.643   9.406  18.287  0.00  0.00    +0.086 A 
ATOM     11  C   UNL     1     -11.502   9.325  19.397  0.00  0.00    +0.076 A 
ATOM     12  C   UNL     1     -11.832   7.997  19.458  0.00  0.00    +0.168 A 
ENDROOT
BRANCH  12  13
ATOM     13  C   UNL     1     -12.655   7.203  20.324  0.00  0.00    +0.023 A 
ATOM     14  C   UNL     1     -12.076   6.229  21.138  0.00  0.00    +0.057 A 
ATOM     15  C   UNL     1     -14.035   7.403  20.349  0.00  0.00    +0.012 A 
ATOM     16  C   UNL     1     -12.878   5.456  21.977  0.00  0.00    +0.118 A 
ATOM     17  C   UNL     1     -14.836   6.629  21.189  0.00  0.00    +0.004 A 
ATOM     18  C   UNL     1     -14.258   5.655  22.004  0.00  0.00    +0.045 A 
BRANCH  16   3
ATOM      3  O   UNL     1     -12.313   4.506  22.772  0.00  0.00    -0.507 OA
ATOM     21  H   UNL     1     -13.018   4.009  23.220  0.00  0.00    +0.292 HD
ENDBRANCH  16   3
ENDBRANCH  12  13
BRANCH  10   9
ATOM      9  C   UNL     1      -9.961  10.635  17.733  0.00  0.00    +0.085 C 
BRANCH   9   6
ATOM      1  O   UNL     1     -11.565  12.715  15.547  0.00  0.00    -0.376 OA
ATOM      6  C   UNL     1     -10.578  11.032  16.416  0.00  0.00    +0.069 C 
ATOM      7  C   UNL     1     -11.996  11.616  16.393  0.00  0.00    +0.184 C 
ATOM      8  C   UNL     1     -10.174  12.367  15.776  0.00  0.00    +0.184 C 
BRANCH   6   4
ATOM      4  N   UNL     1     -10.487   9.983  15.396  0.00  0.00    -0.321 NA
ATOM     19  H   UNL     1      -9.784  10.165  14.680  0.00  0.00    +0.119 HD
ATOM     20  H   UNL     1     -11.355   9.798  14.895  0.00  0.00    +0.119 HD
ENDBRANCH   6   4
ENDBRANCH   9   6
ENDBRANCH  10   9
TORSDOF 5
ENDMDL
MODEL 4
REMARK VINA RESULT:      -5.5     26.102     29.623
REMARK  Name = 75367142
REMARK  5 active torsions:
REMARK  status: ('A' for Active; 'I' for Inactive)
REMARK    1  A    between atoms: O_3  and  C_16
REMARK    2  A    between atoms: N_4  and  C_6
REMARK    3  A    between atoms: C_6  and  C_9
REMARK    4  A    between atoms: C_9  and  C_10
REMARK    5  A    between atoms: C_12  and  C_13
REMARK                            x       y       z     vdW  Elec       q    Type
REMARK                         _______ _______ _______ _____ _____    ______ ____
ROOT
ATOM      2  O   UNL     1       9.629   6.536   3.915  0.00  0.00    -0.354 OA
ATOM      5  N   UNL     1       9.920   6.264   2.583  0.00  0.00    -0.083 NA
ATOM     10  C   UNL     1      10.435   5.031   2.586  0.00  0.00    +0.086 A 
ATOM     11  C   UNL     1      10.494   4.481   3.879  0.00  0.00    +0.076 A 
ATOM     12  C   UNL     1       9.976   5.468   4.676  0.00  0.00    +0.168 A 
ENDROOT
BRANCH  12  13
ATOM     13  C   UNL     1       9.731   5.600   6.083  0.00  0.00    +0.023 A 
ATOM     14  C   UNL     1       9.976   4.527   6.939  0.00  0.00    +0.057 A 
ATOM     15  C   UNL     1       9.247   6.804   6.595  0.00  0.00    +0.012 A 
ATOM     16  C   UNL     1       9.736   4.657   8.307  0.00  0.00    +0.118 A 
ATOM     17  C   UNL     1       9.008   6.933   7.964  0.00  0.00    +0.004 A 
ATOM     18  C   UNL     1       9.252   5.860   8.820  0.00  0.00    +0.045 A 
BRANCH  16   3
ATOM      3  O   UNL     1       9.974   3.608   9.142  0.00  0.00    -0.507 OA
ATOM     21  H   UNL     1       9.130   3.172   9.349  0.00  0.00    +0.292 HD
ENDBRANCH  16   3
ENDBRANCH  12  13
BRANCH  10   9
ATOM      9  C   UNL     1      10.874   4.393   1.289  0.00  0.00    +0.085 C 
BRANCH   9   6
ATOM      1  O   UNL     1      13.997   3.405   0.316  0.00  0.00    -0.376 OA
ATOM      6  C   UNL     1      12.365   4.529   1.113  0.00  0.00    +0.069 C 
ATOM      7  C   UNL     1      13.286   3.396   1.582  0.00  0.00    +0.184 C 
ATOM      8  C   UNL     1      12.981   4.262  -0.267  0.00  0.00    +0.184 C 
BRANCH   6   4
ATOM      4  N   UNL     1      12.893   5.800   1.617  0.00  0.00    -0.321 NA
ATOM     19  H   UNL     1      13.811   5.720   2.055  0.00  0.00    +0.119 HD
ATOM     20  H   UNL     1      12.298   6.271   2.298  0.00  0.00    +0.119 HD
ENDBRANCH   6   4
ENDBRANCH   9   6
ENDBRANCH  10   9
TORSDOF 5
ENDMDL
MODEL 5
REMARK VINA RESULT:      -5.4     19.197     20.065
REMARK  Name = 75367142
REMARK  5 active torsions:
REMARK  status: ('A' for Active; 'I' for Inactive)
REMARK    1  A    between atoms: O_3  and  C_16
REMARK    2  A    between atoms: N_4  and  C_6
REMARK    3  A    between atoms: C_6  and  C_9
REMARK    4  A    between atoms: C_9  and  C_10
REMARK    5  A    between atoms: C_12  and  C_13
REMARK                            x       y       z     vdW  Elec       q    Type
REMARK                         _______ _______ _______ _____ _____    ______ ____
ROOT
ATOM      2  O   UNL     1      -4.401 -12.107  17.894  0.00  0.00    -0.354 OA
ATOM      5  N   UNL     1      -5.508 -12.473  18.649  0.00  0.00    -0.083 NA
ATOM     10  C   UNL     1      -6.564 -12.125  17.908  0.00  0.00    +0.086 A 
ATOM     11  C   UNL     1      -6.188 -11.541  16.686  0.00  0.00    +0.076 A 
ATOM     12  C   UNL     1      -4.819 -11.553  16.727  0.00  0.00    +0.168 A 
ENDROOT
BRANCH  12  13
ATOM     13  C   UNL     1      -3.781 -11.125  15.834  0.00  0.00    +0.023 A 
ATOM     14  C   UNL     1      -2.496 -10.884  16.321  0.00  0.00    +0.057 A 
ATOM     15  C   UNL     1      -4.057 -10.947  14.479  0.00  0.00    +0.012 A 
ATOM     16  C   UNL     1      -1.488 -10.466  15.453  0.00  0.00    +0.118 A 
ATOM     17  C   UNL     1      -3.048 -10.529  13.610  0.00  0.00    +0.004 A 
ATOM     18  C   UNL     1      -1.764 -10.288  14.097  0.00  0.00    +0.045 A 
BRANCH  16   3
ATOM      3  O   UNL     1      -0.235 -10.230  15.929  0.00  0.00    -0.507 OA
ATOM     21  H   UNL     1       0.156  -9.489  15.435  0.00  0.00    +0.292 HD
ENDBRANCH  16   3
ENDBRANCH  12  13
BRANCH  10   9
ATOM      9  C   UNL     1      -7.963 -12.377  18.421  0.00  0.00    +0.085 C 
BRANCH   9   6
ATOM      1  O   UNL     1     -10.373 -10.100  19.249  0.00  0.00    -0.376 OA
ATOM      6  C   UNL     1      -8.513 -11.138  19.080  0.00  0.00    +0.069 C 
ATOM      7  C   UNL     1      -9.324 -10.137  18.246  0.00  0.00    +0.184 C 
ATOM      8  C   UNL     1      -9.791 -11.246  19.923  0.00  0.00    +0.184 C 
BRANCH   6   4
ATOM      4  N   UNL     1      -7.510 -10.399  19.851  0.00  0.00    -0.321 NA
ATOM     19  H   UNL     1      -6.619 -10.886  19.941  0.00  0.00    +0.119 HD
ATOM     20  H   UNL     1      -7.794 -10.157  20.801  0.00  0.00    +0.119 HD
ENDBRANCH   6   4
ENDBRANCH   9   6
ENDBRANCH  10   9
TORSDOF 5
ENDMDL
MODEL 6
REMARK VINA RESULT:      -5.4     26.681     30.022
REMARK  Name = 75367142
REMARK  5 active torsions:
REMARK  status: ('A' for Active; 'I' for Inactive)
REMARK    1  A    between atoms: O_3  and  C_16
REMARK    2  A    between atoms: N_4  and  C_6
REMARK    3  A    between atoms: C_6  and  C_9
REMARK    4  A    between atoms: C_9  and  C_10
REMARK    5  A    between atoms: C_12  and  C_13
REMARK                            x       y       z     vdW  Elec       q    Type
REMARK                         _______ _______ _______ _____ _____    ______ ____
ROOT
ATOM      2  O   UNL     1      11.557   6.380   3.062  0.00  0.00    -0.354 OA
ATOM      5  N   UNL     1      10.713   6.699   4.118  0.00  0.00    -0.083 NA
ATOM     10  C   UNL     1      10.202   5.531   4.517  0.00  0.00    +0.086 A 
ATOM     11  C   UNL     1      10.683   4.451   3.756  0.00  0.00    +0.076 A 
ATOM     12  C   UNL     1      11.531   5.039   2.856  0.00  0.00    +0.168 A 
ENDROOT
BRANCH  12  13
ATOM     13  C   UNL     1      12.361   4.556   1.791  0.00  0.00    +0.023 A 
ATOM     14  C   UNL     1      13.665   4.137   2.056  0.00  0.00    +0.057 A 
ATOM     15  C   UNL     1      11.864   4.507   0.488  0.00  0.00    +0.012 A 
ATOM     16  C   UNL     1      14.472   3.669   1.019  0.00  0.00    +0.118 A 
ATOM     17  C   UNL     1      12.672   4.039  -0.549  0.00  0.00    +0.004 A 
ATOM     18  C   UNL     1      13.976   3.620  -0.284  0.00  0.00    +0.045 A 
BRANCH  16   3
ATOM      3  O   UNL     1      15.744   3.261   1.278  0.00  0.00    -0.507 OA
ATOM     21  H   UNL     1      16.151   3.879   1.909  0.00  0.00    +0.292 HD
ENDBRANCH  16   3
ENDBRANCH  12  13
BRANCH  10   9
ATOM      9  C   UNL     1       9.223   5.488   5.668  0.00  0.00    +0.085 C 
BRANCH   9   6
ATOM      1  O   UNL     1       9.532   5.419   9.071  0.00  0.00    -0.376 OA
ATOM      6  C   UNL     1       9.951   5.598   6.983  0.00  0.00    +0.069 C 
ATOM      7  C   UNL     1       9.371   6.482   8.095  0.00  0.00    +0.184 C 
ATOM      8  C   UNL     1       9.810   4.466   8.010  0.00  0.00    +0.184 C 
BRANCH   6   4
ATOM      4  N   UNL     1      11.375   5.911   6.832  0.00  0.00    -0.321 NA
ATOM     19  H   UNL     1      11.988   5.104   6.942  0.00  0.00    +0.119 HD
ATOM     20  H   UNL     1      11.728   6.620   7.474  0.00  0.00    +0.119 HD
ENDBRANCH   6   4
ENDBRANCH   9   6
ENDBRANCH  10   9
TORSDOF 5
ENDMDL
MODEL 7
REMARK VINA RESULT:      -5.3     19.846     20.717
REMARK  Name = 75367142
REMARK  5 active torsions:
REMARK  status: ('A' for Active; 'I' for Inactive)
REMARK    1  A    between atoms: O_3  and  C_16
REMARK    2  A    between atoms: N_4  and  C_6
REMARK    3  A    between atoms: C_6  and  C_9
REMARK    4  A    between atoms: C_9  and  C_10
REMARK    5  A    between atoms: C_12  and  C_13
REMARK                            x       y       z     vdW  Elec       q    Type
REMARK                         _______ _______ _______ _____ _____    ______ ____
ROOT
ATOM      2  O   UNL     1      -4.364 -12.355  14.810  0.00  0.00    -0.354 OA
ATOM      5  N   UNL     1      -4.592 -12.681  16.141  0.00  0.00    -0.083 NA
ATOM     10  C   UNL     1      -4.093 -11.656  16.838  0.00  0.00    +0.086 A 
ATOM     11  C   UNL     1      -3.542 -10.664  16.008  0.00  0.00    +0.076 A 
ATOM     12  C   UNL     1      -3.739 -11.152  14.743  0.00  0.00    +0.168 A 
ENDROOT
BRANCH  12  13
ATOM     13  C   UNL     1      -3.438 -10.678  13.423  0.00  0.00    +0.023 A 
ATOM     14  C   UNL     1      -4.472 -10.329  12.554  0.00  0.00    +0.057 A 
ATOM     15  C   UNL     1      -2.111 -10.568  13.009  0.00  0.00    +0.012 A 
ATOM     16  C   UNL     1      -4.178  -9.871  11.270  0.00  0.00    +0.118 A 
ATOM     17  C   UNL     1      -1.818 -10.109  11.724  0.00  0.00    +0.004 A 
ATOM     18  C   UNL     1      -2.851  -9.761  10.854  0.00  0.00    +0.045 A 
BRANCH  16   3
ATOM      3  O   UNL     1      -5.187  -9.531  10.421  0.00  0.00    -0.507 OA
ATOM     21  H   UNL     1      -5.024  -8.636  10.080  0.00  0.00    +0.292 HD
ENDBRANCH  16   3
ENDBRANCH  12  13
BRANCH  10   9
ATOM      9  C   UNL     1      -4.163 -11.664  18.348  0.00  0.00    +0.085 C 
BRANCH   9   6
ATOM      1  O   UNL     1      -7.047 -10.517  19.777  0.00  0.00    -0.376 OA
ATOM      6  C   UNL     1      -5.596 -11.749  18.809  0.00  0.00    +0.069 C 
ATOM      7  C   UNL     1      -5.951 -11.346  20.245  0.00  0.00    +0.184 C 
ATOM      8  C   UNL     1      -6.575 -10.637  18.409  0.00  0.00    +0.184 C 
BRANCH   6   4
ATOM      4  N   UNL     1      -6.221 -13.042  18.517  0.00  0.00    -0.321 NA
ATOM     19  H   UNL     1      -6.809 -13.037  17.685  0.00  0.00    +0.119 HD
ATOM     20  H   UNL     1      -6.801 -13.416  19.268  0.00  0.00    +0.119 HD
ENDBRANCH   6   4
ENDBRANCH   9   6
ENDBRANCH  10   9
TORSDOF 5
ENDMDL
MODEL 8
REMARK VINA RESULT:      -5.2     20.236     22.024
REMARK  Name = 75367142
REMARK  5 active torsions:
REMARK  status: ('A' for Active; 'I' for Inactive)
REMARK    1  A    between atoms: O_3  and  C_16
REMARK    2  A    between atoms: N_4  and  C_6
REMARK    3  A    between atoms: C_6  and  C_9
REMARK    4  A    between atoms: C_9  and  C_10
REMARK    5  A    between atoms: C_12  and  C_13
REMARK                            x       y       z     vdW  Elec       q    Type
REMARK                         _______ _______ _______ _____ _____    ______ ____
ROOT
ATOM      2  O   UNL     1      -4.109 -12.671  15.904  0.00  0.00    -0.354 OA
ATOM      5  N   UNL     1      -3.162 -12.410  14.922  0.00  0.00    -0.083 NA
ATOM     10  C   UNL     1      -2.835 -11.125  15.089  0.00  0.00    +0.086 A 
ATOM     11  C   UNL     1      -3.539 -10.530  16.150  0.00  0.00    +0.076 A 
ATOM     12  C   UNL     1      -4.326 -11.544  16.629  0.00  0.00    +0.168 A 
ENDROOT
BRANCH  12  13
ATOM     13  C   UNL     1      -5.285 -11.660  17.689  0.00  0.00    +0.023 A 
ATOM     14  C   UNL     1      -6.171 -12.736  17.714  0.00  0.00    +0.057 A 
ATOM     15  C   UNL     1      -5.332 -10.694  18.694  0.00  0.00    +0.012 A 
ATOM     16  C   UNL     1      -7.105 -12.846  18.745  0.00  0.00    +0.118 A 
ATOM     17  C   UNL     1      -6.266 -10.805  19.725  0.00  0.00    +0.004 A 
ATOM     18  C   UNL     1      -7.153 -11.881  19.750  0.00  0.00    +0.045 A 
BRANCH  16   3
ATOM      3  O   UNL     1      -7.970 -13.897  18.768  0.00  0.00    -0.507 OA
ATOM     21  H   UNL     1      -7.638 -14.565  19.392  0.00  0.00    +0.292 HD
ENDBRANCH  16   3
ENDBRANCH  12  13
BRANCH  10   9
ATOM      9  C   UNL     1      -1.813 -10.482  14.181  0.00  0.00    +0.085 C 
BRANCH   9   6
ATOM      1  O   UNL     1      -2.884  -9.760  11.017  0.00  0.00    -0.376 OA
ATOM      6  C   UNL     1      -2.129 -10.778  12.737  0.00  0.00    +0.069 C 
ATOM      7  C   UNL     1      -3.501 -10.390  12.171  0.00  0.00    +0.184 C 
ATOM      8  C   UNL     1      -1.579  -9.848  11.647  0.00  0.00    +0.184 C 
BRANCH   6   4
ATOM      4  N   UNL     1      -1.839 -12.162  12.354  0.00  0.00    -0.321 NA
ATOM     19  H   UNL     1      -2.657 -12.682  12.038  0.00  0.00    +0.119 HD
ATOM     20  H   UNL     1      -1.413 -12.729  13.087  0.00  0.00    +0.119 HD
ENDBRANCH   6   4
ENDBRANCH   9   6
ENDBRANCH  10   9
TORSDOF 5
ENDMDL
MODEL 9
REMARK VINA RESULT:      -5.2     25.672     26.764
REMARK  Name = 75367142
REMARK  5 active torsions:
REMARK  status: ('A' for Active; 'I' for Inactive)
REMARK    1  A    between atoms: O_3  and  C_16
REMARK    2  A    between atoms: N_4  and  C_6
REMARK    3  A    between atoms: C_6  and  C_9
REMARK    4  A    between atoms: C_9  and  C_10
REMARK    5  A    between atoms: C_12  and  C_13
REMARK                            x       y       z     vdW  Elec       q    Type
REMARK                         _______ _______ _______ _____ _____    ______ ____
ROOT
ATOM      2  O   UNL     1       9.984   7.769   4.515  0.00  0.00    -0.354 OA
ATOM      5  N   UNL     1      10.543   6.745   5.270  0.00  0.00    -0.083 NA
ATOM     10  C   UNL     1       9.516   5.958   5.600  0.00  0.00    +0.086 A 
ATOM     11  C   UNL     1       8.295   6.430   5.087  0.00  0.00    +0.076 A 
ATOM     12  C   UNL     1       8.645   7.570   4.413  0.00  0.00    +0.168 A 
ENDROOT
BRANCH  12  13
ATOM     13  C   UNL     1       7.925   8.553   3.655  0.00  0.00    +0.023 A 
ATOM     14  C   UNL     1       7.025   9.406   4.293  0.00  0.00    +0.057 A 
ATOM     15  C   UNL     1       8.126   8.653   2.278  0.00  0.00    +0.012 A 
ATOM     16  C   UNL     1       6.325  10.359   3.554  0.00  0.00    +0.118 A 
ATOM     17  C   UNL     1       7.425   9.607   1.540  0.00  0.00    +0.004 A 
ATOM     18  C   UNL     1       6.524  10.460   2.178  0.00  0.00    +0.045 A 
BRANCH  16   3
ATOM      3  O   UNL     1       5.446  11.191   4.177  0.00  0.00    -0.507 OA
ATOM     21  H   UNL     1       4.541  10.940   3.925  0.00  0.00    +0.292 HD
ENDBRANCH  16   3
ENDBRANCH  12  13
BRANCH  10   9
ATOM      9  C   UNL     1       9.751   4.721   6.437  0.00  0.00    +0.085 C 
BRANCH   9   6
ATOM      1  O   UNL     1       8.987   5.262   9.724  0.00  0.00    -0.376 OA
ATOM      6  C   UNL     1      10.034   5.099   7.869  0.00  0.00    +0.069 C 
ATOM      7  C   UNL     1       9.137   6.129   8.568  0.00  0.00    +0.184 C 
ATOM      8  C   UNL     1       9.581   4.158   8.992  0.00  0.00    +0.184 C 
BRANCH   6   4
ATOM      4  N   UNL     1      11.434   5.462   8.105  0.00  0.00    -0.321 NA
ATOM     19  H   UNL     1      11.616   5.811   9.045  0.00  0.00    +0.119 HD
ATOM     20  H   UNL     1      11.807   6.165   7.467  0.00  0.00    +0.119 HD
ENDBRANCH   6   4
ENDBRANCH   9   6
ENDBRANCH  10   9
TORSDOF 5
ENDMDL
MODEL 10
REMARK VINA RESULT:      -5.2     19.513     20.338
REMARK  Name = 75367142
REMARK  5 active torsions:
REMARK  status: ('A' for Active; 'I' for Inactive)
REMARK    1  A    between atoms: O_3  and  C_16
REMARK    2  A    between atoms: N_4  and  C_6
REMARK    3  A    between atoms: C_6  and  C_9
REMARK    4  A    between atoms: C_9  and  C_10
REMARK    5  A    between atoms: C_12  and  C_13
REMARK                            x       y       z     vdW  Elec       q    Type
REMARK                         _______ _______ _______ _____ _____    ______ ____
ROOT
ATOM      2  O   UNL     1      -4.493 -12.688  17.191  0.00  0.00    -0.354 OA
ATOM      5  N   UNL     1      -5.413 -12.922  18.204  0.00  0.00    -0.083 NA
ATOM     10  C   UNL     1      -5.779 -11.709  18.627  0.00  0.00    +0.086 A 
ATOM     11  C   UNL     1      -5.127 -10.680  17.925  0.00  0.00    +0.076 A 
ATOM     12  C   UNL     1      -4.331 -11.349  17.033  0.00  0.00    +0.168 A 
ENDROOT
BRANCH  12  13
ATOM     13  C   UNL     1      -3.404 -10.950  16.013  0.00  0.00    +0.023 A 
ATOM     14  C   UNL     1      -3.817 -10.881  14.683  0.00  0.00    +0.057 A 
ATOM     15  C   UNL     1      -2.090 -10.631  16.353  0.00  0.00    +0.012 A 
ATOM     16  C   UNL     1      -2.915 -10.495  13.692  0.00  0.00    +0.118 A 
ATOM     17  C   UNL     1      -1.188 -10.244  15.361  0.00  0.00    +0.004 A 
ATOM     18  C   UNL     1      -1.601 -10.176  14.030  0.00  0.00    +0.045 A 
BRANCH  16   3
ATOM      3  O   UNL     1      -3.319 -10.429  12.393  0.00  0.00    -0.507 OA
ATOM     21  H   UNL     1      -3.393 -11.332  12.040  0.00  0.00    +0.292 HD
ENDBRANCH  16   3
ENDBRANCH  12  13
BRANCH  10   9
ATOM      9  C   UNL     1      -6.788 -11.570  19.744  0.00  0.00    +0.085 C 
BRANCH   9   6
ATOM      1  O   UNL     1      -9.980 -11.568  18.524  0.00  0.00    -0.376 OA
ATOM      6  C   UNL     1      -8.105 -12.183  19.344  0.00  0.00    +0.069 C 
ATOM      7  C   UNL     1      -9.411 -11.567  19.861  0.00  0.00    +0.184 C 
ATOM      8  C   UNL     1      -8.680 -11.875  17.955  0.00  0.00    +0.184 C 
BRANCH   6   4
ATOM      4  N   UNL     1      -8.156 -13.632  19.555  0.00  0.00    -0.321 NA
ATOM     19  H   UNL     1      -7.241 -14.062  19.688  0.00  0.00    +0.119 HD
ATOM     20  H   UNL     1      -8.606 -14.158  18.805  0.00  0.00    +0.119 HD
ENDBRANCH   6   4
ENDBRANCH   9   6
ENDBRANCH  10   9
TORSDOF 5
ENDMDL
