MODEL 1
REMARK VINA RESULT:      -7.3      0.000      0.000
REMARK  Name = 11911833
REMARK  9 active torsions:
REMARK  status: ('A' for Active; 'I' for Inactive)
REMARK    1  A    between atoms: S_1  and  C_19
REMARK    2  A    between atoms: S_1  and  C_21
REMARK    3  A    between atoms: O_4  and  C_16
REMARK    4  A    between atoms: O_4  and  C_20
REMARK    5  A    between atoms: N_8  and  C_15
REMARK    6  A    between atoms: N_12  and  C_22
REMARK    7  A    between atoms: C_21  and  C_23
REMARK    8  A    between atoms: C_29  and  C_32
REMARK    9  A    between atoms: C_32  and  C_33
REMARK                            x       y       z     vdW  Elec       q    Type
REMARK                         _______ _______ _______ _____ _____    ______ ____
ROOT
ATOM      2  O   UNL     1      15.132   6.988  21.591  0.00  0.00    -0.368 OA
ATOM      3  O   UNL     1      16.246   9.635  20.447  0.00  0.00    -0.368 OA
ATOM     13  C   UNL     1      15.209   8.739  19.987  0.00  0.00    +0.177 C 
ATOM     14  C   UNL     1      15.674   7.332  20.306  0.00  0.00    +0.192 C 
ATOM     15  C   UNL     1      13.964   8.930  20.832  0.00  0.00    +0.168 C 
ATOM     16  C   UNL     1      17.175   7.480  20.354  0.00  0.00    +0.235 C 
ATOM     17  C   UNL     1      14.221   8.009  22.021  0.00  0.00    +0.190 C 
ATOM     18  C   UNL     1      17.340   8.857  20.954  0.00  0.00    +0.207 C 
ENDROOT
BRANCH  15   8
ATOM      8  N   UNL     1      12.734   8.662  20.084  0.00  0.00    -0.212 N 
ATOM      9  N   UNL     1      12.790   8.275  18.802  0.00  0.00    -0.043 NA
ATOM     10  N   UNL     1      10.668   8.408  19.473  0.00  0.00    -0.101 NA
ATOM     11  N   UNL     1      11.524   8.121  18.433  0.00  0.00    -0.022 NA
ATOM     19  C   UNL     1      11.437   8.740  20.485  0.00  0.00    +0.210 A 
BRANCH  19   1
ATOM      1  S   UNL     1      10.949   9.200  22.067  0.00  0.00    -0.077 S 
BRANCH   1  21
ATOM     21  C   UNL     1      11.190  11.001  22.013  0.00  0.00    +0.151 C 
BRANCH  21  23
ATOM      6  O   UNL     1      10.442  11.652  24.232  0.00  0.00    -0.467 OA
ATOM     23  C   UNL     1      11.493  11.551  23.377  0.00  0.00    +0.115 A 
ATOM     26  C   UNL     1      12.649  11.993  23.978  0.00  0.00    +0.045 A 
ATOM     30  C   UNL     1      12.284  12.391  25.286  0.00  0.00    +0.041 A 
ATOM     31  C   UNL     1      10.932  12.165  25.392  0.00  0.00    +0.195 A 
ENDBRANCH  21  23
ENDBRANCH   1  21
ENDBRANCH  19   1
ENDBRANCH  15   8
BRANCH  16   4
ATOM      4  O   UNL     1      17.815   6.486  21.123  0.00  0.00    -0.442 OA
BRANCH   4  20
ATOM      5  O   UNL     1      18.676   5.200  19.439  0.00  0.00    -0.226 OA
ATOM     12  N   UNL     1      19.971   5.842  21.280  0.00  0.00    -0.251 N 
ATOM     20  C   UNL     1      18.827   5.778  20.509  0.00  0.00    +0.405 C 
ATOM     34  H   UNL     1      19.901   6.375  22.143  0.00  0.00    +0.158 HD
BRANCH  12  22
ATOM     22  C   UNL     1      21.231   5.258  21.020  0.00  0.00    +0.036 A 
ATOM     24  C   UNL     1      21.430   3.896  21.250  0.00  0.00    +0.024 A 
ATOM     25  C   UNL     1      22.276   6.043  20.531  0.00  0.00    +0.024 A 
ATOM     27  C   UNL     1      22.675   3.320  20.993  0.00  0.00    +0.013 A 
ATOM     28  C   UNL     1      23.520   5.466  20.275  0.00  0.00    +0.013 A 
ATOM     29  C   UNL     1      23.719   4.106  20.505  0.00  0.00    +0.017 A 
BRANCH  29  32
ATOM      7  O   UNL     1      25.753   3.927  19.325  0.00  0.00    -0.292 OA
ATOM     32  C   UNL     1      25.015   3.504  20.237  0.00  0.00    +0.160 C 
ATOM     33  C   UNL     1      25.506   2.329  21.076  0.00  0.00    +0.091 C 
ENDBRANCH  29  32
ENDBRANCH  12  22
ENDBRANCH   4  20
ENDBRANCH  16   4
TORSDOF 8
ENDMDL
MODEL 2
REMARK VINA RESULT:      -7.2     27.906     32.680
REMARK  Name = 11911833
REMARK  9 active torsions:
REMARK  status: ('A' for Active; 'I' for Inactive)
REMARK    1  A    between atoms: S_1  and  C_19
REMARK    2  A    between atoms: S_1  and  C_21
REMARK    3  A    between atoms: O_4  and  C_16
REMARK    4  A    between atoms: O_4  and  C_20
REMARK    5  A    between atoms: N_8  and  C_15
REMARK    6  A    between atoms: N_12  and  C_22
REMARK    7  A    between atoms: C_21  and  C_23
REMARK    8  A    between atoms: C_29  and  C_32
REMARK    9  A    between atoms: C_32  and  C_33
REMARK                            x       y       z     vdW  Elec       q    Type
REMARK                         _______ _______ _______ _____ _____    ______ ____
ROOT
ATOM      2  O   UNL     1     -10.641  -8.737  17.794  0.00  0.00    -0.368 OA
ATOM      3  O   UNL     1      -9.341  -9.157  15.022  0.00  0.00    -0.368 OA
ATOM     13  C   UNL     1      -8.777  -8.961  16.338  0.00  0.00    +0.177 C 
ATOM     14  C   UNL     1      -9.676  -7.973  17.056  0.00  0.00    +0.192 C 
ATOM     15  C   UNL     1      -8.904 -10.242  17.139  0.00  0.00    +0.168 C 
ATOM     16  C   UNL     1     -10.315  -7.217  15.916  0.00  0.00    +0.235 C 
ATOM     17  C   UNL     1     -10.306 -10.130  17.732  0.00  0.00    +0.190 C 
ATOM     18  C   UNL     1     -10.478  -8.295  14.870  0.00  0.00    +0.207 C 
ENDROOT
BRANCH  15   8
ATOM      8  N   UNL     1      -7.823 -10.403  18.113  0.00  0.00    -0.212 N 
ATOM      9  N   UNL     1      -8.100 -10.648  19.401  0.00  0.00    -0.043 NA
ATOM     10  N   UNL     1      -5.895 -10.548  19.096  0.00  0.00    -0.101 NA
ATOM     11  N   UNL     1      -6.918 -10.736  19.998  0.00  0.00    -0.022 NA
ATOM     19  C   UNL     1      -6.476 -10.344  17.937  0.00  0.00    +0.210 A 
BRANCH  19   1
ATOM      1  S   UNL     1      -5.720 -10.051  16.422  0.00  0.00    -0.077 S 
BRANCH   1  21
ATOM     21  C   UNL     1      -4.516 -11.410  16.345  0.00  0.00    +0.151 C 
BRANCH  21  23
ATOM      6  O   UNL     1      -3.163 -10.670  14.466  0.00  0.00    -0.467 OA
ATOM     23  C   UNL     1      -3.199 -10.942  15.797  0.00  0.00    +0.115 A 
ATOM     26  C   UNL     1      -1.969 -10.716  16.370  0.00  0.00    +0.045 A 
ATOM     30  C   UNL     1      -1.123 -10.279  15.323  0.00  0.00    +0.041 A 
ATOM     31  C   UNL     1      -1.896 -10.268  14.186  0.00  0.00    +0.195 A 
ENDBRANCH  21  23
ENDBRANCH   1  21
ENDBRANCH  19   1
ENDBRANCH  15   8
BRANCH  16   4
ATOM      4  O   UNL     1     -11.546  -6.618  16.257  0.00  0.00    -0.442 OA
BRANCH   4  20
ATOM      5  O   UNL     1     -13.348  -7.148  14.953  0.00  0.00    -0.226 OA
ATOM     12  N   UNL     1     -12.109  -5.194  14.602  0.00  0.00    -0.251 N 
ATOM     20  C   UNL     1     -12.432  -6.383  15.227  0.00  0.00    +0.405 C 
ATOM     34  H   UNL     1     -11.306  -4.693  14.975  0.00  0.00    +0.158 HD
BRANCH  12  22
ATOM     22  C   UNL     1     -12.757  -4.583  13.504  0.00  0.00    +0.036 A 
ATOM     24  C   UNL     1     -14.120  -4.294  13.572  0.00  0.00    +0.024 A 
ATOM     25  C   UNL     1     -12.034  -4.268  12.354  0.00  0.00    +0.024 A 
ATOM     27  C   UNL     1     -14.760  -3.692  12.488  0.00  0.00    +0.013 A 
ATOM     28  C   UNL     1     -12.674  -3.665  11.271  0.00  0.00    +0.013 A 
ATOM     29  C   UNL     1     -14.036  -3.377  11.338  0.00  0.00    +0.017 A 
BRANCH  29  32
ATOM      7  O   UNL     1     -14.200  -2.756   9.069  0.00  0.00    -0.292 OA
ATOM     32  C   UNL     1     -14.703  -2.749  10.210  0.00  0.00    +0.160 C 
ATOM     33  C   UNL     1     -16.050  -2.058  10.399  0.00  0.00    +0.091 C 
ENDBRANCH  29  32
ENDBRANCH  12  22
ENDBRANCH   4  20
ENDBRANCH  16   4
TORSDOF 8
ENDMDL
MODEL 3
REMARK VINA RESULT:      -7.0     28.128     31.491
REMARK  Name = 11911833
REMARK  9 active torsions:
REMARK  status: ('A' for Active; 'I' for Inactive)
REMARK    1  A    between atoms: S_1  and  C_19
REMARK    2  A    between atoms: S_1  and  C_21
REMARK    3  A    between atoms: O_4  and  C_16
REMARK    4  A    between atoms: O_4  and  C_20
REMARK    5  A    between atoms: N_8  and  C_15
REMARK    6  A    between atoms: N_12  and  C_22
REMARK    7  A    between atoms: C_21  and  C_23
REMARK    8  A    between atoms: C_29  and  C_32
REMARK    9  A    between atoms: C_32  and  C_33
REMARK                            x       y       z     vdW  Elec       q    Type
REMARK                         _______ _______ _______ _____ _____    ______ ____
ROOT
ATOM      2  O   UNL     1      -5.219 -10.292  17.603  0.00  0.00    -0.368 OA
ATOM      3  O   UNL     1      -6.411 -11.856  15.218  0.00  0.00    -0.368 OA
ATOM     13  C   UNL     1      -5.287 -10.954  15.322  0.00  0.00    +0.177 C 
ATOM     14  C   UNL     1      -5.682  -9.874  16.309  0.00  0.00    +0.192 C 
ATOM     15  C   UNL     1      -4.124 -11.668  15.985  0.00  0.00    +0.168 C 
ATOM     16  C   UNL     1      -7.190  -9.883  16.226  0.00  0.00    +0.235 C 
ATOM     17  C   UNL     1      -4.411 -11.469  17.470  0.00  0.00    +0.190 C 
ATOM     18  C   UNL     1      -7.488 -11.350  16.019  0.00  0.00    +0.207 C 
ENDROOT
BRANCH  15   8
ATOM      8  N   UNL     1      -2.826 -11.171  15.525  0.00  0.00    -0.212 N 
ATOM      9  N   UNL     1      -1.969 -10.610  16.389  0.00  0.00    -0.043 NA
ATOM     10  N   UNL     1      -1.095 -10.621  14.338  0.00  0.00    -0.101 NA
ATOM     11  N   UNL     1      -0.913 -10.276  15.659  0.00  0.00    -0.022 NA
ATOM     19  C   UNL     1      -2.285 -11.174  14.278  0.00  0.00    +0.210 A 
BRANCH  19   1
ATOM      1  S   UNL     1      -3.075 -11.812  12.891  0.00  0.00    -0.077 S 
BRANCH   1  21
ATOM     21  C   UNL     1      -2.396 -10.765  11.570  0.00  0.00    +0.151 C 
BRANCH  21  23
ATOM      6  O   UNL     1      -4.532  -9.622  11.776  0.00  0.00    -0.467 OA
ATOM     23  C   UNL     1      -3.451  -9.867  10.990  0.00  0.00    +0.115 A 
ATOM     26  C   UNL     1      -3.568  -9.208   9.788  0.00  0.00    +0.045 A 
ATOM     30  C   UNL     1      -4.801  -8.516   9.838  0.00  0.00    +0.041 A 
ATOM     31  C   UNL     1      -5.349  -8.800  11.067  0.00  0.00    +0.195 A 
ENDBRANCH  21  23
ENDBRANCH   1  21
ENDBRANCH  19   1
ENDBRANCH  15   8
BRANCH  16   4
ATOM      4  O   UNL     1      -7.822  -9.370  17.377  0.00  0.00    -0.442 OA
BRANCH   4  20
ATOM      5  O   UNL     1      -9.996  -9.154  18.051  0.00  0.00    -0.226 OA
ATOM     12  N   UNL     1      -9.226  -8.202  16.056  0.00  0.00    -0.251 N 
ATOM     20  C   UNL     1      -9.117  -8.920  17.230  0.00  0.00    +0.405 C 
ATOM     34  H   UNL     1      -8.378  -8.114  15.501  0.00  0.00    +0.158 HD
BRANCH  12  22
ATOM     22  C   UNL     1     -10.374  -7.569  15.526  0.00  0.00    +0.036 A 
ATOM     24  C   UNL     1     -10.774  -6.326  16.016  0.00  0.00    +0.024 A 
ATOM     25  C   UNL     1     -11.106  -8.187  14.512  0.00  0.00    +0.024 A 
ATOM     27  C   UNL     1     -11.907  -5.701  15.494  0.00  0.00    +0.013 A 
ATOM     28  C   UNL     1     -12.238  -7.562  13.989  0.00  0.00    +0.013 A 
ATOM     29  C   UNL     1     -12.638  -6.320  14.479  0.00  0.00    +0.017 A 
BRANCH  29  32
ATOM      7  O   UNL     1     -14.965  -6.111  14.150  0.00  0.00    -0.292 OA
ATOM     32  C   UNL     1     -13.819  -5.668  13.935  0.00  0.00    +0.160 C 
ATOM     33  C   UNL     1     -13.679  -4.414  13.079  0.00  0.00    +0.091 C 
ENDBRANCH  29  32
ENDBRANCH  12  22
ENDBRANCH   4  20
ENDBRANCH  16   4
TORSDOF 8
ENDMDL
MODEL 4
REMARK VINA RESULT:      -6.9      1.754      2.156
REMARK  Name = 11911833
REMARK  9 active torsions:
REMARK  status: ('A' for Active; 'I' for Inactive)
REMARK    1  A    between atoms: S_1  and  C_19
REMARK    2  A    between atoms: S_1  and  C_21
REMARK    3  A    between atoms: O_4  and  C_16
REMARK    4  A    between atoms: O_4  and  C_20
REMARK    5  A    between atoms: N_8  and  C_15
REMARK    6  A    between atoms: N_12  and  C_22
REMARK    7  A    between atoms: C_21  and  C_23
REMARK    8  A    between atoms: C_29  and  C_32
REMARK    9  A    between atoms: C_32  and  C_33
REMARK                            x       y       z     vdW  Elec       q    Type
REMARK                         _______ _______ _______ _____ _____    ______ ____
ROOT
ATOM      2  O   UNL     1      15.964   6.464  21.437  0.00  0.00    -0.368 OA
ATOM      3  O   UNL     1      16.968   9.304  20.743  0.00  0.00    -0.368 OA
ATOM     13  C   UNL     1      16.318   8.284  19.951  0.00  0.00    +0.177 C 
ATOM     14  C   UNL     1      16.860   6.950  20.425  0.00  0.00    +0.192 C 
ATOM     15  C   UNL     1      14.842   8.239  20.297  0.00  0.00    +0.168 C 
ATOM     16  C   UNL     1      18.204   7.325  21.003  0.00  0.00    +0.235 C 
ATOM     17  C   UNL     1      14.808   7.310  21.506  0.00  0.00    +0.190 C 
ATOM     18  C   UNL     1      17.923   8.679  21.611  0.00  0.00    +0.207 C 
ENDROOT
BRANCH  15   8
ATOM      8  N   UNL     1      14.013   7.823  19.164  0.00  0.00    -0.212 N 
ATOM      9  N   UNL     1      14.486   7.905  17.912  0.00  0.00    -0.043 NA
ATOM     10  N   UNL     1      12.409   7.095  17.898  0.00  0.00    -0.101 NA
ATOM     11  N   UNL     1      13.501   7.458  17.142  0.00  0.00    -0.022 NA
ATOM     19  C   UNL     1      12.747   7.328  19.145  0.00  0.00    +0.210 A 
BRANCH  19   1
ATOM      1  S   UNL     1      11.798   7.071  20.555  0.00  0.00    -0.077 S 
BRANCH   1  21
ATOM     21  C   UNL     1      10.854   8.622  20.647  0.00  0.00    +0.151 C 
BRANCH  21  23
ATOM      6  O   UNL     1      12.026  10.743  20.461  0.00  0.00    -0.467 OA
ATOM     23  C   UNL     1      11.665   9.717  21.276  0.00  0.00    +0.115 A 
ATOM     26  C   UNL     1      12.143   9.921  22.550  0.00  0.00    +0.045 A 
ATOM     30  C   UNL     1      12.843  11.150  22.515  0.00  0.00    +0.041 A 
ATOM     31  C   UNL     1      12.744  11.610  21.223  0.00  0.00    +0.195 A 
ENDBRANCH  21  23
ENDBRANCH   1  21
ENDBRANCH  19   1
ENDBRANCH  15   8
BRANCH  16   4
ATOM      4  O   UNL     1      18.684   6.403  21.956  0.00  0.00    -0.442 OA
BRANCH   4  20
ATOM      5  O   UNL     1      20.779   6.920  22.714  0.00  0.00    -0.226 OA
ATOM     12  N   UNL     1      20.417   5.176  21.196  0.00  0.00    -0.251 N 
ATOM     20  C   UNL     1      20.051   6.224  22.017  0.00  0.00    +0.405 C 
ATOM     34  H   UNL     1      19.663   4.715  20.693  0.00  0.00    +0.158 HD
BRANCH  12  22
ATOM     22  C   UNL     1      21.713   4.662  20.966  0.00  0.00    +0.036 A 
ATOM     24  C   UNL     1      22.010   3.342  21.305  0.00  0.00    +0.024 A 
ATOM     25  C   UNL     1      22.696   5.474  20.399  0.00  0.00    +0.024 A 
ATOM     27  C   UNL     1      23.290   2.834  21.079  0.00  0.00    +0.013 A 
ATOM     28  C   UNL     1      23.975   4.966  20.173  0.00  0.00    +0.013 A 
ATOM     29  C   UNL     1      24.272   3.647  20.512  0.00  0.00    +0.017 A 
BRANCH  29  32
ATOM      7  O   UNL     1      26.094   2.234  21.010  0.00  0.00    -0.292 OA
ATOM     32  C   UNL     1      25.605   3.117  20.277  0.00  0.00    +0.160 C 
ATOM     33  C   UNL     1      26.445   3.636  19.114  0.00  0.00    +0.091 C 
ENDBRANCH  29  32
ENDBRANCH  12  22
ENDBRANCH   4  20
ENDBRANCH  16   4
TORSDOF 8
ENDMDL
MODEL 5
REMARK VINA RESULT:      -6.9     28.271     30.277
REMARK  Name = 11911833
REMARK  9 active torsions:
REMARK  status: ('A' for Active; 'I' for Inactive)
REMARK    1  A    between atoms: S_1  and  C_19
REMARK    2  A    between atoms: S_1  and  C_21
REMARK    3  A    between atoms: O_4  and  C_16
REMARK    4  A    between atoms: O_4  and  C_20
REMARK    5  A    between atoms: N_8  and  C_15
REMARK    6  A    between atoms: N_12  and  C_22
REMARK    7  A    between atoms: C_21  and  C_23
REMARK    8  A    between atoms: C_29  and  C_32
REMARK    9  A    between atoms: C_32  and  C_33
REMARK                            x       y       z     vdW  Elec       q    Type
REMARK                         _______ _______ _______ _____ _____    ______ ____
ROOT
ATOM      2  O   UNL     1      -4.736 -10.059  15.733  0.00  0.00    -0.368 OA
ATOM      3  O   UNL     1      -4.368 -13.127  15.629  0.00  0.00    -0.368 OA
ATOM     13  C   UNL     1      -4.510 -12.204  16.732  0.00  0.00    +0.177 C 
ATOM     14  C   UNL     1      -3.775 -10.937  16.340  0.00  0.00    +0.192 C 
ATOM     15  C   UNL     1      -5.961 -11.779  16.853  0.00  0.00    +0.168 C 
ATOM     16  C   UNL     1      -2.763 -11.437  15.336  0.00  0.00    +0.235 C 
ATOM     17  C   UNL     1      -6.052 -10.612  15.875  0.00  0.00    +0.190 C 
ATOM     18  C   UNL     1      -3.531 -12.530  14.629  0.00  0.00    +0.207 C 
ENDROOT
BRANCH  15   8
ATOM      8  N   UNL     1      -6.341 -11.472  18.233  0.00  0.00    -0.212 N 
ATOM      9  N   UNL     1      -5.402 -11.294  19.172  0.00  0.00    -0.043 NA
ATOM     10  N   UNL     1      -7.431 -11.052  20.061  0.00  0.00    -0.101 NA
ATOM     11  N   UNL     1      -6.074 -11.037  20.288  0.00  0.00    -0.022 NA
ATOM     19  C   UNL     1      -7.575 -11.322  18.784  0.00  0.00    +0.210 A 
BRANCH  19   1
ATOM      1  S   UNL     1      -9.043 -11.471  17.902  0.00  0.00    -0.077 S 
BRANCH   1  21
ATOM     21  C   UNL     1      -9.920  -9.958  18.395  0.00  0.00    +0.151 C 
BRANCH  21  23
ATOM      6  O   UNL     1      -9.598  -9.434  16.043  0.00  0.00    -0.467 OA
ATOM     23  C   UNL     1      -9.996  -8.978  17.260  0.00  0.00    +0.115 A 
ATOM     26  C   UNL     1     -10.396  -7.664  17.176  0.00  0.00    +0.045 A 
ATOM     30  C   UNL     1     -10.234  -7.289  15.822  0.00  0.00    +0.041 A 
ATOM     31  C   UNL     1      -9.745  -8.400  15.174  0.00  0.00    +0.195 A 
ENDBRANCH  21  23
ENDBRANCH   1  21
ENDBRANCH  19   1
ENDBRANCH  15   8
BRANCH  16   4
ATOM      4  O   UNL     1      -2.314 -10.441  14.445  0.00  0.00    -0.442 OA
BRANCH   4  20
ATOM      5  O   UNL     1      -1.605 -11.393  12.490  0.00  0.00    -0.226 OA
ATOM     12  N   UNL     1      -3.561 -10.113  12.596  0.00  0.00    -0.251 N 
ATOM     20  C   UNL     1      -2.424 -10.714  13.098  0.00  0.00    +0.405 C 
ATOM     34  H   UNL     1      -4.122  -9.585  13.260  0.00  0.00    +0.158 HD
BRANCH  12  22
ATOM     22  C   UNL     1      -4.048 -10.140  11.269  0.00  0.00    +0.036 A 
ATOM     24  C   UNL     1      -4.935 -11.140  10.871  0.00  0.00    +0.024 A 
ATOM     25  C   UNL     1      -3.640  -9.166  10.356  0.00  0.00    +0.024 A 
ATOM     27  C   UNL     1      -5.414 -11.167   9.561  0.00  0.00    +0.013 A 
ATOM     28  C   UNL     1      -4.120  -9.194   9.047  0.00  0.00    +0.013 A 
ATOM     29  C   UNL     1      -5.006 -10.193   8.649  0.00  0.00    +0.017 A 
BRANCH  29  32
ATOM      7  O   UNL     1      -6.394  -9.435   6.900  0.00  0.00    -0.292 OA
ATOM     32  C   UNL     1      -5.507 -10.222   7.285  0.00  0.00    +0.160 C 
ATOM     33  C   UNL     1      -4.950 -11.228   6.282  0.00  0.00    +0.091 C 
ENDBRANCH  29  32
ENDBRANCH  12  22
ENDBRANCH   4  20
ENDBRANCH  16   4
TORSDOF 8
ENDMDL
MODEL 6
REMARK VINA RESULT:      -6.8     28.662     31.616
REMARK  Name = 11911833
REMARK  9 active torsions:
REMARK  status: ('A' for Active; 'I' for Inactive)
REMARK    1  A    between atoms: S_1  and  C_19
REMARK    2  A    between atoms: S_1  and  C_21
REMARK    3  A    between atoms: O_4  and  C_16
REMARK    4  A    between atoms: O_4  and  C_20
REMARK    5  A    between atoms: N_8  and  C_15
REMARK    6  A    between atoms: N_12  and  C_22
REMARK    7  A    between atoms: C_21  and  C_23
REMARK    8  A    between atoms: C_29  and  C_32
REMARK    9  A    between atoms: C_32  and  C_33
REMARK                            x       y       z     vdW  Elec       q    Type
REMARK                         _______ _______ _______ _____ _____    ______ ____
ROOT
ATOM      2  O   UNL     1      -6.816 -12.470  16.593  0.00  0.00    -0.368 OA
ATOM      3  O   UNL     1      -4.838 -10.773  18.255  0.00  0.00    -0.368 OA
ATOM     13  C   UNL     1      -4.671 -11.992  17.497  0.00  0.00    +0.177 C 
ATOM     14  C   UNL     1      -5.940 -12.800  17.682  0.00  0.00    +0.192 C 
ATOM     15  C   UNL     1      -4.640 -11.667  16.016  0.00  0.00    +0.168 C 
ATOM     16  C   UNL     1      -6.471 -12.288  19.000  0.00  0.00    +0.235 C 
ATOM     17  C   UNL     1      -6.120 -11.649  15.645  0.00  0.00    +0.190 C 
ATOM     18  C   UNL     1      -6.093 -10.826  18.948  0.00  0.00    +0.207 C 
ENDROOT
BRANCH  15   8
ATOM      8  N   UNL     1      -3.814 -12.606  15.253  0.00  0.00    -0.212 N 
ATOM      9  N   UNL     1      -4.037 -13.925  15.333  0.00  0.00    -0.043 NA
ATOM     10  N   UNL     1      -2.335 -13.515  13.953  0.00  0.00    -0.101 NA
ATOM     11  N   UNL     1      -3.130 -14.476  14.535  0.00  0.00    -0.022 NA
ATOM     19  C   UNL     1      -2.776 -12.365  14.410  0.00  0.00    +0.210 A 
BRANCH  19   1
ATOM      1  S   UNL     1      -2.184 -10.794  14.042  0.00  0.00    -0.077 S 
BRANCH   1  21
ATOM     21  C   UNL     1      -1.930 -10.912  12.246  0.00  0.00    +0.151 C 
BRANCH  21  23
ATOM      6  O   UNL     1      -4.214 -10.115  12.015  0.00  0.00    -0.467 OA
ATOM     23  C   UNL     1      -2.959 -10.116  11.496  0.00  0.00    +0.115 A 
ATOM     26  C   UNL     1      -2.908  -9.354  10.352  0.00  0.00    +0.045 A 
ATOM     30  C   UNL     1      -4.217  -8.854  10.155  0.00  0.00    +0.041 A 
ATOM     31  C   UNL     1      -4.974  -9.345  11.193  0.00  0.00    +0.195 A 
ENDBRANCH  21  23
ENDBRANCH   1  21
ENDBRANCH  19   1
ENDBRANCH  15   8
BRANCH  16   4
ATOM      4  O   UNL     1      -7.860 -12.472  19.158  0.00  0.00    -0.442 OA
BRANCH   4  20
ATOM      5  O   UNL     1      -8.998 -10.769  20.174  0.00  0.00    -0.226 OA
ATOM     12  N   UNL     1      -8.937 -10.990  17.844  0.00  0.00    -0.251 N 
ATOM     20  C   UNL     1      -8.645 -11.338  19.148  0.00  0.00    +0.405 C 
ATOM     34  H   UNL     1      -8.550 -11.591  17.121  0.00  0.00    +0.158 HD
BRANCH  12  22
ATOM     22  C   UNL     1      -9.710  -9.898  17.387  0.00  0.00    +0.036 A 
ATOM     24  C   UNL     1     -11.103  -9.961  17.434  0.00  0.00    +0.024 A 
ATOM     25  C   UNL     1      -9.080  -8.758  16.889  0.00  0.00    +0.024 A 
ATOM     27  C   UNL     1     -11.866  -8.884  16.982  0.00  0.00    +0.013 A 
ATOM     28  C   UNL     1      -9.843  -7.681  16.437  0.00  0.00    +0.013 A 
ATOM     29  C   UNL     1     -11.234  -7.744  16.484  0.00  0.00    +0.017 A 
BRANCH  29  32
ATOM      7  O   UNL     1     -11.499  -5.551  15.656  0.00  0.00    -0.292 OA
ATOM     32  C   UNL     1     -12.030  -6.621  16.014  0.00  0.00    +0.160 C 
ATOM     33  C   UNL     1     -13.550  -6.730  15.947  0.00  0.00    +0.091 C 
ENDBRANCH  29  32
ENDBRANCH  12  22
ENDBRANCH   4  20
ENDBRANCH  16   4
TORSDOF 8
ENDMDL
MODEL 7
REMARK VINA RESULT:      -6.6     28.530     32.110
REMARK  Name = 11911833
REMARK  9 active torsions:
REMARK  status: ('A' for Active; 'I' for Inactive)
REMARK    1  A    between atoms: S_1  and  C_19
REMARK    2  A    between atoms: S_1  and  C_21
REMARK    3  A    between atoms: O_4  and  C_16
REMARK    4  A    between atoms: O_4  and  C_20
REMARK    5  A    between atoms: N_8  and  C_15
REMARK    6  A    between atoms: N_12  and  C_22
REMARK    7  A    between atoms: C_21  and  C_23
REMARK    8  A    between atoms: C_29  and  C_32
REMARK    9  A    between atoms: C_32  and  C_33
REMARK                            x       y       z     vdW  Elec       q    Type
REMARK                         _______ _______ _______ _____ _____    ______ ____
ROOT
ATOM      2  O   UNL     1      -5.760 -12.161  17.660  0.00  0.00    -0.368 OA
ATOM      3  O   UNL     1      -6.579  -9.414  16.503  0.00  0.00    -0.368 OA
ATOM     13  C   UNL     1      -5.292  -9.985  16.830  0.00  0.00    +0.177 C 
ATOM     14  C   UNL     1      -5.487 -10.816  18.083  0.00  0.00    +0.192 C 
ATOM     15  C   UNL     1      -4.898 -10.990  15.764  0.00  0.00    +0.168 C 
ATOM     16  C   UNL     1      -6.696 -10.175  18.721  0.00  0.00    +0.235 C 
ATOM     17  C   UNL     1      -5.577 -12.269  16.242  0.00  0.00    +0.190 C 
ATOM     18  C   UNL     1      -7.522  -9.785  17.518  0.00  0.00    +0.207 C 
ENDROOT
BRANCH  15   8
ATOM      8  N   UNL     1      -3.447 -11.078  15.587  0.00  0.00    -0.212 N 
ATOM      9  N   UNL     1      -2.619 -10.674  16.560  0.00  0.00    -0.043 NA
ATOM     10  N   UNL     1      -1.448 -11.420  14.817  0.00  0.00    -0.101 NA
ATOM     11  N   UNL     1      -1.398 -10.886  16.085  0.00  0.00    -0.022 NA
ATOM     19  C   UNL     1      -2.725 -11.531  14.529  0.00  0.00    +0.210 A 
BRANCH  19   1
ATOM      1  S   UNL     1      -3.424 -12.139  13.081  0.00  0.00    -0.077 S 
BRANCH   1  21
ATOM     21  C   UNL     1      -2.554 -11.164  11.818  0.00  0.00    +0.151 C 
BRANCH  21  23
ATOM      6  O   UNL     1      -4.587  -9.834  11.905  0.00  0.00    -0.467 OA
ATOM     23  C   UNL     1      -3.457 -10.129  11.211  0.00  0.00    +0.115 A 
ATOM     26  C   UNL     1      -3.389  -9.380  10.059  0.00  0.00    +0.045 A 
ATOM     30  C   UNL     1      -4.552  -8.576  10.044  0.00  0.00    +0.041 A 
ATOM     31  C   UNL     1      -5.249  -8.889  11.188  0.00  0.00    +0.195 A 
ENDBRANCH  21  23
ENDBRANCH   1  21
ENDBRANCH  19   1
ENDBRANCH  15   8
BRANCH  16   4
ATOM      4  O   UNL     1      -7.397 -11.036  19.590  0.00  0.00    -0.442 OA
BRANCH   4  20
ATOM      5  O   UNL     1      -9.108 -12.332  18.799  0.00  0.00    -0.226 OA
ATOM     12  N   UNL     1      -9.482 -10.178  19.637  0.00  0.00    -0.251 N 
ATOM     20  C   UNL     1      -8.722 -11.279  19.293  0.00  0.00    +0.405 C 
ATOM     34  H   UNL     1      -8.978  -9.392  20.039  0.00  0.00    +0.158 HD
BRANCH  12  22
ATOM     22  C   UNL     1     -10.879 -10.008  19.501  0.00  0.00    +0.036 A 
ATOM     24  C   UNL     1     -11.715 -10.196  20.602  0.00  0.00    +0.024 A 
ATOM     25  C   UNL     1     -11.421  -9.651  18.266  0.00  0.00    +0.024 A 
ATOM     27  C   UNL     1     -13.094 -10.028  20.467  0.00  0.00    +0.013 A 
ATOM     28  C   UNL     1     -12.800  -9.483  18.132  0.00  0.00    +0.013 A 
ATOM     29  C   UNL     1     -13.635  -9.671  19.232  0.00  0.00    +0.017 A 
BRANCH  29  32
ATOM      7  O   UNL     1     -15.866  -9.922  19.956  0.00  0.00    -0.292 OA
ATOM     32  C   UNL     1     -15.072  -9.497  19.093  0.00  0.00    +0.160 C 
ATOM     33  C   UNL     1     -15.646  -8.781  17.875  0.00  0.00    +0.091 C 
ENDBRANCH  29  32
ENDBRANCH  12  22
ENDBRANCH   4  20
ENDBRANCH  16   4
TORSDOF 8
ENDMDL
MODEL 8
REMARK VINA RESULT:      -6.6     28.049     32.167
REMARK  Name = 11911833
REMARK  9 active torsions:
REMARK  status: ('A' for Active; 'I' for Inactive)
REMARK    1  A    between atoms: S_1  and  C_19
REMARK    2  A    between atoms: S_1  and  C_21
REMARK    3  A    between atoms: O_4  and  C_16
REMARK    4  A    between atoms: O_4  and  C_20
REMARK    5  A    between atoms: N_8  and  C_15
REMARK    6  A    between atoms: N_12  and  C_22
REMARK    7  A    between atoms: C_21  and  C_23
REMARK    8  A    between atoms: C_29  and  C_32
REMARK    9  A    between atoms: C_32  and  C_33
REMARK                            x       y       z     vdW  Elec       q    Type
REMARK                         _______ _______ _______ _____ _____    ______ ____
ROOT
ATOM      2  O   UNL     1      -5.186 -10.380  17.748  0.00  0.00    -0.368 OA
ATOM      3  O   UNL     1      -6.539 -11.614  15.258  0.00  0.00    -0.368 OA
ATOM     13  C   UNL     1      -5.425 -10.705  15.407  0.00  0.00    +0.177 C 
ATOM     14  C   UNL     1      -5.758  -9.791  16.569  0.00  0.00    +0.192 C 
ATOM     15  C   UNL     1      -4.201 -11.475  15.866  0.00  0.00    +0.168 C 
ATOM     16  C   UNL     1      -7.267  -9.831  16.601  0.00  0.00    +0.235 C 
ATOM     17  C   UNL     1      -4.371 -11.502  17.382  0.00  0.00    +0.190 C 
ATOM     18  C   UNL     1      -7.556 -11.260  16.205  0.00  0.00    +0.207 C 
ENDROOT
BRANCH  15   8
ATOM      8  N   UNL     1      -2.952 -10.881  15.385  0.00  0.00    -0.212 N 
ATOM      9  N   UNL     1      -2.080 -10.343  16.249  0.00  0.00    -0.043 NA
ATOM     10  N   UNL     1      -1.311 -10.157  14.166  0.00  0.00    -0.101 NA
ATOM     11  N   UNL     1      -1.078  -9.903  15.499  0.00  0.00    -0.022 NA
ATOM     19  C   UNL     1      -2.475 -10.763  14.118  0.00  0.00    +0.210 A 
BRANCH  19   1
ATOM      1  S   UNL     1      -3.304 -11.334  12.725  0.00  0.00    -0.077 S 
BRANCH   1  21
ATOM     21  C   UNL     1      -2.483 -10.396  11.402  0.00  0.00    +0.151 C 
BRANCH  21  23
ATOM      6  O   UNL     1      -4.004 -11.245   9.706  0.00  0.00    -0.467 OA
ATOM     23  C   UNL     1      -3.416 -10.148  10.251  0.00  0.00    +0.115 A 
ATOM     26  C   UNL     1      -3.823  -9.007   9.600  0.00  0.00    +0.045 A 
ATOM     30  C   UNL     1      -4.719  -9.431   8.589  0.00  0.00    +0.041 A 
ATOM     31  C   UNL     1      -4.795 -10.800   8.695  0.00  0.00    +0.195 A 
ENDBRANCH  21  23
ENDBRANCH   1  21
ENDBRANCH  19   1
ENDBRANCH  15   8
BRANCH  16   4
ATOM      4  O   UNL     1      -7.812  -9.508  17.861  0.00  0.00    -0.442 OA
BRANCH   4  20
ATOM      5  O   UNL     1     -10.002  -9.539  17.203  0.00  0.00    -0.226 OA
ATOM     12  N   UNL     1      -9.336 -10.345  19.297  0.00  0.00    -0.251 N 
ATOM     20  C   UNL     1      -9.151  -9.782  18.050  0.00  0.00    +0.405 C 
ATOM     34  H   UNL     1      -8.500 -10.469  19.863  0.00  0.00    +0.158 HD
BRANCH  12  22
ATOM     22  C   UNL     1     -10.547 -10.774  19.888  0.00  0.00    +0.036 A 
ATOM     24  C   UNL     1     -10.729 -12.120  20.206  0.00  0.00    +0.024 A 
ATOM     25  C   UNL     1     -11.559  -9.851  20.152  0.00  0.00    +0.024 A 
ATOM     27  C   UNL     1     -11.924 -12.543  20.789  0.00  0.00    +0.013 A 
ATOM     28  C   UNL     1     -12.754 -10.275  20.735  0.00  0.00    +0.013 A 
ATOM     29  C   UNL     1     -12.936 -11.619  21.053  0.00  0.00    +0.017 A 
BRANCH  29  32
ATOM      7  O   UNL     1     -15.215 -12.222  20.982  0.00  0.00    -0.292 OA
ATOM     32  C   UNL     1     -14.181 -12.061  21.660  0.00  0.00    +0.160 C 
ATOM     33  C   UNL     1     -14.250 -12.341  23.158  0.00  0.00    +0.091 C 
ENDBRANCH  29  32
ENDBRANCH  12  22
ENDBRANCH   4  20
ENDBRANCH  16   4
TORSDOF 8
ENDMDL
MODEL 9
REMARK VINA RESULT:      -6.5     16.902     18.940
REMARK  Name = 11911833
REMARK  9 active torsions:
REMARK  status: ('A' for Active; 'I' for Inactive)
REMARK    1  A    between atoms: S_1  and  C_19
REMARK    2  A    between atoms: S_1  and  C_21
REMARK    3  A    between atoms: O_4  and  C_16
REMARK    4  A    between atoms: O_4  and  C_20
REMARK    5  A    between atoms: N_8  and  C_15
REMARK    6  A    between atoms: N_12  and  C_22
REMARK    7  A    between atoms: C_21  and  C_23
REMARK    8  A    between atoms: C_29  and  C_32
REMARK    9  A    between atoms: C_32  and  C_33
REMARK                            x       y       z     vdW  Elec       q    Type
REMARK                         _______ _______ _______ _____ _____    ______ ____
ROOT
ATOM      2  O   UNL     1      13.006   7.115   5.251  0.00  0.00    -0.368 OA
ATOM      3  O   UNL     1      14.877   9.207   6.548  0.00  0.00    -0.368 OA
ATOM     13  C   UNL     1      13.640   9.335   5.811  0.00  0.00    +0.177 C 
ATOM     14  C   UNL     1      13.666   8.277   4.725  0.00  0.00    +0.192 C 
ATOM     15  C   UNL     1      12.477   8.940   6.700  0.00  0.00    +0.168 C 
ATOM     16  C   UNL     1      15.144   8.039   4.528  0.00  0.00    +0.235 C 
ATOM     17  C   UNL     1      12.416   7.427   6.521  0.00  0.00    +0.190 C 
ATOM     18  C   UNL     1      15.681   8.191   5.932  0.00  0.00    +0.207 C 
ENDROOT
BRANCH  15   8
ATOM      8  N   UNL     1      11.247   9.661   6.366  0.00  0.00    -0.212 N 
ATOM      9  N   UNL     1      11.275  10.691   5.509  0.00  0.00    -0.043 NA
ATOM     10  N   UNL     1       9.195  10.352   6.235  0.00  0.00    -0.101 NA
ATOM     11  N   UNL     1      10.018  11.110   5.431  0.00  0.00    -0.022 NA
ATOM     19  C   UNL     1       9.975   9.462   6.803  0.00  0.00    +0.210 A 
BRANCH  19   1
ATOM      1  S   UNL     1       9.525   8.231   7.915  0.00  0.00    -0.077 S 
BRANCH   1  21
ATOM     21  C   UNL     1       8.359   7.252   6.922  0.00  0.00    +0.151 C 
BRANCH  21  23
ATOM      6  O   UNL     1       9.250   6.826   4.701  0.00  0.00    -0.467 OA
ATOM     23  C   UNL     1       9.083   6.351   5.963  0.00  0.00    +0.115 A 
ATOM     26  C   UNL     1       9.639   5.099   6.085  0.00  0.00    +0.045 A 
ATOM     30  C   UNL     1      10.181   4.784   4.817  0.00  0.00    +0.041 A 
ATOM     31  C   UNL     1       9.918   5.866   4.009  0.00  0.00    +0.195 A 
ENDBRANCH  21  23
ENDBRANCH   1  21
ENDBRANCH  19   1
ENDBRANCH  15   8
BRANCH  16   4
ATOM      4  O   UNL     1      15.442   6.776   3.978  0.00  0.00    -0.442 OA
BRANCH   4  20
ATOM      5  O   UNL     1      15.424   7.173   1.726  0.00  0.00    -0.226 OA
ATOM     12  N   UNL     1      14.086   5.513   2.692  0.00  0.00    -0.251 N 
ATOM     20  C   UNL     1      15.012   6.538   2.689  0.00  0.00    +0.405 C 
ATOM     34  H   UNL     1      13.870   5.105   3.598  0.00  0.00    +0.158 HD
BRANCH  12  22
ATOM     22  C   UNL     1      13.400   4.957   1.589  0.00  0.00    +0.036 A 
ATOM     24  C   UNL     1      12.117   5.403   1.268  0.00  0.00    +0.024 A 
ATOM     25  C   UNL     1      14.004   3.961   0.821  0.00  0.00    +0.024 A 
ATOM     27  C   UNL     1      11.440   4.854   0.180  0.00  0.00    +0.013 A 
ATOM     28  C   UNL     1      13.326   3.413  -0.268  0.00  0.00    +0.013 A 
ATOM     29  C   UNL     1      12.045   3.858  -0.588  0.00  0.00    +0.017 A 
BRANCH  29  32
ATOM      7  O   UNL     1      10.249   3.753  -2.113  0.00  0.00    -0.292 OA
ATOM     32  C   UNL     1      11.338   3.286  -1.722  0.00  0.00    +0.160 C 
ATOM     33  C   UNL     1      11.919   2.090  -2.468  0.00  0.00    +0.091 C 
ENDBRANCH  29  32
ENDBRANCH  12  22
ENDBRANCH   4  20
ENDBRANCH  16   4
TORSDOF 8
ENDMDL
MODEL 10
REMARK VINA RESULT:      -6.4     14.904     16.332
REMARK  Name = 11911833
REMARK  9 active torsions:
REMARK  status: ('A' for Active; 'I' for Inactive)
REMARK    1  A    between atoms: S_1  and  C_19
REMARK    2  A    between atoms: S_1  and  C_21
REMARK    3  A    between atoms: O_4  and  C_16
REMARK    4  A    between atoms: O_4  and  C_20
REMARK    5  A    between atoms: N_8  and  C_15
REMARK    6  A    between atoms: N_12  and  C_22
REMARK    7  A    between atoms: C_21  and  C_23
REMARK    8  A    between atoms: C_29  and  C_32
REMARK    9  A    between atoms: C_32  and  C_33
REMARK                            x       y       z     vdW  Elec       q    Type
REMARK                         _______ _______ _______ _____ _____    ______ ____
ROOT
ATOM      2  O   UNL     1      12.643   8.966   7.424  0.00  0.00    -0.368 OA
ATOM      3  O   UNL     1      12.735   7.918   4.517  0.00  0.00    -0.368 OA
ATOM     13  C   UNL     1      12.616   7.242   5.789  0.00  0.00    +0.177 C 
ATOM     14  C   UNL     1      13.485   8.002   6.772  0.00  0.00    +0.192 C 
ATOM     15  C   UNL     1      11.206   7.408   6.321  0.00  0.00    +0.168 C 
ATOM     16  C   UNL     1      14.501   8.665   5.873  0.00  0.00    +0.235 C 
ATOM     17  C   UNL     1      11.276   8.746   7.048  0.00  0.00    +0.190 C 
ATOM     18  C   UNL     1      13.678   8.991   4.649  0.00  0.00    +0.207 C 
ENDROOT
BRANCH  15   8
ATOM      8  N   UNL     1      10.778   6.271   7.138  0.00  0.00    -0.212 N 
ATOM      9  N   UNL     1      11.253   6.113   8.382  0.00  0.00    -0.043 NA
ATOM     10  N   UNL     1       9.839   4.463   7.884  0.00  0.00    -0.101 NA
ATOM     11  N   UNL     1      10.675   5.007   8.834  0.00  0.00    -0.022 NA
ATOM     19  C   UNL     1       9.917   5.261   6.844  0.00  0.00    +0.210 A 
BRANCH  19   1
ATOM      1  S   UNL     1       9.096   5.109   5.342  0.00  0.00    -0.077 S 
BRANCH   1  21
ATOM     21  C   UNL     1       7.995   6.555   5.381  0.00  0.00    +0.151 C 
BRANCH  21  23
ATOM      6  O   UNL     1       7.461   8.568   4.128  0.00  0.00    -0.467 OA
ATOM     23  C   UNL     1       8.234   7.453   4.202  0.00  0.00    +0.115 A 
ATOM     26  C   UNL     1       9.101   7.395   3.135  0.00  0.00    +0.045 A 
ATOM     30  C   UNL     1       8.843   8.547   2.355  0.00  0.00    +0.041 A 
ATOM     31  C   UNL     1       7.837   9.228   3.001  0.00  0.00    +0.195 A 
ENDBRANCH  21  23
ENDBRANCH   1  21
ENDBRANCH  19   1
ENDBRANCH  15   8
BRANCH  16   4
ATOM      4  O   UNL     1      15.089   9.815   6.439  0.00  0.00    -0.442 OA
BRANCH   4  20
ATOM      5  O   UNL     1      17.009  11.056   6.382  0.00  0.00    -0.226 OA
ATOM     12  N   UNL     1      17.016   8.759   5.934  0.00  0.00    -0.251 N 
ATOM     20  C   UNL     1      16.447   9.974   6.259  0.00  0.00    +0.405 C 
ATOM     34  H   UNL     1      16.382   7.966   5.879  0.00  0.00    +0.158 HD
BRANCH  12  22
ATOM     22  C   UNL     1      18.376   8.477   5.669  0.00  0.00    +0.036 A 
ATOM     24  C   UNL     1      19.316   8.545   6.697  0.00  0.00    +0.024 A 
ATOM     25  C   UNL     1      18.777   8.130   4.378  0.00  0.00    +0.024 A 
ATOM     27  C   UNL     1      20.658   8.267   6.434  0.00  0.00    +0.013 A 
ATOM     28  C   UNL     1      20.119   7.852   4.117  0.00  0.00    +0.013 A 
ATOM     29  C   UNL     1      21.058   7.920   5.144  0.00  0.00    +0.017 A 
BRANCH  29  32
ATOM      7  O   UNL     1      22.806   6.569   4.317  0.00  0.00    -0.292 OA
ATOM     32  C   UNL     1      22.457   7.631   4.871  0.00  0.00    +0.160 C 
ATOM     33  C   UNL     1      23.540   8.631   5.262  0.00  0.00    +0.091 C 
ENDBRANCH  29  32
ENDBRANCH  12  22
ENDBRANCH   4  20
ENDBRANCH  16   4
TORSDOF 8
ENDMDL
