MODEL 1
REMARK VINA RESULT:      -7.1      0.000      0.000
REMARK  Name = 75536879
REMARK  3 active torsions:
REMARK  status: ('A' for Active; 'I' for Inactive)
REMARK    1  A    between atoms: O_3  and  C_11
REMARK    2  A    between atoms: O_3  and  C_14
REMARK    3  A    between atoms: C_5  and  C_8
REMARK                            x       y       z     vdW  Elec       q    Type
REMARK                         _______ _______ _______ _____ _____    ______ ____
ROOT
ATOM      1  O   UNL     1      -1.147   3.917  25.499  0.00  0.00    -0.376 OA
ATOM      2  O   UNL     1      -1.145  -0.886  24.460  0.00  0.00    -0.275 OA
ATOM      4  N   UNL     1      -2.274   1.158  24.476  0.00  0.00    -0.297 N 
ATOM      8  C   UNL     1      -2.173  -0.235  24.625  0.00  0.00    +0.219 C 
ATOM      9  C   UNL     1      -3.532   1.880  24.687  0.00  0.00    +0.141 C 
ATOM     10  C   UNL     1      -1.081   1.916  24.096  0.00  0.00    +0.136 C 
ATOM     11  C   UNL     1      -3.446   3.397  24.858  0.00  0.00    +0.161 C 
ATOM     12  C   UNL     1      -2.488   3.821  25.969  0.00  0.00    +0.193 C 
ATOM     13  C   UNL     1      -0.500   2.667  25.287  0.00  0.00    +0.179 C 
ENDROOT
BRANCH   8   5
ATOM      5  C   UNL     1      -3.409  -0.973  25.033  0.00  0.00    +0.075 C 
ATOM      6  C   UNL     1      -4.200  -1.669  23.977  0.00  0.00    +0.013 C 
ATOM      7  C   UNL     1      -3.398  -2.463  24.967  0.00  0.00    +0.013 C 
ENDBRANCH   8   5
BRANCH  11   3
ATOM      3  O   UNL     1      -4.761   3.849  25.186  0.00  0.00    -0.376 OA
ATOM     14  C   UNL     1      -5.539   2.805  25.752  0.00  0.00    +0.194 C 
ENDBRANCH  11   3
TORSDOF 2
ENDMDL
MODEL 2
REMARK VINA RESULT:      -5.7      1.431      3.994
REMARK  Name = 75536879
REMARK  3 active torsions:
REMARK  status: ('A' for Active; 'I' for Inactive)
REMARK    1  A    between atoms: O_3  and  C_11
REMARK    2  A    between atoms: O_3  and  C_14
REMARK    3  A    between atoms: C_5  and  C_8
REMARK                            x       y       z     vdW  Elec       q    Type
REMARK                         _______ _______ _______ _____ _____    ______ ____
ROOT
ATOM      1  O   UNL     1       0.798   1.902  24.323  0.00  0.00    -0.376 OA
ATOM      2  O   UNL     1      -3.624   3.868  25.182  0.00  0.00    -0.275 OA
ATOM      4  N   UNL     1      -2.236   1.989  25.173  0.00  0.00    -0.297 N 
ATOM      8  C   UNL     1      -3.450   2.669  24.979  0.00  0.00    +0.219 C 
ATOM      9  C   UNL     1      -2.090   0.554  24.913  0.00  0.00    +0.141 C 
ATOM     10  C   UNL     1      -1.075   2.741  25.653  0.00  0.00    +0.136 C 
ATOM     11  C   UNL     1      -0.667   0.006  24.803  0.00  0.00    +0.161 C 
ATOM     12  C   UNL     1       0.181   0.744  23.770  0.00  0.00    +0.193 C 
ATOM     13  C   UNL     1      -0.082   3.002  24.528  0.00  0.00    +0.179 C 
ENDROOT
BRANCH   8   5
ATOM      5  C   UNL     1      -4.609   1.872  24.469  0.00  0.00    +0.075 C 
ATOM      6  C   UNL     1      -5.211   0.844  25.366  0.00  0.00    +0.013 C 
ATOM      7  C   UNL     1      -5.953   2.114  25.069  0.00  0.00    +0.013 C 
ENDBRANCH   8   5
BRANCH  11   3
ATOM      3  O   UNL     1      -0.784  -1.363  24.412  0.00  0.00    -0.376 OA
ATOM     14  C   UNL     1      -2.101  -1.850  24.621  0.00  0.00    +0.194 C 
ENDBRANCH  11   3
TORSDOF 2
ENDMDL
MODEL 3
REMARK VINA RESULT:      -5.7      1.636      4.317
REMARK  Name = 75536879
REMARK  3 active torsions:
REMARK  status: ('A' for Active; 'I' for Inactive)
REMARK    1  A    between atoms: O_3  and  C_11
REMARK    2  A    between atoms: O_3  and  C_14
REMARK    3  A    between atoms: C_5  and  C_8
REMARK                            x       y       z     vdW  Elec       q    Type
REMARK                         _______ _______ _______ _____ _____    ______ ____
ROOT
ATOM      1  O   UNL     1      -2.531  -1.758  24.524  0.00  0.00    -0.376 OA
ATOM      2  O   UNL     1       0.428   2.121  25.124  0.00  0.00    -0.275 OA
ATOM      4  N   UNL     1      -1.711   1.192  25.271  0.00  0.00    -0.297 N 
ATOM      8  C   UNL     1      -0.790   2.219  24.998  0.00  0.00    +0.219 C 
ATOM      9  C   UNL     1      -3.156   1.370  25.102  0.00  0.00    +0.141 C 
ATOM     10  C   UNL     1      -1.208  -0.100  25.741  0.00  0.00    +0.136 C 
ATOM     11  C   UNL     1      -4.015   0.105  25.071  0.00  0.00    +0.161 C 
ATOM     12  C   UNL     1      -3.555  -0.906  24.022  0.00  0.00    +0.193 C 
ATOM     13  C   UNL     1      -1.251  -1.145  24.635  0.00  0.00    +0.179 C 
ENDROOT
BRANCH   8   5
ATOM      5  C   UNL     1      -1.340   3.519  24.501  0.00  0.00    +0.075 C 
ATOM      6  C   UNL     1      -1.876   4.489  25.498  0.00  0.00    +0.013 C 
ATOM      7  C   UNL     1      -0.579   4.767  24.795  0.00  0.00    +0.013 C 
ENDBRANCH   8   5
BRANCH  11   3
ATOM      3  O   UNL     1      -5.346   0.521  24.759  0.00  0.00    -0.376 OA
ATOM     14  C   UNL     1      -5.550   1.887  25.086  0.00  0.00    +0.194 C 
ENDBRANCH  11   3
TORSDOF 2
ENDMDL
MODEL 4
REMARK VINA RESULT:      -4.9     15.482     17.591
REMARK  Name = 75536879
REMARK  3 active torsions:
REMARK  status: ('A' for Active; 'I' for Inactive)
REMARK    1  A    between atoms: O_3  and  C_11
REMARK    2  A    between atoms: O_3  and  C_14
REMARK    3  A    between atoms: C_5  and  C_8
REMARK                            x       y       z     vdW  Elec       q    Type
REMARK                         _______ _______ _______ _____ _____    ______ ____
ROOT
ATOM      1  O   UNL     1      10.647   8.080  22.713  0.00  0.00    -0.376 OA
ATOM      2  O   UNL     1      12.043   6.991  18.128  0.00  0.00    -0.275 OA
ATOM      4  N   UNL     1      12.298   8.311  20.039  0.00  0.00    -0.297 N 
ATOM      8  C   UNL     1      12.253   8.082  18.653  0.00  0.00    +0.219 C 
ATOM      9  C   UNL     1      12.554   9.638  20.606  0.00  0.00    +0.141 C 
ATOM     10  C   UNL     1      12.082   7.184  20.948  0.00  0.00    +0.136 C 
ATOM     11  C   UNL     1      12.220   9.841  22.084  0.00  0.00    +0.161 C 
ATOM     12  C   UNL     1      10.779   9.470  22.429  0.00  0.00    +0.193 C 
ATOM     13  C   UNL     1      10.693   7.234  21.570  0.00  0.00    +0.179 C 
ENDROOT
BRANCH   8   5
ATOM      5  C   UNL     1      12.459   9.261  17.755  0.00  0.00    +0.075 C 
ATOM      6  C   UNL     1      13.398   9.122  16.606  0.00  0.00    +0.013 C 
ATOM      7  C   UNL     1      11.918   9.197  16.367  0.00  0.00    +0.013 C 
ENDBRANCH   8   5
BRANCH  11   3
ATOM      3  O   UNL     1      12.417  11.229  22.363  0.00  0.00    -0.376 OA
ATOM     14  C   UNL     1      11.295  12.001  21.963  0.00  0.00    +0.194 C 
ENDBRANCH  11   3
TORSDOF 2
ENDMDL
MODEL 5
REMARK VINA RESULT:      -4.8     22.085     23.606
REMARK  Name = 75536879
REMARK  3 active torsions:
REMARK  status: ('A' for Active; 'I' for Inactive)
REMARK    1  A    between atoms: O_3  and  C_11
REMARK    2  A    between atoms: O_3  and  C_14
REMARK    3  A    between atoms: C_5  and  C_8
REMARK                            x       y       z     vdW  Elec       q    Type
REMARK                         _______ _______ _______ _____ _____    ______ ____
ROOT
ATOM      1  O   UNL     1       8.330   7.691   7.626  0.00  0.00    -0.376 OA
ATOM      2  O   UNL     1       9.487   6.649   2.964  0.00  0.00    -0.275 OA
ATOM      4  N   UNL     1       9.320   5.956   5.188  0.00  0.00    -0.297 N 
ATOM      8  C   UNL     1       9.926   6.018   3.922  0.00  0.00    +0.219 C 
ATOM      9  C   UNL     1       9.893   5.183   6.294  0.00  0.00    +0.141 C 
ATOM     10  C   UNL     1       8.072   6.688   5.411  0.00  0.00    +0.136 C 
ATOM     11  C   UNL     1       9.365   5.479   7.699  0.00  0.00    +0.161 C 
ATOM     12  C   UNL     1       9.463   6.955   8.077  0.00  0.00    +0.193 C 
ATOM     13  C   UNL     1       8.311   7.952   6.227  0.00  0.00    +0.179 C 
ENDROOT
BRANCH   8   5
ATOM      5  C   UNL     1      11.210   5.272   3.738  0.00  0.00    +0.075 C 
ATOM      6  C   UNL     1      11.237   4.134   2.775  0.00  0.00    +0.013 C 
ATOM      7  C   UNL     1      11.935   5.420   2.443  0.00  0.00    +0.013 C 
ENDBRANCH   8   5
BRANCH  11   3
ATOM      3  O   UNL     1      10.163   4.716   8.606  0.00  0.00    -0.376 OA
ATOM     14  C   UNL     1       9.513   4.557   9.858  0.00  0.00    +0.194 C 
ENDBRANCH  11   3
TORSDOF 2
ENDMDL
MODEL 6
REMARK VINA RESULT:      -4.5     12.292     14.149
REMARK  Name = 75536879
REMARK  3 active torsions:
REMARK  status: ('A' for Active; 'I' for Inactive)
REMARK    1  A    between atoms: O_3  and  C_11
REMARK    2  A    between atoms: O_3  and  C_14
REMARK    3  A    between atoms: C_5  and  C_8
REMARK                            x       y       z     vdW  Elec       q    Type
REMARK                         _______ _______ _______ _____ _____    ______ ____
ROOT
ATOM      1  O   UNL     1     -10.989  11.123  15.084  0.00  0.00    -0.376 OA
ATOM      2  O   UNL     1     -10.628   9.761  19.792  0.00  0.00    -0.275 OA
ATOM      4  N   UNL     1     -10.432   9.215  17.530  0.00  0.00    -0.297 N 
ATOM      8  C   UNL     1     -10.766   8.961  18.871  0.00  0.00    +0.219 C 
ATOM      9  C   UNL     1     -10.620   8.218  16.472  0.00  0.00    +0.141 C 
ATOM     10  C   UNL     1      -9.876  10.522  17.176  0.00  0.00    +0.136 C 
ATOM     11  C   UNL     1     -10.573   8.716  15.027  0.00  0.00    +0.161 C 
ATOM     12  C   UNL     1     -11.551   9.857  14.755  0.00  0.00    +0.193 C 
ATOM     13  C   UNL     1     -10.912  11.394  16.479  0.00  0.00    +0.179 C 
ENDROOT
BRANCH   8   5
ATOM      5  C   UNL     1     -11.350   7.621  19.190  0.00  0.00    +0.075 C 
ATOM      6  C   UNL     1     -11.549   7.258  20.623  0.00  0.00    +0.013 C 
ATOM      7  C   UNL     1     -12.731   7.566  19.751  0.00  0.00    +0.013 C 
ENDBRANCH   8   5
BRANCH  11   3
ATOM      3  O   UNL     1     -10.919   7.604  14.199  0.00  0.00    -0.376 OA
ATOM     14  C   UNL     1     -10.133   7.577  13.017  0.00  0.00    +0.194 C 
ENDBRANCH  11   3
TORSDOF 2
ENDMDL
MODEL 7
REMARK VINA RESULT:      -4.5     21.966     23.667
REMARK  Name = 75536879
REMARK  3 active torsions:
REMARK  status: ('A' for Active; 'I' for Inactive)
REMARK    1  A    between atoms: O_3  and  C_11
REMARK    2  A    between atoms: O_3  and  C_14
REMARK    3  A    between atoms: C_5  and  C_8
REMARK                            x       y       z     vdW  Elec       q    Type
REMARK                         _______ _______ _______ _____ _____    ______ ____
ROOT
ATOM      1  O   UNL     1       8.248   7.303   7.321  0.00  0.00    -0.376 OA
ATOM      2  O   UNL     1      12.307   7.943   4.625  0.00  0.00    -0.275 OA
ATOM      4  N   UNL     1      11.162   6.734   6.263  0.00  0.00    -0.297 N 
ATOM      8  C   UNL     1      12.298   7.330   5.689  0.00  0.00    +0.219 C 
ATOM      9  C   UNL     1      11.214   6.014   7.538  0.00  0.00    +0.141 C 
ATOM     10  C   UNL     1       9.881   6.836   5.562  0.00  0.00    +0.136 C 
ATOM     11  C   UNL     1       9.882   5.734   8.236  0.00  0.00    +0.161 C 
ATOM     12  C   UNL     1       9.046   6.992   8.459  0.00  0.00    +0.193 C 
ATOM     13  C   UNL     1       8.967   7.858   6.226  0.00  0.00    +0.179 C 
ENDROOT
BRANCH   8   5
ATOM      5  C   UNL     1      13.585   7.221   6.444  0.00  0.00    +0.075 C 
ATOM      6  C   UNL     1      14.864   7.329   5.685  0.00  0.00    +0.013 C 
ATOM      7  C   UNL     1      14.427   8.444   6.588  0.00  0.00    +0.013 C 
ENDBRANCH   8   5
BRANCH  11   3
ATOM      3  O   UNL     1      10.197   5.158   9.506  0.00  0.00    -0.376 OA
ATOM     14  C   UNL     1       9.031   4.690  10.165  0.00  0.00    +0.194 C 
ENDBRANCH  11   3
TORSDOF 2
ENDMDL
MODEL 8
REMARK VINA RESULT:      -4.3     16.468     18.273
REMARK  Name = 75536879
REMARK  3 active torsions:
REMARK  status: ('A' for Active; 'I' for Inactive)
REMARK    1  A    between atoms: O_3  and  C_11
REMARK    2  A    between atoms: O_3  and  C_14
REMARK    3  A    between atoms: C_5  and  C_8
REMARK                            x       y       z     vdW  Elec       q    Type
REMARK                         _______ _______ _______ _____ _____    ______ ____
ROOT
ATOM      1  O   UNL     1      11.954  10.905  23.624  0.00  0.00    -0.376 OA
ATOM      2  O   UNL     1      10.472   8.365  19.686  0.00  0.00    -0.275 OA
ATOM      4  N   UNL     1      12.199   9.000  21.126  0.00  0.00    -0.297 N 
ATOM      8  C   UNL     1      11.641   8.693  19.873  0.00  0.00    +0.219 C 
ATOM      9  C   UNL     1      13.604   9.385  21.285  0.00  0.00    +0.141 C 
ATOM     10  C   UNL     1      11.346   8.932  22.314  0.00  0.00    +0.136 C 
ATOM     11  C   UNL     1      14.002  10.042  22.608  0.00  0.00    +0.161 C 
ATOM     12  C   UNL     1      13.154  11.266  22.947  0.00  0.00    +0.193 C 
ATOM     13  C   UNL     1      10.955  10.324  22.794  0.00  0.00    +0.179 C 
ENDROOT
BRANCH   8   5
ATOM      5  C   UNL     1      12.538   8.792  18.679  0.00  0.00    +0.075 C 
ATOM      6  C   UNL     1      12.850   7.546  17.922  0.00  0.00    +0.013 C 
ATOM      7  C   UNL     1      11.943   8.584  17.328  0.00  0.00    +0.013 C 
ENDBRANCH   8   5
BRANCH  11   3
ATOM      3  O   UNL     1      15.365  10.448  22.470  0.00  0.00    -0.376 OA
ATOM     14  C   UNL     1      16.056   9.631  21.538  0.00  0.00    +0.194 C 
ENDBRANCH  11   3
TORSDOF 2
ENDMDL
MODEL 9
REMARK VINA RESULT:      -4.2     14.154     15.828
REMARK  Name = 75536879
REMARK  3 active torsions:
REMARK  status: ('A' for Active; 'I' for Inactive)
REMARK    1  A    between atoms: O_3  and  C_11
REMARK    2  A    between atoms: O_3  and  C_14
REMARK    3  A    between atoms: C_5  and  C_8
REMARK                            x       y       z     vdW  Elec       q    Type
REMARK                         _______ _______ _______ _____ _____    ______ ____
ROOT
ATOM      1  O   UNL     1      -4.915 -11.550  13.221  0.00  0.00    -0.376 OA
ATOM      2  O   UNL     1      -7.141 -10.029  17.330  0.00  0.00    -0.275 OA
ATOM      4  N   UNL     1      -5.172 -10.306  16.106  0.00  0.00    -0.297 N 
ATOM      8  C   UNL     1      -5.946 -10.308  17.278  0.00  0.00    +0.219 C 
ATOM      9  C   UNL     1      -3.747 -10.648  16.107  0.00  0.00    +0.141 C 
ATOM     10  C   UNL     1      -5.811  -9.949  14.838  0.00  0.00    +0.136 C 
ATOM     11  C   UNL     1      -3.105 -10.968  14.756  0.00  0.00    +0.161 C 
ATOM     12  C   UNL     1      -3.836 -12.070  13.992  0.00  0.00    +0.193 C 
ATOM     13  C   UNL     1      -6.062 -11.181  13.979  0.00  0.00    +0.179 C 
ENDROOT
BRANCH   8   5
ATOM      5  C   UNL     1      -5.263 -10.697  18.551  0.00  0.00    +0.075 C 
ATOM      6  C   UNL     1      -6.094 -10.869  19.777  0.00  0.00    +0.013 C 
ATOM      7  C   UNL     1      -5.502 -12.066  19.093  0.00  0.00    +0.013 C 
ENDBRANCH   8   5
BRANCH  11   3
ATOM      3  O   UNL     1      -1.771 -11.403  15.029  0.00  0.00    -0.376 OA
ATOM     14  C   UNL     1      -1.045 -10.420  15.751  0.00  0.00    +0.194 C 
ENDBRANCH  11   3
TORSDOF 2
ENDMDL
MODEL 10
REMARK VINA RESULT:      -4.0     20.473     22.581
REMARK  Name = 75536879
REMARK  3 active torsions:
REMARK  status: ('A' for Active; 'I' for Inactive)
REMARK    1  A    between atoms: O_3  and  C_11
REMARK    2  A    between atoms: O_3  and  C_14
REMARK    3  A    between atoms: C_5  and  C_8
REMARK                            x       y       z     vdW  Elec       q    Type
REMARK                         _______ _______ _______ _____ _____    ______ ____
ROOT
ATOM      1  O   UNL     1      19.479  -7.133  24.942  0.00  0.00    -0.376 OA
ATOM      2  O   UNL     1      16.233  -3.456  24.629  0.00  0.00    -0.275 OA
ATOM      4  N   UNL     1      17.623  -4.996  23.556  0.00  0.00    -0.297 N 
ATOM      8  C   UNL     1      17.013  -3.742  23.724  0.00  0.00    +0.219 C 
ATOM      9  C   UNL     1      18.547  -5.278  22.453  0.00  0.00    +0.141 C 
ATOM     10  C   UNL     1      17.323  -6.061  24.515  0.00  0.00    +0.136 C 
ATOM     11  C   UNL     1      19.418  -6.529  22.575  0.00  0.00    +0.161 C 
ATOM     12  C   UNL     1      20.228  -6.571  23.869  0.00  0.00    +0.193 C 
ATOM     13  C   UNL     1      18.480  -6.275  25.482  0.00  0.00    +0.179 C 
ENDROOT
BRANCH   8   5
ATOM      5  C   UNL     1      17.359  -2.673  22.735  0.00  0.00    +0.075 C 
ATOM      6  C   UNL     1      16.513  -1.445  22.695  0.00  0.00    +0.013 C 
ATOM      7  C   UNL     1      17.907  -1.384  23.248  0.00  0.00    +0.013 C 
ENDBRANCH   8   5
BRANCH  11   3
ATOM      3  O   UNL     1      20.319  -6.510  21.467  0.00  0.00    -0.376 OA
ATOM     14  C   UNL     1      19.952  -5.520  20.519  0.00  0.00    +0.194 C 
ENDBRANCH  11   3
TORSDOF 2
ENDMDL
