MODEL 1
REMARK VINA RESULT:      -7.3      0.000      0.000
REMARK  Name = 45361202
REMARK  7 active torsions:
REMARK  status: ('A' for Active; 'I' for Inactive)
REMARK    1  A    between atoms: O_3  and  C_27
REMARK    2  A    between atoms: N_4  and  C_19
REMARK    3  A    between atoms: N_5  and  C_18
REMARK    4  A    between atoms: C_13  and  C_17
REMARK    5  A    between atoms: C_17  and  C_20
REMARK    6  A    between atoms: C_18  and  C_21
REMARK    7  A    between atoms: C_20  and  C_22
REMARK                            x       y       z     vdW  Elec       q    Type
REMARK                         _______ _______ _______ _____ _____    ______ ____
ROOT
ATOM      1  O   UNL     1      13.908  10.309  22.307  0.00  0.00    -0.274 OA
ATOM      4  N   UNL     1      14.450   7.695  19.503  0.00  0.00    -0.296 NA
ATOM      5  N   UNL     1      11.658   9.147  21.370  0.00  0.00    -0.283 NA
ATOM      6  N   UNL     1      15.175   8.408  22.203  0.00  0.00    -0.312 N 
ATOM     10  C   UNL     1      13.079   7.679  20.060  0.00  0.00    +0.084 C 
ATOM     11  C   UNL     1      12.847   8.282  21.476  0.00  0.00    +0.161 C 
ATOM     12  C   UNL     1      12.051   8.451  19.212  0.00  0.00    +0.036 C 
ATOM     13  C   UNL     1      15.436   6.883  20.269  0.00  0.00    +0.074 C 
ATOM     14  C   UNL     1      10.922   8.721  20.185  0.00  0.00    +0.087 C 
ATOM     15  C   UNL     1      15.344   7.025  21.801  0.00  0.00    +0.123 C 
ATOM     16  C   UNL     1      14.004   9.118  22.020  0.00  0.00    +0.232 C 
ATOM     19  C   UNL     1      14.445   7.290  18.087  0.00  0.00    +0.105 C 
ATOM     30  H   UNL     1      15.959   8.886  22.636  0.00  0.00    +0.149 HD
ENDROOT
BRANCH  13  17
ATOM     17  C   UNL     1      16.876   7.249  19.854  0.00  0.00    +0.029 C 
BRANCH  17  20
ATOM     20  C   UNL     1      17.886   6.870  20.919  0.00  0.00    +0.097 C 
BRANCH  20  22
ATOM      2  O   UNL     1      18.518   5.083  19.498  0.00  0.00    -0.276 OA
ATOM      7  N   UNL     1      20.126   5.831  20.999  0.00  0.00    -0.301 N 
ATOM     22  C   UNL     1      18.866   5.846  20.403  0.00  0.00    +0.216 C 
ATOM     23  C   UNL     1      20.567   6.727  22.076  0.00  0.00    +0.110 C 
ATOM     24  C   UNL     1      21.147   4.896  20.521  0.00  0.00    +0.110 C 
ATOM     25  C   UNL     1      21.117   5.927  23.254  0.00  0.00    +0.050 C 
ATOM     26  C   UNL     1      21.705   4.064  21.670  0.00  0.00    +0.050 C 
ATOM     27  C   UNL     1      22.208   4.956  22.806  0.00  0.00    +0.118 C 
BRANCH  27   3
ATOM      3  O   UNL     1      22.593   4.154  23.915  0.00  0.00    -0.392 OA
ATOM     32  H   UNL     1      21.786   3.761  24.287  0.00  0.00    +0.210 HD
ENDBRANCH  27   3
ENDBRANCH  20  22
ENDBRANCH  17  20
ENDBRANCH  13  17
BRANCH   5  18
ATOM     18  C   UNL     1      10.824   9.134  22.565  0.00  0.00    +0.159 C 
BRANCH  18  21
ATOM      8  N   UNL     1      11.362  10.407  24.655  0.00  0.00    -0.347 N 
ATOM      9  N   UNL     1      10.698  11.628  22.923  0.00  0.00    -0.239 NA
ATOM     21  C   UNL     1      10.950  10.412  23.352  0.00  0.00    +0.121 A 
ATOM     28  C   UNL     1      11.373  11.705  25.086  0.00  0.00    +0.104 A 
ATOM     29  C   UNL     1      10.959  12.439  24.000  0.00  0.00    +0.130 A 
ATOM     31  H   UNL     1      11.614   9.594  25.202  0.00  0.00    +0.167 HD
ENDBRANCH  18  21
ENDBRANCH   5  18
TORSDOF 6
ENDMDL
MODEL 2
REMARK VINA RESULT:      -7.2      2.707      3.893
REMARK  Name = 45361202
REMARK  7 active torsions:
REMARK  status: ('A' for Active; 'I' for Inactive)
REMARK    1  A    between atoms: O_3  and  C_27
REMARK    2  A    between atoms: N_4  and  C_19
REMARK    3  A    between atoms: N_5  and  C_18
REMARK    4  A    between atoms: C_13  and  C_17
REMARK    5  A    between atoms: C_17  and  C_20
REMARK    6  A    between atoms: C_18  and  C_21
REMARK    7  A    between atoms: C_20  and  C_22
REMARK                            x       y       z     vdW  Elec       q    Type
REMARK                         _______ _______ _______ _____ _____    ______ ____
ROOT
ATOM      1  O   UNL     1      14.450   7.403  22.354  0.00  0.00    -0.274 OA
ATOM      4  N   UNL     1      17.647   9.205  21.120  0.00  0.00    -0.296 NA
ATOM      5  N   UNL     1      14.132   8.920  20.143  0.00  0.00    -0.283 NA
ATOM      6  N   UNL     1      16.523   6.629  21.772  0.00  0.00    -0.312 N 
ATOM     10  C   UNL     1      16.537   9.250  20.142  0.00  0.00    +0.084 C 
ATOM     11  C   UNL     1      15.406   8.186  20.257  0.00  0.00    +0.161 C 
ATOM     12  C   UNL     1      15.740  10.567  20.160  0.00  0.00    +0.036 C 
ATOM     13  C   UNL     1      18.478   7.971  21.054  0.00  0.00    +0.074 C 
ATOM     14  C   UNL     1      14.429  10.195  19.500  0.00  0.00    +0.087 C 
ATOM     15  C   UNL     1      17.681   6.660  20.901  0.00  0.00    +0.123 C 
ATOM     16  C   UNL     1      15.392   7.395  21.564  0.00  0.00    +0.232 C 
ATOM     19  C   UNL     1      18.499  10.401  20.998  0.00  0.00    +0.105 C 
ATOM     30  H   UNL     1      16.542   6.019  22.583  0.00  0.00    +0.149 HD
ENDROOT
BRANCH  13  17
ATOM     17  C   UNL     1      19.349   7.838  22.320  0.00  0.00    +0.029 C 
BRANCH  17  20
ATOM     20  C   UNL     1      20.107   6.525  22.352  0.00  0.00    +0.097 C 
BRANCH  20  22
ATOM      2  O   UNL     1      21.902   7.817  21.500  0.00  0.00    -0.276 OA
ATOM      7  N   UNL     1      22.345   5.574  21.914  0.00  0.00    -0.301 N 
ATOM     22  C   UNL     1      21.530   6.704  21.884  0.00  0.00    +0.216 C 
ATOM     23  C   UNL     1      21.929   4.239  22.366  0.00  0.00    +0.110 C 
ATOM     24  C   UNL     1      23.751   5.678  21.519  0.00  0.00    +0.110 C 
ATOM     25  C   UNL     1      22.238   3.188  21.303  0.00  0.00    +0.050 C 
ATOM     26  C   UNL     1      24.091   4.655  20.441  0.00  0.00    +0.050 C 
ATOM     27  C   UNL     1      23.705   3.241  20.879  0.00  0.00    +0.118 C 
BRANCH  27   3
ATOM      3  O   UNL     1      23.906   2.331  19.804  0.00  0.00    -0.392 OA
ATOM     32  H   UNL     1      24.233   2.843  19.045  0.00  0.00    +0.210 HD
ENDBRANCH  27   3
ENDBRANCH  20  22
ENDBRANCH  17  20
ENDBRANCH  13  17
BRANCH   5  18
ATOM     18  C   UNL     1      13.098   8.177  19.434  0.00  0.00    +0.159 C 
BRANCH  18  21
ATOM      8  N   UNL     1      12.082   6.202  20.593  0.00  0.00    -0.347 N 
ATOM      9  N   UNL     1      11.190   8.175  21.085  0.00  0.00    -0.239 NA
ATOM     21  C   UNL     1      12.107   7.552  20.380  0.00  0.00    +0.121 A 
ATOM     28  C   UNL     1      11.084   5.948  21.493  0.00  0.00    +0.104 A 
ATOM     29  C   UNL     1      10.548   7.181  21.780  0.00  0.00    +0.130 A 
ATOM     31  H   UNL     1      12.691   5.515  20.166  0.00  0.00    +0.167 HD
ENDBRANCH  18  21
ENDBRANCH   5  18
TORSDOF 6
ENDMDL
MODEL 3
REMARK VINA RESULT:      -7.0     27.088     29.369
REMARK  Name = 45361202
REMARK  7 active torsions:
REMARK  status: ('A' for Active; 'I' for Inactive)
REMARK    1  A    between atoms: O_3  and  C_27
REMARK    2  A    between atoms: N_4  and  C_19
REMARK    3  A    between atoms: N_5  and  C_18
REMARK    4  A    between atoms: C_13  and  C_17
REMARK    5  A    between atoms: C_17  and  C_20
REMARK    6  A    between atoms: C_18  and  C_21
REMARK    7  A    between atoms: C_20  and  C_22
REMARK                            x       y       z     vdW  Elec       q    Type
REMARK                         _______ _______ _______ _____ _____    ______ ____
ROOT
ATOM      1  O   UNL     1      -6.347 -10.197  20.180  0.00  0.00    -0.274 OA
ATOM      4  N   UNL     1      -5.679 -10.478  16.376  0.00  0.00    -0.296 NA
ATOM      5  N   UNL     1      -8.471 -10.952  18.694  0.00  0.00    -0.283 NA
ATOM      6  N   UNL     1      -4.819 -11.397  18.972  0.00  0.00    -0.312 N 
ATOM     10  C   UNL     1      -6.973 -11.067  16.788  0.00  0.00    +0.084 C 
ATOM     11  C   UNL     1      -7.159 -11.480  18.277  0.00  0.00    +0.161 C 
ATOM     12  C   UNL     1      -8.182 -10.142  16.559  0.00  0.00    +0.036 C 
ATOM     13  C   UNL     1      -4.513 -11.393  16.515  0.00  0.00    +0.074 C 
ATOM     14  C   UNL     1      -9.242 -10.712  17.478  0.00  0.00    +0.087 C 
ATOM     15  C   UNL     1      -4.480 -12.210  17.821  0.00  0.00    +0.123 C 
ATOM     16  C   UNL     1      -6.097 -10.942  19.235  0.00  0.00    +0.232 C 
ATOM     19  C   UNL     1      -5.756  -9.953  15.002  0.00  0.00    +0.105 C 
ATOM     30  H   UNL     1      -4.080 -11.140  19.620  0.00  0.00    +0.149 HD
ENDROOT
BRANCH  13  17
ATOM     17  C   UNL     1      -3.191 -10.602  16.429  0.00  0.00    +0.029 C 
BRANCH  17  20
ATOM     20  C   UNL     1      -2.158 -11.314  15.579  0.00  0.00    +0.097 C 
BRANCH  20  22
ATOM      2  O   UNL     1      -1.115  -9.412  14.626  0.00  0.00    -0.276 OA
ATOM      7  N   UNL     1      -2.063 -10.926  13.141  0.00  0.00    -0.301 N 
ATOM     22  C   UNL     1      -1.728 -10.461  14.412  0.00  0.00    +0.216 C 
ATOM     23  C   UNL     1      -2.791 -12.170  12.856  0.00  0.00    +0.110 C 
ATOM     24  C   UNL     1      -1.640 -10.176  11.956  0.00  0.00    +0.110 C 
ATOM     25  C   UNL     1      -4.002 -11.897  11.968  0.00  0.00    +0.050 C 
ATOM     26  C   UNL     1      -2.830  -9.867  11.054  0.00  0.00    +0.050 C 
ATOM     27  C   UNL     1      -3.604 -11.139  10.702  0.00  0.00    +0.118 C 
BRANCH  27   3
ATOM      3  O   UNL     1      -4.781 -10.804   9.978  0.00  0.00    -0.392 OA
ATOM     32  H   UNL     1      -4.513 -10.578   9.071  0.00  0.00    +0.210 HD
ENDBRANCH  27   3
ENDBRANCH  20  22
ENDBRANCH  17  20
ENDBRANCH  13  17
BRANCH   5  18
ATOM     18  C   UNL     1      -9.176 -11.824  19.625  0.00  0.00    +0.159 C 
BRANCH  18  21
ATOM      8  N   UNL     1     -10.713 -10.040  20.481  0.00  0.00    -0.347 N 
ATOM      9  N   UNL     1     -11.690 -11.922  19.820  0.00  0.00    -0.239 NA
ATOM     21  C   UNL     1     -10.544 -11.294  19.964  0.00  0.00    +0.121 A 
ATOM     28  C   UNL     1     -12.053  -9.856  20.680  0.00  0.00    +0.104 A 
ATOM     29  C   UNL     1     -12.634 -11.031  20.265  0.00  0.00    +0.130 A 
ATOM     31  H   UNL     1      -9.982  -9.369  20.680  0.00  0.00    +0.167 HD
ENDBRANCH  18  21
ENDBRANCH   5  18
TORSDOF 6
ENDMDL
MODEL 4
REMARK VINA RESULT:      -7.0      2.712      9.574
REMARK  Name = 45361202
REMARK  7 active torsions:
REMARK  status: ('A' for Active; 'I' for Inactive)
REMARK    1  A    between atoms: O_3  and  C_27
REMARK    2  A    between atoms: N_4  and  C_19
REMARK    3  A    between atoms: N_5  and  C_18
REMARK    4  A    between atoms: C_13  and  C_17
REMARK    5  A    between atoms: C_17  and  C_20
REMARK    6  A    between atoms: C_18  and  C_21
REMARK    7  A    between atoms: C_20  and  C_22
REMARK                            x       y       z     vdW  Elec       q    Type
REMARK                         _______ _______ _______ _____ _____    ______ ____
ROOT
ATOM      1  O   UNL     1      20.277   6.230  23.996  0.00  0.00    -0.274 OA
ATOM      4  N   UNL     1      18.223   6.884  20.780  0.00  0.00    -0.296 NA
ATOM      5  N   UNL     1      21.400   5.324  21.714  0.00  0.00    -0.283 NA
ATOM      6  N   UNL     1      19.448   8.148  23.066  0.00  0.00    -0.312 N 
ATOM     10  C   UNL     1      19.606   6.429  20.508  0.00  0.00    +0.084 C 
ATOM     11  C   UNL     1      20.677   6.606  21.625  0.00  0.00    +0.161 C 
ATOM     12  C   UNL     1      19.719   4.927  20.192  0.00  0.00    +0.036 C 
ATOM     13  C   UNL     1      18.089   8.350  21.005  0.00  0.00    +0.074 C 
ATOM     14  C   UNL     1      21.178   4.620  20.456  0.00  0.00    +0.087 C 
ATOM     15  C   UNL     1      19.176   8.971  21.904  0.00  0.00    +0.123 C 
ATOM     16  C   UNL     1      20.120   6.942  23.007  0.00  0.00    +0.232 C 
ATOM     19  C   UNL     1      17.310   6.445  19.711  0.00  0.00    +0.105 C 
ATOM     30  H   UNL     1      19.122   8.467  23.973  0.00  0.00    +0.149 HD
ENDROOT
BRANCH  13  17
ATOM     17  C   UNL     1      16.721   8.676  21.638  0.00  0.00    +0.029 C 
BRANCH  17  20
ATOM     20  C   UNL     1      16.020   9.812  20.920  0.00  0.00    +0.097 C 
BRANCH  20  22
ATOM      2  O   UNL     1      14.063   9.811  22.255  0.00  0.00    -0.276 OA
ATOM      7  N   UNL     1      13.753   9.597  19.962  0.00  0.00    -0.301 N 
ATOM     22  C   UNL     1      14.526   9.742  21.113  0.00  0.00    +0.216 C 
ATOM     23  C   UNL     1      14.277   9.513  18.592  0.00  0.00    +0.110 C 
ATOM     24  C   UNL     1      12.292   9.568  20.065  0.00  0.00    +0.110 C 
ATOM     25  C   UNL     1      13.742   8.271  17.885  0.00  0.00    +0.050 C 
ATOM     26  C   UNL     1      11.723   8.327  19.385  0.00  0.00    +0.050 C 
ATOM     27  C   UNL     1      12.216   8.212  17.941  0.00  0.00    +0.118 C 
BRANCH  27   3
ATOM      3  O   UNL     1      11.782   6.979  17.381  0.00  0.00    -0.392 OA
ATOM     32  H   UNL     1      11.598   6.371  18.116  0.00  0.00    +0.210 HD
ENDBRANCH  27   3
ENDBRANCH  20  22
ENDBRANCH  17  20
ENDBRANCH  13  17
BRANCH   5  18
ATOM     18  C   UNL     1      22.818   5.480  22.011  0.00  0.00    +0.159 C 
BRANCH  18  21
ATOM      8  N   UNL     1      22.910   4.616  24.361  0.00  0.00    -0.347 N 
ATOM      9  N   UNL     1      24.064   3.457  22.859  0.00  0.00    -0.239 NA
ATOM     21  C   UNL     1      23.284   4.497  23.052  0.00  0.00    +0.121 A 
ATOM     28  C   UNL     1      23.488   3.585  25.048  0.00  0.00    +0.104 A 
ATOM     29  C   UNL     1      24.196   2.884  24.100  0.00  0.00    +0.130 A 
ATOM     31  H   UNL     1      22.312   5.333  24.752  0.00  0.00    +0.167 HD
ENDBRANCH  18  21
ENDBRANCH   5  18
TORSDOF 6
ENDMDL
MODEL 5
REMARK VINA RESULT:      -6.8     27.118     29.455
REMARK  Name = 45361202
REMARK  7 active torsions:
REMARK  status: ('A' for Active; 'I' for Inactive)
REMARK    1  A    between atoms: O_3  and  C_27
REMARK    2  A    between atoms: N_4  and  C_19
REMARK    3  A    between atoms: N_5  and  C_18
REMARK    4  A    between atoms: C_13  and  C_17
REMARK    5  A    between atoms: C_17  and  C_20
REMARK    6  A    between atoms: C_18  and  C_21
REMARK    7  A    between atoms: C_20  and  C_22
REMARK                            x       y       z     vdW  Elec       q    Type
REMARK                         _______ _______ _______ _____ _____    ______ ____
ROOT
ATOM      1  O   UNL     1      -6.340  -9.538  16.653  0.00  0.00    -0.274 OA
ATOM      4  N   UNL     1      -4.178 -12.464  15.330  0.00  0.00    -0.296 NA
ATOM      5  N   UNL     1      -6.820 -11.932  17.806  0.00  0.00    -0.283 NA
ATOM      6  N   UNL     1      -4.076  -9.833  16.509  0.00  0.00    -0.312 N 
ATOM     10  C   UNL     1      -4.924 -12.800  16.564  0.00  0.00    +0.084 C 
ATOM     11  C   UNL     1      -5.415 -11.635  17.473  0.00  0.00    +0.161 C 
ATOM     12  C   UNL     1      -6.226 -13.582  16.315  0.00  0.00    +0.036 C 
ATOM     13  C   UNL     1      -2.875 -11.782  15.563  0.00  0.00    +0.074 C 
ATOM     14  C   UNL     1      -7.020 -13.360  17.585  0.00  0.00    +0.087 C 
ATOM     15  C   UNL     1      -2.904 -10.677  16.637  0.00  0.00    +0.123 C 
ATOM     16  C   UNL     1      -5.354 -10.248  16.835  0.00  0.00    +0.232 C 
ATOM     19  C   UNL     1      -3.986 -13.662  14.494  0.00  0.00    +0.105 C 
ATOM     30  H   UNL     1      -3.959  -8.889  16.155  0.00  0.00    +0.149 HD
ENDROOT
BRANCH  13  17
ATOM     17  C   UNL     1      -2.358 -11.146  14.256  0.00  0.00    +0.029 C 
BRANCH  17  20
ATOM     20  C   UNL     1      -3.488 -10.608  13.401  0.00  0.00    +0.097 C 
BRANCH  20  22
ATOM      2  O   UNL     1      -1.842 -10.430  11.706  0.00  0.00    -0.276 OA
ATOM      7  N   UNL     1      -4.054 -10.221  11.027  0.00  0.00    -0.301 N 
ATOM     22  C   UNL     1      -3.047 -10.413  11.972  0.00  0.00    +0.216 C 
ATOM     23  C   UNL     1      -5.495 -10.198  11.315  0.00  0.00    +0.110 C 
ATOM     24  C   UNL     1      -3.707 -10.071   9.612  0.00  0.00    +0.110 C 
ATOM     25  C   UNL     1      -6.135  -8.925  10.766  0.00  0.00    +0.050 C 
ATOM     26  C   UNL     1      -4.314  -8.797   9.035  0.00  0.00    +0.050 C 
ATOM     27  C   UNL     1      -5.823  -8.741   9.282  0.00  0.00    +0.118 C 
BRANCH  27   3
ATOM      3  O   UNL     1      -6.335  -7.484   8.857  0.00  0.00    -0.392 OA
ATOM     32  H   UNL     1      -7.129  -7.656   8.325  0.00  0.00    +0.210 HD
ENDBRANCH  27   3
ENDBRANCH  20  22
ENDBRANCH  17  20
ENDBRANCH  13  17
BRANCH   5  18
ATOM     18  C   UNL     1      -7.192 -11.529  19.156  0.00  0.00    +0.159 C 
BRANCH  18  21
ATOM      8  N   UNL     1      -8.945  -9.986  18.250  0.00  0.00    -0.347 N 
ATOM      9  N   UNL     1      -9.497 -11.103  20.089  0.00  0.00    -0.239 NA
ATOM     21  C   UNL     1      -8.555 -10.892  19.197  0.00  0.00    +0.121 A 
ATOM     28  C   UNL     1     -10.219  -9.594  18.558  0.00  0.00    +0.104 A 
ATOM     29  C   UNL     1     -10.537 -10.297  19.696  0.00  0.00    +0.130 A 
ATOM     31  H   UNL     1      -8.395  -9.665  17.464  0.00  0.00    +0.167 HD
ENDBRANCH  18  21
ENDBRANCH   5  18
TORSDOF 6
ENDMDL
MODEL 6
REMARK VINA RESULT:      -6.6     17.801     21.262
REMARK  Name = 45361202
REMARK  7 active torsions:
REMARK  status: ('A' for Active; 'I' for Inactive)
REMARK    1  A    between atoms: O_3  and  C_27
REMARK    2  A    between atoms: N_4  and  C_19
REMARK    3  A    between atoms: N_5  and  C_18
REMARK    4  A    between atoms: C_13  and  C_17
REMARK    5  A    between atoms: C_17  and  C_20
REMARK    6  A    between atoms: C_18  and  C_21
REMARK    7  A    between atoms: C_20  and  C_22
REMARK                            x       y       z     vdW  Elec       q    Type
REMARK                         _______ _______ _______ _____ _____    ______ ____
ROOT
ATOM      1  O   UNL     1      10.534   4.054   4.446  0.00  0.00    -0.274 OA
ATOM      4  N   UNL     1      12.831   6.165   2.153  0.00  0.00    -0.296 NA
ATOM      5  N   UNL     1      11.127   6.520   5.372  0.00  0.00    -0.283 NA
ATOM      6  N   UNL     1      10.349   4.699   2.259  0.00  0.00    -0.312 N 
ATOM     10  C   UNL     1      12.214   6.951   3.245  0.00  0.00    +0.084 C 
ATOM     11  C   UNL     1      10.923   6.398   3.917  0.00  0.00    +0.161 C 
ATOM     12  C   UNL     1      13.137   7.170   4.457  0.00  0.00    +0.036 C 
ATOM     13  C   UNL     1      11.979   6.017   0.941  0.00  0.00    +0.074 C 
ATOM     14  C   UNL     1      12.176   7.514   5.575  0.00  0.00    +0.087 C 
ATOM     15  C   UNL     1      10.497   5.702   1.224  0.00  0.00    +0.123 C 
ATOM     16  C   UNL     1      10.601   4.939   3.596  0.00  0.00    +0.232 C 
ATOM     19  C   UNL     1      14.146   6.720   1.789  0.00  0.00    +0.105 C 
ATOM     30  H   UNL     1      10.051   3.765   1.992  0.00  0.00    +0.149 HD
ENDROOT
BRANCH  13  17
ATOM     17  C   UNL     1      12.525   4.899   0.029  0.00  0.00    +0.029 C 
BRANCH  17  20
ATOM     20  C   UNL     1      12.945   5.429  -1.328  0.00  0.00    +0.097 C 
BRANCH  20  22
ATOM      2  O   UNL     1      11.175   6.670  -2.299  0.00  0.00    -0.276 OA
ATOM      7  N   UNL     1      11.389   4.461  -2.985  0.00  0.00    -0.301 N 
ATOM     22  C   UNL     1      11.758   5.583  -2.245  0.00  0.00    +0.216 C 
ATOM     23  C   UNL     1      12.063   3.156  -2.941  0.00  0.00    +0.110 C 
ATOM     24  C   UNL     1      10.275   4.545  -3.932  0.00  0.00    +0.110 C 
ATOM     25  C   UNL     1      11.063   2.040  -2.652  0.00  0.00    +0.050 C 
ATOM     26  C   UNL     1       9.243   3.456  -3.658  0.00  0.00    +0.050 C 
ATOM     27  C   UNL     1       9.894   2.072  -3.636  0.00  0.00    +0.118 C 
BRANCH  27   3
ATOM      3  O   UNL     1       8.936   1.096  -3.243  0.00  0.00    -0.392 OA
ATOM     32  H   UNL     1       8.263   1.545  -2.706  0.00  0.00    +0.210 HD
ENDBRANCH  27   3
ENDBRANCH  20  22
ENDBRANCH  17  20
ENDBRANCH  13  17
BRANCH   5  18
ATOM     18  C   UNL     1       9.910   6.852   6.101  0.00  0.00    +0.159 C 
BRANCH  18  21
ATOM      8  N   UNL     1      10.068   4.651   7.289  0.00  0.00    -0.347 N 
ATOM      9  N   UNL     1       9.235   6.333   8.476  0.00  0.00    -0.239 NA
ATOM     21  C   UNL     1       9.723   5.974   7.310  0.00  0.00    +0.121 A 
ATOM     28  C   UNL     1       9.781   4.133   8.521  0.00  0.00    +0.104 A 
ATOM     29  C   UNL     1       9.268   5.190   9.236  0.00  0.00    +0.130 A 
ATOM     31  H   UNL     1      10.464   4.147   6.506  0.00  0.00    +0.167 HD
ENDBRANCH  18  21
ENDBRANCH   5  18
TORSDOF 6
ENDMDL
MODEL 7
REMARK VINA RESULT:      -6.5     27.973     31.597
REMARK  Name = 45361202
REMARK  7 active torsions:
REMARK  status: ('A' for Active; 'I' for Inactive)
REMARK    1  A    between atoms: O_3  and  C_27
REMARK    2  A    between atoms: N_4  and  C_19
REMARK    3  A    between atoms: N_5  and  C_18
REMARK    4  A    between atoms: C_13  and  C_17
REMARK    5  A    between atoms: C_17  and  C_20
REMARK    6  A    between atoms: C_18  and  C_21
REMARK    7  A    between atoms: C_20  and  C_22
REMARK                            x       y       z     vdW  Elec       q    Type
REMARK                         _______ _______ _______ _____ _____    ______ ____
ROOT
ATOM      1  O   UNL     1      -5.486  -9.323  16.301  0.00  0.00    -0.274 OA
ATOM      4  N   UNL     1      -8.721 -10.358  18.159  0.00  0.00    -0.296 NA
ATOM      5  N   UNL     1      -5.606 -11.917  17.039  0.00  0.00    -0.283 NA
ATOM      6  N   UNL     1      -7.698  -9.172  15.737  0.00  0.00    -0.312 N 
ATOM     10  C   UNL     1      -7.894 -11.512  17.739  0.00  0.00    +0.084 C 
ATOM     11  C   UNL     1      -6.869 -11.306  16.585  0.00  0.00    +0.161 C 
ATOM     12  C   UNL     1      -7.006 -12.086  18.858  0.00  0.00    +0.036 C 
ATOM     13  C   UNL     1      -9.646  -9.847  17.110  0.00  0.00    +0.074 C 
ATOM     14  C   UNL     1      -5.942 -12.856  18.104  0.00  0.00    +0.087 C 
ATOM     15  C   UNL     1      -9.032  -9.739  15.700  0.00  0.00    +0.123 C 
ATOM     16  C   UNL     1      -6.594  -9.850  16.216  0.00  0.00    +0.232 C 
ATOM     19  C   UNL     1      -9.468 -10.672  19.390  0.00  0.00    +0.105 C 
ATOM     30  H   UNL     1      -7.565  -8.223  15.400  0.00  0.00    +0.149 HD
ENDROOT
BRANCH  13  17
ATOM     17  C   UNL     1     -10.178  -8.451  17.493  0.00  0.00    +0.029 C 
BRANCH  17  20
ATOM     20  C   UNL     1     -11.516  -8.156  16.844  0.00  0.00    +0.097 C 
BRANCH  20  22
ATOM      2  O   UNL     1     -10.487  -6.212  15.964  0.00  0.00    -0.276 OA
ATOM      7  N   UNL     1     -12.368  -6.986  14.842  0.00  0.00    -0.301 N 
ATOM     22  C   UNL     1     -11.404  -7.030  15.847  0.00  0.00    +0.216 C 
ATOM     23  C   UNL     1     -13.469  -7.945  14.679  0.00  0.00    +0.110 C 
ATOM     24  C   UNL     1     -12.299  -5.949  13.810  0.00  0.00    +0.110 C 
ATOM     25  C   UNL     1     -14.810  -7.220  14.596  0.00  0.00    +0.050 C 
ATOM     26  C   UNL     1     -13.617  -5.189  13.713  0.00  0.00    +0.050 C 
ATOM     27  C   UNL     1     -14.794  -6.145  13.510  0.00  0.00    +0.118 C 
BRANCH  27   3
ATOM      3  O   UNL     1     -16.018  -5.422  13.562  0.00  0.00    -0.392 OA
ATOM     32  H   UNL     1     -15.999  -4.871  14.363  0.00  0.00    +0.210 HD
ENDBRANCH  27   3
ENDBRANCH  20  22
ENDBRANCH  17  20
ENDBRANCH  13  17
BRANCH   5  18
ATOM     18  C   UNL     1      -4.853 -12.554  15.966  0.00  0.00    +0.159 C 
BRANCH  18  21
ATOM      8  N   UNL     1      -2.960 -11.095  16.716  0.00  0.00    -0.347 N 
ATOM      9  N   UNL     1      -2.723 -12.034  14.718  0.00  0.00    -0.239 NA
ATOM     21  C   UNL     1      -3.507 -11.910  15.765  0.00  0.00    +0.121 A 
ATOM     28  C   UNL     1      -1.748 -10.672  16.245  0.00  0.00    +0.104 A 
ATOM     29  C   UNL     1      -1.625 -11.264  15.010  0.00  0.00    +0.130 A 
ATOM     31  H   UNL     1      -3.373 -10.851  17.607  0.00  0.00    +0.167 HD
ENDBRANCH  18  21
ENDBRANCH   5  18
TORSDOF 6
ENDMDL
MODEL 8
REMARK VINA RESULT:      -6.5     14.695     15.923
REMARK  Name = 45361202
REMARK  7 active torsions:
REMARK  status: ('A' for Active; 'I' for Inactive)
REMARK    1  A    between atoms: O_3  and  C_27
REMARK    2  A    between atoms: N_4  and  C_19
REMARK    3  A    between atoms: N_5  and  C_18
REMARK    4  A    between atoms: C_13  and  C_17
REMARK    5  A    between atoms: C_17  and  C_20
REMARK    6  A    between atoms: C_18  and  C_21
REMARK    7  A    between atoms: C_20  and  C_22
REMARK                            x       y       z     vdW  Elec       q    Type
REMARK                         _______ _______ _______ _____ _____    ______ ____
ROOT
ATOM      1  O   UNL     1      13.132   6.205   7.750  0.00  0.00    -0.274 OA
ATOM      4  N   UNL     1      14.398   9.672   6.579  0.00  0.00    -0.296 NA
ATOM      5  N   UNL     1      11.200   8.024   7.251  0.00  0.00    -0.283 NA
ATOM      6  N   UNL     1      14.467   6.846   6.005  0.00  0.00    -0.312 N 
ATOM     10  C   UNL     1      12.938   9.495   6.409  0.00  0.00    +0.084 C 
ATOM     11  C   UNL     1      12.369   8.047   6.352  0.00  0.00    +0.161 C 
ATOM     12  C   UNL     1      12.097  10.125   7.534  0.00  0.00    +0.036 C 
ATOM     13  C   UNL     1      15.218   9.141   5.455  0.00  0.00    +0.074 C 
ATOM     14  C   UNL     1      10.768   9.407   7.427  0.00  0.00    +0.087 C 
ATOM     15  C   UNL     1      14.778   7.762   4.926  0.00  0.00    +0.123 C 
ATOM     16  C   UNL     1      13.339   6.954   6.796  0.00  0.00    +0.232 C 
ATOM     19  C   UNL     1      14.727  11.086   6.828  0.00  0.00    +0.105 C 
ATOM     30  H   UNL     1      15.113   6.087   6.200  0.00  0.00    +0.149 HD
ENDROOT
BRANCH  13  17
ATOM     17  C   UNL     1      16.698   9.027   5.874  0.00  0.00    +0.029 C 
BRANCH  17  20
ATOM     20  C   UNL     1      17.568   8.509   4.746  0.00  0.00    +0.097 C 
BRANCH  20  22
ATOM      2  O   UNL     1      18.468  10.462   3.752  0.00  0.00    -0.276 OA
ATOM      7  N   UNL     1      19.945   9.146   4.971  0.00  0.00    -0.301 N 
ATOM     22  C   UNL     1      18.695   9.464   4.442  0.00  0.00    +0.216 C 
ATOM     23  C   UNL     1      20.243   7.966   5.794  0.00  0.00    +0.110 C 
ATOM     24  C   UNL     1      21.078  10.049   4.758  0.00  0.00    +0.110 C 
ATOM     25  C   UNL     1      21.416   7.183   5.211  0.00  0.00    +0.050 C 
ATOM     26  C   UNL     1      22.263   9.303   4.155  0.00  0.00    +0.050 C 
ATOM     27  C   UNL     1      22.634   8.081   4.997  0.00  0.00    +0.118 C 
BRANCH  27   3
ATOM      3  O   UNL     1      23.648   7.331   4.340  0.00  0.00    -0.392 OA
ATOM     32  H   UNL     1      23.235   6.879   3.585  0.00  0.00    +0.210 HD
ENDBRANCH  27   3
ENDBRANCH  20  22
ENDBRANCH  17  20
ENDBRANCH  13  17
BRANCH   5  18
ATOM     18  C   UNL     1      10.120   7.170   6.773  0.00  0.00    +0.159 C 
BRANCH  18  21
ATOM      8  N   UNL     1      10.264   4.810   7.600  0.00  0.00    -0.347 N 
ATOM      9  N   UNL     1       9.044   6.194   8.836  0.00  0.00    -0.239 NA
ATOM     21  C   UNL     1       9.788   6.081   7.758  0.00  0.00    +0.121 A 
ATOM     28  C   UNL     1       9.793   4.063   8.644  0.00  0.00    +0.104 A 
ATOM     29  C   UNL     1       9.043   4.939   9.392  0.00  0.00    +0.130 A 
ATOM     31  H   UNL     1      10.858   4.480   6.850  0.00  0.00    +0.167 HD
ENDBRANCH  18  21
ENDBRANCH   5  18
TORSDOF 6
ENDMDL
MODEL 9
REMARK VINA RESULT:      -6.5     30.683     32.957
REMARK  Name = 45361202
REMARK  7 active torsions:
REMARK  status: ('A' for Active; 'I' for Inactive)
REMARK    1  A    between atoms: O_3  and  C_27
REMARK    2  A    between atoms: N_4  and  C_19
REMARK    3  A    between atoms: N_5  and  C_18
REMARK    4  A    between atoms: C_13  and  C_17
REMARK    5  A    between atoms: C_17  and  C_20
REMARK    6  A    between atoms: C_18  and  C_21
REMARK    7  A    between atoms: C_20  and  C_22
REMARK                            x       y       z     vdW  Elec       q    Type
REMARK                         _______ _______ _______ _____ _____    ______ ____
ROOT
ATOM      1  O   UNL     1     -17.208   1.928  22.353  0.00  0.00    -0.274 OA
ATOM      4  N   UNL     1     -18.130   4.050  25.458  0.00  0.00    -0.296 NA
ATOM      5  N   UNL     1     -18.119   4.413  21.816  0.00  0.00    -0.283 NA
ATOM      6  N   UNL     1     -16.011   2.547  24.202  0.00  0.00    -0.312 N 
ATOM     10  C   UNL     1     -18.079   4.838  24.206  0.00  0.00    +0.084 C 
ATOM     11  C   UNL     1     -17.261   4.272  23.008  0.00  0.00    +0.161 C 
ATOM     12  C   UNL     1     -19.457   5.084  23.565  0.00  0.00    +0.036 C 
ATOM     13  C   UNL     1     -16.813   3.876  26.132  0.00  0.00    +0.074 C 
ATOM     14  C   UNL     1     -19.122   5.425  22.128  0.00  0.00    +0.087 C 
ATOM     15  C   UNL     1     -15.641   3.542  25.189  0.00  0.00    +0.123 C 
ATOM     16  C   UNL     1     -16.854   2.806  23.137  0.00  0.00    +0.232 C 
ATOM     19  C   UNL     1     -19.112   4.621  26.395  0.00  0.00    +0.105 C 
ATOM     30  H   UNL     1     -15.641   1.606  24.297  0.00  0.00    +0.149 HD
ENDROOT
BRANCH  13  17
ATOM     17  C   UNL     1     -16.891   2.757  27.191  0.00  0.00    +0.029 C 
BRANCH  17  20
ATOM     20  C   UNL     1     -15.893   2.967  28.312  0.00  0.00    +0.097 C 
BRANCH  20  22
ATOM      2  O   UNL     1     -15.853   0.601  28.423  0.00  0.00    -0.276 OA
ATOM      7  N   UNL     1     -14.807   1.737  30.158  0.00  0.00    -0.301 N 
ATOM     22  C   UNL     1     -15.519   1.659  28.962  0.00  0.00    +0.216 C 
ATOM     23  C   UNL     1     -14.396   2.981  30.822  0.00  0.00    +0.110 C 
ATOM     24  C   UNL     1     -14.367   0.509  30.826  0.00  0.00    +0.110 C 
ATOM     25  C   UNL     1     -14.861   2.997  32.276  0.00  0.00    +0.050 C 
ATOM     26  C   UNL     1     -14.834   0.482  32.277  0.00  0.00    +0.050 C 
ATOM     27  C   UNL     1     -14.400   1.746  33.022  0.00  0.00    +0.118 C 
BRANCH  27   3
ATOM      3  O   UNL     1     -14.966   1.754  34.327  0.00  0.00    -0.392 OA
ATOM     32  H   UNL     1     -15.932   1.766  34.228  0.00  0.00    +0.210 HD
ENDBRANCH  27   3
ENDBRANCH  20  22
ENDBRANCH  17  20
ENDBRANCH  13  17
BRANCH   5  18
ATOM     18  C   UNL     1     -17.377   4.734  20.604  0.00  0.00    +0.159 C 
BRANCH  18  21
ATOM      8  N   UNL     1     -14.990   5.249  21.167  0.00  0.00    -0.347 N 
ATOM      9  N   UNL     1     -16.312   7.007  20.866  0.00  0.00    -0.239 NA
ATOM     21  C   UNL     1     -16.248   5.694  20.874  0.00  0.00    +0.121 A 
ATOM     28  C   UNL     1     -14.200   6.348  21.358  0.00  0.00    +0.104 A 
ATOM     29  C   UNL     1     -15.039   7.421  21.168  0.00  0.00    +0.130 A 
ATOM     31  H   UNL     1     -14.694   4.283  21.230  0.00  0.00    +0.167 HD
ENDBRANCH  18  21
ENDBRANCH   5  18
TORSDOF 6
ENDMDL
MODEL 10
REMARK VINA RESULT:      -6.5     27.037     30.040
REMARK  Name = 45361202
REMARK  7 active torsions:
REMARK  status: ('A' for Active; 'I' for Inactive)
REMARK    1  A    between atoms: O_3  and  C_27
REMARK    2  A    between atoms: N_4  and  C_19
REMARK    3  A    between atoms: N_5  and  C_18
REMARK    4  A    between atoms: C_13  and  C_17
REMARK    5  A    between atoms: C_17  and  C_20
REMARK    6  A    between atoms: C_18  and  C_21
REMARK    7  A    between atoms: C_20  and  C_22
REMARK                            x       y       z     vdW  Elec       q    Type
REMARK                         _______ _______ _______ _____ _____    ______ ____
ROOT
ATOM      1  O   UNL     1      -1.117 -10.882  15.472  0.00  0.00    -0.274 OA
ATOM      4  N   UNL     1      -4.332 -12.860  16.336  0.00  0.00    -0.296 NA
ATOM      5  N   UNL     1      -2.214 -12.245  13.415  0.00  0.00    -0.283 NA
ATOM      6  N   UNL     1      -3.118 -10.243  16.380  0.00  0.00    -0.312 N 
ATOM     10  C   UNL     1      -4.078 -12.763  14.881  0.00  0.00    +0.084 C 
ATOM     11  C   UNL     1      -3.154 -11.621  14.364  0.00  0.00    +0.161 C 
ATOM     12  C   UNL     1      -3.410 -14.012  14.278  0.00  0.00    +0.036 C 
ATOM     13  C   UNL     1      -5.053 -11.693  16.915  0.00  0.00    +0.074 C 
ATOM     14  C   UNL     1      -2.812 -13.503  12.983  0.00  0.00    +0.087 C 
ATOM     15  C   UNL     1      -4.565 -10.317  16.421  0.00  0.00    +0.123 C 
ATOM     16  C   UNL     1      -2.346 -10.905  15.444  0.00  0.00    +0.232 C 
ATOM     19  C   UNL     1      -5.039 -14.110  16.661  0.00  0.00    +0.105 C 
ATOM     30  H   UNL     1      -2.640  -9.682  17.079  0.00  0.00    +0.149 HD
ENDROOT
BRANCH  13  17
ATOM     17  C   UNL     1      -4.943 -11.699  18.454  0.00  0.00    +0.029 C 
BRANCH  17  20
ATOM     20  C   UNL     1      -5.770 -10.597  19.086  0.00  0.00    +0.097 C 
BRANCH  20  22
ATOM      2  O   UNL     1      -7.467 -11.910  20.091  0.00  0.00    -0.276 OA
ATOM      7  N   UNL     1      -8.155 -10.386  18.478  0.00  0.00    -0.301 N 
ATOM     22  C   UNL     1      -7.204 -11.028  19.269  0.00  0.00    +0.216 C 
ATOM     23  C   UNL     1      -7.871  -9.334  17.493  0.00  0.00    +0.110 C 
ATOM     24  C   UNL     1      -9.574 -10.717  18.632  0.00  0.00    +0.110 C 
ATOM     25  C   UNL     1      -8.460  -9.694  16.132  0.00  0.00    +0.050 C 
ATOM     26  C   UNL     1     -10.192 -11.102  17.292  0.00  0.00    +0.050 C 
ATOM     27  C   UNL     1      -9.949 -10.020  16.239  0.00  0.00    +0.118 C 
BRANCH  27   3
ATOM      3  O   UNL     1     -10.414 -10.467  14.971  0.00  0.00    -0.392 OA
ATOM     32  H   UNL     1      -9.962  -9.940  14.291  0.00  0.00    +0.210 HD
ENDBRANCH  27   3
ENDBRANCH  20  22
ENDBRANCH  17  20
ENDBRANCH  13  17
BRANCH   5  18
ATOM     18  C   UNL     1      -1.873 -11.385  12.289  0.00  0.00    +0.159 C 
BRANCH  18  21
ATOM      8  N   UNL     1      -3.444 -11.626  10.353  0.00  0.00    -0.347 N 
ATOM      9  N   UNL     1      -3.931 -10.011  11.797  0.00  0.00    -0.239 NA
ATOM     21  C   UNL     1      -3.092 -10.979  11.504  0.00  0.00    +0.121 A 
ATOM     28  C   UNL     1      -4.581 -11.032   9.880  0.00  0.00    +0.104 A 
ATOM     29  C   UNL     1      -4.861 -10.038  10.788  0.00  0.00    +0.130 A 
ATOM     31  H   UNL     1      -2.955 -12.403   9.927  0.00  0.00    +0.167 HD
ENDBRANCH  18  21
ENDBRANCH   5  18
TORSDOF 6
ENDMDL
