MODEL 1
REMARK VINA RESULT:      -6.8      0.000      0.000
REMARK  Name = 26743195
REMARK  13 active torsions:
REMARK  status: ('A' for Active; 'I' for Inactive)
REMARK    1  A    between atoms: O_3  and  C_21
REMARK    2  A    between atoms: O_3  and  C_28
REMARK    3  A    between atoms: O_4  and  C_25
REMARK    4  A    between atoms: O_4  and  C_33
REMARK    5  A    between atoms: O_5  and  C_27
REMARK    6  A    between atoms: O_5  and  C_34
REMARK    7  A    between atoms: N_7  and  C_20
REMARK    8  A    between atoms: C_9  and  C_15
REMARK    9  A    between atoms: C_10  and  C_14
REMARK   10  A    between atoms: C_14  and  C_16
REMARK   11  A    between atoms: C_15  and  C_17
REMARK   12  A    between atoms: C_19  and  C_21
REMARK   13  A    between atoms: C_20  and  C_22
REMARK                            x       y       z     vdW  Elec       q    Type
REMARK                         _______ _______ _______ _____ _____    ______ ____
ROOT
ATOM      6  N   UNL     1      -3.655 -12.859  10.407  0.00  0.00    -0.316 NA
ATOM      9  C   UNL     1      -4.104 -11.208  12.810  0.00  0.00    +0.004 C 
ATOM     10  C   UNL     1      -4.590 -10.786  11.403  0.00  0.00    +0.012 C 
ATOM     11  C   UNL     1      -3.963 -12.738  12.855  0.00  0.00    +0.019 C 
ATOM     12  C   UNL     1      -3.721 -11.402  10.293  0.00  0.00    +0.085 C 
ATOM     13  C   UNL     1      -3.121 -13.280  11.700  0.00  0.00    +0.081 C 
ATOM     36  H   UNL     1      -3.065 -13.228   9.662  0.00  0.00    +0.122 HD
ENDROOT
BRANCH  10  14
ATOM     14  C   UNL     1      -4.686  -9.269  11.231  0.00  0.00    +0.064 C 
BRANCH  14  16
ATOM      2  O   UNL     1      -7.124  -7.997   8.908  0.00  0.00    -0.356 OA
ATOM      8  N   UNL     1      -5.816  -8.180   9.342  0.00  0.00    -0.083 NA
ATOM     16  C   UNL     1      -5.922  -8.881  10.474  0.00  0.00    +0.084 A 
ATOM     18  C   UNL     1      -7.259  -9.167  10.802  0.00  0.00    +0.074 A 
ATOM     19  C   UNL     1      -7.974  -8.589   9.786  0.00  0.00    +0.175 A 
BRANCH  19  21
ATOM     21  C   UNL     1      -9.406  -8.492   9.479  0.00  0.00    +0.306 C 
BRANCH  21   3
ATOM      3  O   UNL     1      -9.641  -7.439   8.540  0.00  0.00    -0.484 OA
BRANCH   3  28
ATOM     28  C   UNL     1     -10.291  -6.334   9.016  0.00  0.00    +0.121 A 
ATOM     29  C   UNL     1      -9.898  -5.062   8.599  0.00  0.00    +0.045 A 
ATOM     30  C   UNL     1     -11.344  -6.478   9.919  0.00  0.00    +0.045 A 
ATOM     31  C   UNL     1     -10.561  -3.934   9.083  0.00  0.00    +0.004 A 
ATOM     32  C   UNL     1     -12.006  -5.351  10.403  0.00  0.00    +0.004 A 
ATOM     35  C   UNL     1     -11.614  -4.078   9.986  0.00  0.00    +0.000 A 
ENDBRANCH   3  28
ENDBRANCH  21   3
ENDBRANCH  19  21
ENDBRANCH  14  16
ENDBRANCH  10  14
BRANCH   9  15
ATOM     15  C   UNL     1      -2.803 -10.526  13.250  0.00  0.00    +0.099 C 
BRANCH  15  17
ATOM      1  O   UNL     1      -1.306 -11.509  14.876  0.00  0.00    -0.276 OA
ATOM      7  N   UNL     1      -3.340 -10.633  15.581  0.00  0.00    -0.311 N 
ATOM     17  C   UNL     1      -2.374 -10.953  14.638  0.00  0.00    +0.214 C 
ATOM     37  H   UNL     1      -4.201 -10.184  15.286  0.00  0.00    +0.149 HD
BRANCH   7  20
ATOM     20  C   UNL     1      -3.196 -10.926  16.989  0.00  0.00    +0.139 C 
BRANCH  20  22
ATOM     22  C   UNL     1      -4.511 -10.879  17.710  0.00  0.00    -0.027 A 
ATOM     23  C   UNL     1      -5.575 -10.151  17.176  0.00  0.00    +0.054 A 
ATOM     24  C   UNL     1      -4.671 -11.565  18.915  0.00  0.00    +0.009 A 
ATOM     25  C   UNL     1      -6.797 -10.110  17.846  0.00  0.00    +0.162 A 
ATOM     26  C   UNL     1      -5.893 -11.523  19.585  0.00  0.00    +0.050 A 
ATOM     27  C   UNL     1      -6.957 -10.795  19.050  0.00  0.00    +0.162 A 
BRANCH  25   4
ATOM      4  O   UNL     1      -7.829  -9.397  17.313  0.00  0.00    -0.491 OA
ATOM     33  C   UNL     1      -8.603 -10.036  16.300  0.00  0.00    +0.277 C 
ENDBRANCH  25   4
BRANCH  27   5
ATOM      5  O   UNL     1      -8.146 -10.763  19.713  0.00  0.00    -0.491 OA
ATOM     34  C   UNL     1      -8.923 -11.959  19.709  0.00  0.00    +0.277 C 
ENDBRANCH  27   5
ENDBRANCH  20  22
ENDBRANCH   7  20
ENDBRANCH  15  17
ENDBRANCH   9  15
TORSDOF 11
ENDMDL
MODEL 2
REMARK VINA RESULT:      -6.6      3.048      6.876
REMARK  Name = 26743195
REMARK  13 active torsions:
REMARK  status: ('A' for Active; 'I' for Inactive)
REMARK    1  A    between atoms: O_3  and  C_21
REMARK    2  A    between atoms: O_3  and  C_28
REMARK    3  A    between atoms: O_4  and  C_25
REMARK    4  A    between atoms: O_4  and  C_33
REMARK    5  A    between atoms: O_5  and  C_27
REMARK    6  A    between atoms: O_5  and  C_34
REMARK    7  A    between atoms: N_7  and  C_20
REMARK    8  A    between atoms: C_9  and  C_15
REMARK    9  A    between atoms: C_10  and  C_14
REMARK   10  A    between atoms: C_14  and  C_16
REMARK   11  A    between atoms: C_15  and  C_17
REMARK   12  A    between atoms: C_19  and  C_21
REMARK   13  A    between atoms: C_20  and  C_22
REMARK                            x       y       z     vdW  Elec       q    Type
REMARK                         _______ _______ _______ _____ _____    ______ ____
ROOT
ATOM      6  N   UNL     1      -8.900 -11.676  19.397  0.00  0.00    -0.316 NA
ATOM      9  C   UNL     1      -6.684 -10.402  17.924  0.00  0.00    +0.004 C 
ATOM     10  C   UNL     1      -8.166 -10.018  17.701  0.00  0.00    +0.012 C 
ATOM     11  C   UNL     1      -6.526 -10.998  19.333  0.00  0.00    +0.019 C 
ATOM     12  C   UNL     1      -9.112 -11.184  18.036  0.00  0.00    +0.085 C 
ATOM     13  C   UNL     1      -7.525 -12.122  19.606  0.00  0.00    +0.081 C 
ATOM     36  H   UNL     1      -9.538 -12.451  19.577  0.00  0.00    +0.122 HD
ENDROOT
BRANCH  10  14
ATOM     14  C   UNL     1      -8.443  -9.487  16.294  0.00  0.00    +0.064 C 
BRANCH  14  16
ATOM      2  O   UNL     1     -10.809  -6.908  17.137  0.00  0.00    -0.356 OA
ATOM      8  N   UNL     1      -9.867  -7.872  17.477  0.00  0.00    -0.083 NA
ATOM     16  C   UNL     1      -9.476  -8.397  16.312  0.00  0.00    +0.084 A 
ATOM     18  C   UNL     1     -10.130  -7.812  15.215  0.00  0.00    +0.074 A 
ATOM     19  C   UNL     1     -10.958  -6.882  15.788  0.00  0.00    +0.175 A 
BRANCH  19  21
ATOM     21  C   UNL     1     -11.922  -5.914  15.253  0.00  0.00    +0.306 C 
BRANCH  21   3
ATOM      3  O   UNL     1     -11.675  -5.684  13.863  0.00  0.00    -0.484 OA
BRANCH   3  28
ATOM     28  C   UNL     1     -12.566  -4.878  13.211  0.00  0.00    +0.121 A 
ATOM     29  C   UNL     1     -13.863  -4.733  13.702  0.00  0.00    +0.045 A 
ATOM     30  C   UNL     1     -12.178  -4.202  12.054  0.00  0.00    +0.045 A 
ATOM     31  C   UNL     1     -14.773  -3.911  13.037  0.00  0.00    +0.004 A 
ATOM     32  C   UNL     1     -13.087  -3.381  11.389  0.00  0.00    +0.004 A 
ATOM     35  C   UNL     1     -14.385  -3.235  11.880  0.00  0.00    +0.000 A 
ENDBRANCH   3  28
ENDBRANCH  21   3
ENDBRANCH  19  21
ENDBRANCH  14  16
ENDBRANCH  10  14
BRANCH   9  15
ATOM     15  C   UNL     1      -6.122 -11.354  16.862  0.00  0.00    +0.099 C 
BRANCH  15  17
ATOM      1  O   UNL     1      -4.125  -9.989  16.821  0.00  0.00    -0.276 OA
ATOM      7  N   UNL     1      -4.479 -11.544  15.130  0.00  0.00    -0.311 N 
ATOM     17  C   UNL     1      -4.803 -10.868  16.298  0.00  0.00    +0.214 C 
ATOM     37  H   UNL     1      -5.111 -12.249  14.765  0.00  0.00    +0.149 HD
BRANCH   7  20
ATOM     20  C   UNL     1      -3.274 -11.283  14.377  0.00  0.00    +0.139 C 
BRANCH  20  22
ATOM     22  C   UNL     1      -3.566 -10.622  13.061  0.00  0.00    -0.027 A 
ATOM     23  C   UNL     1      -4.851 -10.152  12.786  0.00  0.00    +0.054 A 
ATOM     24  C   UNL     1      -2.553 -10.475  12.113  0.00  0.00    +0.009 A 
ATOM     25  C   UNL     1      -5.122  -9.537  11.565  0.00  0.00    +0.162 A 
ATOM     26  C   UNL     1      -2.824  -9.860  10.891  0.00  0.00    +0.050 A 
ATOM     27  C   UNL     1      -4.109  -9.391  10.617  0.00  0.00    +0.162 A 
BRANCH  25   4
ATOM      4  O   UNL     1      -6.380  -9.081  11.308  0.00  0.00    -0.491 OA
ATOM     33  C   UNL     1      -7.369  -9.311  12.310  0.00  0.00    +0.277 C 
ENDBRANCH  25   4
BRANCH  27   5
ATOM      5  O   UNL     1      -4.361  -8.791   9.420  0.00  0.00    -0.491 OA
ATOM     34  C   UNL     1      -4.778  -9.632   8.348  0.00  0.00    +0.277 C 
ENDBRANCH  27   5
ENDBRANCH  20  22
ENDBRANCH   7  20
ENDBRANCH  15  17
ENDBRANCH   9  15
TORSDOF 11
ENDMDL
MODEL 3
REMARK VINA RESULT:      -6.6      4.554      7.441
REMARK  Name = 26743195
REMARK  13 active torsions:
REMARK  status: ('A' for Active; 'I' for Inactive)
REMARK    1  A    between atoms: O_3  and  C_21
REMARK    2  A    between atoms: O_3  and  C_28
REMARK    3  A    between atoms: O_4  and  C_25
REMARK    4  A    between atoms: O_4  and  C_33
REMARK    5  A    between atoms: O_5  and  C_27
REMARK    6  A    between atoms: O_5  and  C_34
REMARK    7  A    between atoms: N_7  and  C_20
REMARK    8  A    between atoms: C_9  and  C_15
REMARK    9  A    between atoms: C_10  and  C_14
REMARK   10  A    between atoms: C_14  and  C_16
REMARK   11  A    between atoms: C_15  and  C_17
REMARK   12  A    between atoms: C_19  and  C_21
REMARK   13  A    between atoms: C_20  and  C_22
REMARK                            x       y       z     vdW  Elec       q    Type
REMARK                         _______ _______ _______ _____ _____    ______ ____
ROOT
ATOM      6  N   UNL     1      -6.445 -13.823  17.731  0.00  0.00    -0.316 NA
ATOM      9  C   UNL     1      -6.650 -11.091  16.635  0.00  0.00    +0.004 C 
ATOM     10  C   UNL     1      -5.294 -11.790  16.890  0.00  0.00    +0.012 C 
ATOM     11  C   UNL     1      -7.737 -12.161  16.439  0.00  0.00    +0.019 C 
ATOM     12  C   UNL     1      -5.397 -12.840  18.009  0.00  0.00    +0.085 C 
ATOM     13  C   UNL     1      -7.752 -13.191  17.568  0.00  0.00    +0.081 C 
ATOM     36  H   UNL     1      -6.488 -14.494  18.497  0.00  0.00    +0.122 HD
ENDROOT
BRANCH  10  14
ATOM     14  C   UNL     1      -4.158 -10.807  17.178  0.00  0.00    +0.064 C 
BRANCH  14  16
ATOM      2  O   UNL     1      -1.305 -10.611  14.990  0.00  0.00    -0.356 OA
ATOM      8  N   UNL     1      -1.886 -10.685  16.251  0.00  0.00    -0.083 NA
ATOM     16  C   UNL     1      -3.202 -10.721  16.023  0.00  0.00    +0.084 A 
ATOM     18  C   UNL     1      -3.509 -10.672  14.653  0.00  0.00    +0.074 A 
ATOM     19  C   UNL     1      -2.282 -10.604  14.047  0.00  0.00    +0.175 A 
BRANCH  19  21
ATOM     21  C   UNL     1      -1.842 -10.528  12.649  0.00  0.00    +0.306 C 
BRANCH  21   3
ATOM      3  O   UNL     1      -2.592 -11.441  11.843  0.00  0.00    -0.484 OA
BRANCH   3  28
ATOM     28  C   UNL     1      -3.257 -10.907  10.774  0.00  0.00    +0.121 A 
ATOM     29  C   UNL     1      -3.170  -9.540  10.513  0.00  0.00    +0.045 A 
ATOM     30  C   UNL     1      -4.023 -11.729   9.948  0.00  0.00    +0.045 A 
ATOM     31  C   UNL     1      -3.849  -8.994   9.423  0.00  0.00    +0.004 A 
ATOM     32  C   UNL     1      -4.700 -11.183   8.858  0.00  0.00    +0.004 A 
ATOM     35  C   UNL     1      -4.615  -9.816   8.596  0.00  0.00    +0.000 A 
ENDBRANCH   3  28
ENDBRANCH  21   3
ENDBRANCH  19  21
ENDBRANCH  14  16
ENDBRANCH  10  14
BRANCH   9  15
ATOM     15  C   UNL     1      -7.054 -10.097  17.730  0.00  0.00    +0.099 C 
BRANCH  15  17
ATOM      1  O   UNL     1      -8.684  -8.796  16.504  0.00  0.00    -0.276 OA
ATOM      7  N   UNL     1      -9.309  -9.831  18.489  0.00  0.00    -0.311 N 
ATOM     17  C   UNL     1      -8.420  -9.493  17.480  0.00  0.00    +0.214 C 
ATOM     37  H   UNL     1      -8.994 -10.402  19.266  0.00  0.00    +0.149 HD
BRANCH   7  20
ATOM     20  C   UNL     1     -10.685  -9.389  18.508  0.00  0.00    +0.139 C 
BRANCH  20  22
ATOM     22  C   UNL     1     -11.535 -10.238  19.408  0.00  0.00    -0.027 A 
ATOM     23  C   UNL     1     -12.752  -9.749  19.885  0.00  0.00    +0.054 A 
ATOM     24  C   UNL     1     -11.110 -11.517  19.768  0.00  0.00    +0.009 A 
ATOM     25  C   UNL     1     -13.543 -10.538  20.719  0.00  0.00    +0.162 A 
ATOM     26  C   UNL     1     -11.900 -12.307  20.603  0.00  0.00    +0.050 A 
ATOM     27  C   UNL     1     -13.117 -11.816  21.079  0.00  0.00    +0.162 A 
BRANCH  25   4
ATOM      4  O   UNL     1     -14.730 -10.050  21.177  0.00  0.00    -0.491 OA
ATOM     33  C   UNL     1     -15.446  -9.173  20.310  0.00  0.00    +0.277 C 
ENDBRANCH  25   4
BRANCH  27   5
ATOM      5  O   UNL     1     -13.880 -12.597  21.893  0.00  0.00    -0.491 OA
ATOM     34  C   UNL     1     -13.607 -12.538  23.292  0.00  0.00    +0.277 C 
ENDBRANCH  27   5
ENDBRANCH  20  22
ENDBRANCH   7  20
ENDBRANCH  15  17
ENDBRANCH   9  15
TORSDOF 11
ENDMDL
MODEL 4
REMARK VINA RESULT:      -6.6      3.661      5.293
REMARK  Name = 26743195
REMARK  13 active torsions:
REMARK  status: ('A' for Active; 'I' for Inactive)
REMARK    1  A    between atoms: O_3  and  C_21
REMARK    2  A    between atoms: O_3  and  C_28
REMARK    3  A    between atoms: O_4  and  C_25
REMARK    4  A    between atoms: O_4  and  C_33
REMARK    5  A    between atoms: O_5  and  C_27
REMARK    6  A    between atoms: O_5  and  C_34
REMARK    7  A    between atoms: N_7  and  C_20
REMARK    8  A    between atoms: C_9  and  C_15
REMARK    9  A    between atoms: C_10  and  C_14
REMARK   10  A    between atoms: C_14  and  C_16
REMARK   11  A    between atoms: C_15  and  C_17
REMARK   12  A    between atoms: C_19  and  C_21
REMARK   13  A    between atoms: C_20  and  C_22
REMARK                            x       y       z     vdW  Elec       q    Type
REMARK                         _______ _______ _______ _____ _____    ______ ____
ROOT
ATOM      6  N   UNL     1      -5.828 -11.269   8.162  0.00  0.00    -0.316 NA
ATOM      9  C   UNL     1      -4.242 -11.002  10.636  0.00  0.00    +0.004 C 
ATOM     10  C   UNL     1      -5.657 -10.394  10.480  0.00  0.00    +0.012 C 
ATOM     11  C   UNL     1      -4.094 -12.184   9.664  0.00  0.00    +0.019 C 
ATOM     12  C   UNL     1      -5.983 -10.085   9.008  0.00  0.00    +0.085 C 
ATOM     13  C   UNL     1      -4.473 -11.813   8.232  0.00  0.00    +0.081 C 
ATOM     36  H   UNL     1      -6.044 -11.022   7.197  0.00  0.00    +0.122 HD
ENDROOT
BRANCH  10  14
ATOM     14  C   UNL     1      -5.877  -9.156  11.350  0.00  0.00    +0.064 C 
BRANCH  14  16
ATOM      2  O   UNL     1      -8.259  -9.903  13.945  0.00  0.00    -0.356 OA
ATOM      8  N   UNL     1      -7.929  -9.562  12.638  0.00  0.00    -0.083 NA
ATOM     16  C   UNL     1      -6.595  -9.502  12.623  0.00  0.00    +0.084 A 
ATOM     18  C   UNL     1      -6.032  -9.791  13.877  0.00  0.00    +0.074 A 
ATOM     19  C   UNL     1      -7.121 -10.037  14.673  0.00  0.00    +0.175 A 
BRANCH  19  21
ATOM     21  C   UNL     1      -7.286 -10.397  16.086  0.00  0.00    +0.306 C 
BRANCH  21   3
ATOM      3  O   UNL     1      -7.623  -9.239  16.857  0.00  0.00    -0.484 OA
BRANCH   3  28
ATOM     28  C   UNL     1      -8.939  -9.095  17.195  0.00  0.00    +0.121 A 
ATOM     29  C   UNL     1      -9.547 -10.023  18.041  0.00  0.00    +0.045 A 
ATOM     30  C   UNL     1      -9.675  -8.023  16.693  0.00  0.00    +0.045 A 
ATOM     31  C   UNL     1     -10.890  -9.876  18.387  0.00  0.00    +0.004 A 
ATOM     32  C   UNL     1     -11.018  -7.876  17.039  0.00  0.00    +0.004 A 
ATOM     35  C   UNL     1     -11.626  -8.803  17.885  0.00  0.00    +0.000 A 
ENDBRANCH   3  28
ENDBRANCH  21   3
ENDBRANCH  19  21
ENDBRANCH  14  16
ENDBRANCH  10  14
BRANCH   9  15
ATOM     15  C   UNL     1      -3.105  -9.991  10.445  0.00  0.00    +0.099 C 
BRANCH  15  17
ATOM      1  O   UNL     1      -1.022  -9.487  11.565  0.00  0.00    -0.276 OA
ATOM      7  N   UNL     1      -2.700 -10.601  12.724  0.00  0.00    -0.311 N 
ATOM     17  C   UNL     1      -2.144  -9.982  11.615  0.00  0.00    +0.214 C 
ATOM     37  H   UNL     1      -3.633 -10.995  12.665  0.00  0.00    +0.149 HD
BRANCH   7  20
ATOM     20  C   UNL     1      -2.004 -10.737  13.983  0.00  0.00    +0.139 C 
BRANCH  20  22
ATOM     22  C   UNL     1      -2.892 -11.288  15.060  0.00  0.00    -0.027 A 
ATOM     23  C   UNL     1      -3.670 -12.420  14.813  0.00  0.00    +0.054 A 
ATOM     24  C   UNL     1      -2.940 -10.669  16.310  0.00  0.00    +0.009 A 
ATOM     25  C   UNL     1      -4.493 -12.933  15.815  0.00  0.00    +0.162 A 
ATOM     26  C   UNL     1      -3.764 -11.181  17.311  0.00  0.00    +0.050 A 
ATOM     27  C   UNL     1      -4.541 -12.314  17.063  0.00  0.00    +0.162 A 
BRANCH  25   4
ATOM      4  O   UNL     1      -5.246 -14.040  15.562  0.00  0.00    -0.491 OA
ATOM     33  C   UNL     1      -6.332 -13.890  14.650  0.00  0.00    +0.277 C 
ENDBRANCH  25   4
BRANCH  27   5
ATOM      5  O   UNL     1      -5.342 -12.805  18.050  0.00  0.00    -0.491 OA
ATOM     34  C   UNL     1      -5.687 -11.913  19.108  0.00  0.00    +0.277 C 
ENDBRANCH  27   5
ENDBRANCH  20  22
ENDBRANCH   7  20
ENDBRANCH  15  17
ENDBRANCH   9  15
TORSDOF 11
ENDMDL
MODEL 5
REMARK VINA RESULT:      -6.5      3.822      7.203
REMARK  Name = 26743195
REMARK  13 active torsions:
REMARK  status: ('A' for Active; 'I' for Inactive)
REMARK    1  A    between atoms: O_3  and  C_21
REMARK    2  A    between atoms: O_3  and  C_28
REMARK    3  A    between atoms: O_4  and  C_25
REMARK    4  A    between atoms: O_4  and  C_33
REMARK    5  A    between atoms: O_5  and  C_27
REMARK    6  A    between atoms: O_5  and  C_34
REMARK    7  A    between atoms: N_7  and  C_20
REMARK    8  A    between atoms: C_9  and  C_15
REMARK    9  A    between atoms: C_10  and  C_14
REMARK   10  A    between atoms: C_14  and  C_16
REMARK   11  A    between atoms: C_15  and  C_17
REMARK   12  A    between atoms: C_19  and  C_21
REMARK   13  A    between atoms: C_20  and  C_22
REMARK                            x       y       z     vdW  Elec       q    Type
REMARK                         _______ _______ _______ _____ _____    ______ ____
ROOT
ATOM      6  N   UNL     1     -14.193  -9.916  19.178  0.00  0.00    -0.316 NA
ATOM      9  C   UNL     1     -11.257  -9.719  18.957  0.00  0.00    +0.004 C 
ATOM     10  C   UNL     1     -12.215  -9.188  17.865  0.00  0.00    +0.012 C 
ATOM     11  C   UNL     1     -12.000  -9.753  20.304  0.00  0.00    +0.019 C 
ATOM     12  C   UNL     1     -13.552  -9.948  17.863  0.00  0.00    +0.085 C 
ATOM     13  C   UNL     1     -13.336 -10.489  20.214  0.00  0.00    +0.081 C 
ATOM     36  H   UNL     1     -15.068 -10.436  19.138  0.00  0.00    +0.122 HD
ENDROOT
BRANCH  10  14
ATOM     14  C   UNL     1     -11.592  -9.191  16.468  0.00  0.00    +0.064 C 
BRANCH  14  16
ATOM      2  O   UNL     1     -10.954  -5.826  15.359  0.00  0.00    -0.356 OA
ATOM      8  N   UNL     1     -10.613  -6.975  16.063  0.00  0.00    -0.083 NA
ATOM     16  C   UNL     1     -11.623  -7.823  15.851  0.00  0.00    +0.084 A 
ATOM     18  C   UNL     1     -12.621  -7.271  15.030  0.00  0.00    +0.074 A 
ATOM     19  C   UNL     1     -12.153  -6.014  14.748  0.00  0.00    +0.175 A 
BRANCH  19  21
ATOM     21  C   UNL     1     -12.668  -4.892  13.956  0.00  0.00    +0.306 C 
BRANCH  21   3
ATOM      3  O   UNL     1     -13.226  -5.367  12.728  0.00  0.00    -0.484 OA
BRANCH   3  28
ATOM     28  C   UNL     1     -12.503  -5.119  11.594  0.00  0.00    +0.121 A 
ATOM     29  C   UNL     1     -12.224  -3.805  11.219  0.00  0.00    +0.045 A 
ATOM     30  C   UNL     1     -12.046  -6.180  10.812  0.00  0.00    +0.045 A 
ATOM     31  C   UNL     1     -11.486  -3.552  10.063  0.00  0.00    +0.004 A 
ATOM     32  C   UNL     1     -11.309  -5.927   9.657  0.00  0.00    +0.004 A 
ATOM     35  C   UNL     1     -11.030  -4.612   9.281  0.00  0.00    +0.000 A 
ENDBRANCH   3  28
ENDBRANCH  21   3
ENDBRANCH  19  21
ENDBRANCH  14  16
ENDBRANCH  10  14
BRANCH   9  15
ATOM     15  C   UNL     1     -10.645 -11.087  18.637  0.00  0.00    +0.099 C 
BRANCH  15  17
ATOM      1  O   UNL     1      -9.260 -12.114  20.334  0.00  0.00    -0.276 OA
ATOM      7  N   UNL     1      -8.323 -10.555  18.887  0.00  0.00    -0.311 N 
ATOM     17  C   UNL     1      -9.356 -11.330  19.395  0.00  0.00    +0.214 C 
ATOM     37  H   UNL     1      -8.503  -9.922  18.114  0.00  0.00    +0.149 HD
BRANCH   7  20
ATOM     20  C   UNL     1      -6.981 -10.583  19.420  0.00  0.00    +0.139 C 
BRANCH  20  22
ATOM     22  C   UNL     1      -5.947 -10.672  18.335  0.00  0.00    -0.027 A 
ATOM     23  C   UNL     1      -6.245 -10.222  17.048  0.00  0.00    +0.054 A 
ATOM     24  C   UNL     1      -4.686 -11.202  18.613  0.00  0.00    +0.009 A 
ATOM     25  C   UNL     1      -5.284 -10.302  16.041  0.00  0.00    +0.162 A 
ATOM     26  C   UNL     1      -3.725 -11.283  17.606  0.00  0.00    +0.050 A 
ATOM     27  C   UNL     1      -4.025 -10.833  16.319  0.00  0.00    +0.162 A 
BRANCH  25   4
ATOM      4  O   UNL     1      -5.587  -9.859  14.789  0.00  0.00    -0.491 OA
ATOM     33  C   UNL     1      -6.933 -10.027  14.350  0.00  0.00    +0.277 C 
ENDBRANCH  25   4
BRANCH  27   5
ATOM      5  O   UNL     1      -3.077 -10.917  15.344  0.00  0.00    -0.491 OA
ATOM     34  C   UNL     1      -1.732 -10.631  15.722  0.00  0.00    +0.277 C 
ENDBRANCH  27   5
ENDBRANCH  20  22
ENDBRANCH   7  20
ENDBRANCH  15  17
ENDBRANCH   9  15
TORSDOF 11
ENDMDL
MODEL 6
REMARK VINA RESULT:      -6.5      2.311      3.261
REMARK  Name = 26743195
REMARK  13 active torsions:
REMARK  status: ('A' for Active; 'I' for Inactive)
REMARK    1  A    between atoms: O_3  and  C_21
REMARK    2  A    between atoms: O_3  and  C_28
REMARK    3  A    between atoms: O_4  and  C_25
REMARK    4  A    between atoms: O_4  and  C_33
REMARK    5  A    between atoms: O_5  and  C_27
REMARK    6  A    between atoms: O_5  and  C_34
REMARK    7  A    between atoms: N_7  and  C_20
REMARK    8  A    between atoms: C_9  and  C_15
REMARK    9  A    between atoms: C_10  and  C_14
REMARK   10  A    between atoms: C_14  and  C_16
REMARK   11  A    between atoms: C_15  and  C_17
REMARK   12  A    between atoms: C_19  and  C_21
REMARK   13  A    between atoms: C_20  and  C_22
REMARK                            x       y       z     vdW  Elec       q    Type
REMARK                         _______ _______ _______ _____ _____    ______ ____
ROOT
ATOM      6  N   UNL     1      -3.034 -14.005  11.263  0.00  0.00    -0.316 NA
ATOM      9  C   UNL     1      -3.171 -12.802  13.954  0.00  0.00    +0.004 C 
ATOM     10  C   UNL     1      -3.889 -12.191  12.728  0.00  0.00    +0.012 C 
ATOM     11  C   UNL     1      -2.959 -14.307  13.714  0.00  0.00    +0.019 C 
ATOM     12  C   UNL     1      -3.179 -12.556  11.413  0.00  0.00    +0.085 C 
ATOM     13  C   UNL     1      -2.287 -14.593  12.372  0.00  0.00    +0.081 C 
ATOM     36  H   UNL     1      -2.553 -14.205  10.387  0.00  0.00    +0.122 HD
ENDROOT
BRANCH  10  14
ATOM     14  C   UNL     1      -4.074 -10.676  12.836  0.00  0.00    +0.064 C 
BRANCH  14  16
ATOM      2  O   UNL     1      -6.907  -9.970  10.729  0.00  0.00    -0.356 OA
ATOM      8  N   UNL     1      -6.292 -10.641  11.779  0.00  0.00    -0.083 NA
ATOM     16  C   UNL     1      -5.043 -10.169  11.807  0.00  0.00    +0.084 A 
ATOM     18  C   UNL     1      -4.812  -9.208  10.808  0.00  0.00    +0.074 A 
ATOM     19  C   UNL     1      -6.016  -9.119  10.158  0.00  0.00    +0.175 A 
BRANCH  19  21
ATOM     21  C   UNL     1      -6.502  -8.325   9.023  0.00  0.00    +0.306 C 
BRANCH  21   3
ATOM      3  O   UNL     1      -6.631  -9.148   7.861  0.00  0.00    -0.484 OA
BRANCH   3  28
ATOM     28  C   UNL     1      -7.348  -8.626   6.821  0.00  0.00    +0.121 A 
ATOM     29  C   UNL     1      -6.986  -8.921   5.507  0.00  0.00    +0.045 A 
ATOM     30  C   UNL     1      -8.440  -7.795   7.074  0.00  0.00    +0.045 A 
ATOM     31  C   UNL     1      -7.717  -8.388   4.445  0.00  0.00    +0.004 A 
ATOM     32  C   UNL     1      -9.170  -7.263   6.013  0.00  0.00    +0.004 A 
ATOM     35  C   UNL     1      -8.809  -7.558   4.698  0.00  0.00    +0.000 A 
ENDBRANCH   3  28
ENDBRANCH  21   3
ENDBRANCH  19  21
ENDBRANCH  14  16
ENDBRANCH  10  14
BRANCH   9  15
ATOM     15  C   UNL     1      -1.847 -12.115  14.308  0.00  0.00    +0.099 C 
BRANCH  15  17
ATOM      1  O   UNL     1      -1.110 -10.471  15.924  0.00  0.00    -0.276 OA
ATOM      7  N   UNL     1      -3.088 -11.634  16.298  0.00  0.00    -0.311 N 
ATOM     17  C   UNL     1      -1.945 -11.305  15.584  0.00  0.00    +0.214 C 
ATOM     37  H   UNL     1      -3.715 -12.348  15.943  0.00  0.00    +0.149 HD
BRANCH   7  20
ATOM     20  C   UNL     1      -3.436 -11.016  17.558  0.00  0.00    +0.139 C 
BRANCH  20  22
ATOM     22  C   UNL     1      -4.884 -10.624  17.611  0.00  0.00    -0.027 A 
ATOM     23  C   UNL     1      -5.673 -11.014  18.694  0.00  0.00    +0.054 A 
ATOM     24  C   UNL     1      -5.441  -9.869  16.579  0.00  0.00    +0.009 A 
ATOM     25  C   UNL     1      -7.018 -10.648  18.744  0.00  0.00    +0.162 A 
ATOM     26  C   UNL     1      -6.786  -9.503  16.628  0.00  0.00    +0.050 A 
ATOM     27  C   UNL     1      -7.574  -9.894  17.712  0.00  0.00    +0.162 A 
BRANCH  25   4
ATOM      4  O   UNL     1      -7.778 -11.033  19.807  0.00  0.00    -0.491 OA
ATOM     33  C   UNL     1      -8.299 -12.360  19.783  0.00  0.00    +0.277 C 
ENDBRANCH  25   4
BRANCH  27   5
ATOM      5  O   UNL     1      -8.887  -9.530  17.749  0.00  0.00    -0.491 OA
ATOM     34  C   UNL     1      -9.258  -8.366  17.013  0.00  0.00    +0.277 C 
ENDBRANCH  27   5
ENDBRANCH  20  22
ENDBRANCH   7  20
ENDBRANCH  15  17
ENDBRANCH   9  15
TORSDOF 11
ENDMDL
MODEL 7
REMARK VINA RESULT:      -6.5     25.967     29.089
REMARK  Name = 26743195
REMARK  13 active torsions:
REMARK  status: ('A' for Active; 'I' for Inactive)
REMARK    1  A    between atoms: O_3  and  C_21
REMARK    2  A    between atoms: O_3  and  C_28
REMARK    3  A    between atoms: O_4  and  C_25
REMARK    4  A    between atoms: O_4  and  C_33
REMARK    5  A    between atoms: O_5  and  C_27
REMARK    6  A    between atoms: O_5  and  C_34
REMARK    7  A    between atoms: N_7  and  C_20
REMARK    8  A    between atoms: C_9  and  C_15
REMARK    9  A    between atoms: C_10  and  C_14
REMARK   10  A    between atoms: C_14  and  C_16
REMARK   11  A    between atoms: C_15  and  C_17
REMARK   12  A    between atoms: C_19  and  C_21
REMARK   13  A    between atoms: C_20  and  C_22
REMARK                            x       y       z     vdW  Elec       q    Type
REMARK                         _______ _______ _______ _____ _____    ______ ____
ROOT
ATOM      6  N   UNL     1       9.397   8.511   8.207  0.00  0.00    -0.316 NA
ATOM      9  C   UNL     1      10.632   6.392   6.567  0.00  0.00    +0.004 C 
ATOM     10  C   UNL     1      11.100   7.866   6.519  0.00  0.00    +0.012 C 
ATOM     11  C   UNL     1       9.959   6.123   7.924  0.00  0.00    +0.019 C 
ATOM     12  C   UNL     1       9.967   8.834   6.898  0.00  0.00    +0.085 C 
ATOM     13  C   UNL     1       8.874   7.148   8.250  0.00  0.00    +0.081 C 
ATOM     36  H   UNL     1       8.646   9.168   8.418  0.00  0.00    +0.122 HD
ENDROOT
BRANCH  10  14
ATOM     14  C   UNL     1      11.713   8.256   5.173  0.00  0.00    +0.064 C 
BRANCH  14  16
ATOM      2  O   UNL     1      15.212   7.910   5.947  0.00  0.00    -0.356 OA
ATOM      8  N   UNL     1      13.873   7.582   6.129  0.00  0.00    -0.083 NA
ATOM     16  C   UNL     1      13.209   8.347   5.259  0.00  0.00    +0.084 A 
ATOM     18  C   UNL     1      14.066   9.170   4.508  0.00  0.00    +0.074 A 
ATOM     19  C   UNL     1      15.314   8.857   4.980  0.00  0.00    +0.175 A 
BRANCH  19  21
ATOM     21  C   UNL     1      16.668   9.322   4.658  0.00  0.00    +0.306 C 
BRANCH  21   3
ATOM      3  O   UNL     1      17.494   9.290   5.826  0.00  0.00    -0.484 OA
BRANCH   3  28
ATOM     28  C   UNL     1      18.685   8.628   5.711  0.00  0.00    +0.121 A 
ATOM     29  C   UNL     1      18.990   7.942   4.536  0.00  0.00    +0.045 A 
ATOM     30  C   UNL     1      19.592   8.639   6.770  0.00  0.00    +0.045 A 
ATOM     31  C   UNL     1      20.206   7.267   4.419  0.00  0.00    +0.004 A 
ATOM     32  C   UNL     1      20.807   7.964   6.653  0.00  0.00    +0.004 A 
ATOM     35  C   UNL     1      21.114   7.277   5.478  0.00  0.00    +0.000 A 
ENDBRANCH   3  28
ENDBRANCH  21   3
ENDBRANCH  19  21
ENDBRANCH  14  16
ENDBRANCH  10  14
BRANCH   9  15
ATOM     15  C   UNL     1       9.707   5.993   5.411  0.00  0.00    +0.099 C 
BRANCH  15  17
ATOM      1  O   UNL     1      10.118   3.611   5.314  0.00  0.00    -0.276 OA
ATOM      7  N   UNL     1      10.559   4.923   3.446  0.00  0.00    -0.311 N 
ATOM     17  C   UNL     1      10.141   4.701   4.750  0.00  0.00    +0.214 C 
ATOM     37  H   UNL     1      10.556   5.865   3.070  0.00  0.00    +0.149 HD
BRANCH   7  20
ATOM     20  C   UNL     1      11.028   3.867   2.579  0.00  0.00    +0.139 C 
BRANCH  20  22
ATOM     22  C   UNL     1      12.360   4.192   1.967  0.00  0.00    -0.027 A 
ATOM     23  C   UNL     1      12.953   5.432   2.205  0.00  0.00    +0.054 A 
ATOM     24  C   UNL     1      13.005   3.253   1.160  0.00  0.00    +0.009 A 
ATOM     25  C   UNL     1      14.191   5.733   1.638  0.00  0.00    +0.162 A 
ATOM     26  C   UNL     1      14.243   3.555   0.593  0.00  0.00    +0.050 A 
ATOM     27  C   UNL     1      14.835   4.795   0.832  0.00  0.00    +0.162 A 
BRANCH  25   4
ATOM      4  O   UNL     1      14.762   6.946   1.879  0.00  0.00    -0.491 OA
ATOM     33  C   UNL     1      14.511   7.980   0.929  0.00  0.00    +0.277 C 
ENDBRANCH  25   4
BRANCH  27   5
ATOM      5  O   UNL     1      16.045   5.077   0.272  0.00  0.00    -0.491 OA
ATOM     34  C   UNL     1      16.495   4.213  -0.770  0.00  0.00    +0.277 C 
ENDBRANCH  27   5
ENDBRANCH  20  22
ENDBRANCH   7  20
ENDBRANCH  15  17
ENDBRANCH   9  15
TORSDOF 11
ENDMDL
MODEL 8
REMARK VINA RESULT:      -6.4      3.452      7.648
REMARK  Name = 26743195
REMARK  13 active torsions:
REMARK  status: ('A' for Active; 'I' for Inactive)
REMARK    1  A    between atoms: O_3  and  C_21
REMARK    2  A    between atoms: O_3  and  C_28
REMARK    3  A    between atoms: O_4  and  C_25
REMARK    4  A    between atoms: O_4  and  C_33
REMARK    5  A    between atoms: O_5  and  C_27
REMARK    6  A    between atoms: O_5  and  C_34
REMARK    7  A    between atoms: N_7  and  C_20
REMARK    8  A    between atoms: C_9  and  C_15
REMARK    9  A    between atoms: C_10  and  C_14
REMARK   10  A    between atoms: C_14  and  C_16
REMARK   11  A    between atoms: C_15  and  C_17
REMARK   12  A    between atoms: C_19  and  C_21
REMARK   13  A    between atoms: C_20  and  C_22
REMARK                            x       y       z     vdW  Elec       q    Type
REMARK                         _______ _______ _______ _____ _____    ______ ____
ROOT
ATOM      6  N   UNL     1      -5.977 -14.190  17.347  0.00  0.00    -0.316 NA
ATOM      9  C   UNL     1      -6.703 -11.341  17.098  0.00  0.00    +0.004 C 
ATOM     10  C   UNL     1      -5.279 -11.870  16.804  0.00  0.00    +0.012 C 
ATOM     11  C   UNL     1      -7.712 -12.487  16.912  0.00  0.00    +0.019 C 
ATOM     12  C   UNL     1      -4.975 -13.154  17.595  0.00  0.00    +0.085 C 
ATOM     13  C   UNL     1      -7.323 -13.740  17.696  0.00  0.00    +0.081 C 
ATOM     36  H   UNL     1      -5.746 -15.019  17.894  0.00  0.00    +0.122 HD
ENDROOT
BRANCH  10  14
ATOM     14  C   UNL     1      -4.190 -10.823  17.039  0.00  0.00    +0.064 C 
BRANCH  14  16
ATOM      2  O   UNL     1      -1.445 -10.476  14.735  0.00  0.00    -0.356 OA
ATOM      8  N   UNL     1      -1.969 -10.570  16.019  0.00  0.00    -0.083 NA
ATOM     16  C   UNL     1      -3.288 -10.692  15.846  0.00  0.00    +0.084 A 
ATOM     18  C   UNL     1      -3.653 -10.681  14.489  0.00  0.00    +0.074 A 
ATOM     19  C   UNL     1      -2.458 -10.543  13.832  0.00  0.00    +0.175 A 
BRANCH  19  21
ATOM     21  C   UNL     1      -2.080 -10.458  12.417  0.00  0.00    +0.306 C 
BRANCH  21   3
ATOM      3  O   UNL     1      -3.151  -9.898  11.651  0.00  0.00    -0.484 OA
BRANCH   3  28
ATOM     28  C   UNL     1      -3.597 -10.641  10.594  0.00  0.00    +0.121 A 
ATOM     29  C   UNL     1      -3.567 -12.034  10.659  0.00  0.00    +0.045 A 
ATOM     30  C   UNL     1      -4.080 -10.007   9.450  0.00  0.00    +0.045 A 
ATOM     31  C   UNL     1      -4.023 -12.793   9.581  0.00  0.00    +0.004 A 
ATOM     32  C   UNL     1      -4.535 -10.765   8.372  0.00  0.00    +0.004 A 
ATOM     35  C   UNL     1      -4.506 -12.158   8.437  0.00  0.00    +0.000 A 
ENDBRANCH   3  28
ENDBRANCH  21   3
ENDBRANCH  19  21
ENDBRANCH  14  16
ENDBRANCH  10  14
BRANCH   9  15
ATOM     15  C   UNL     1      -6.855 -10.698  18.481  0.00  0.00    +0.099 C 
BRANCH  15  17
ATOM      1  O   UNL     1      -8.738 -11.245  19.899  0.00  0.00    -0.276 OA
ATOM      7  N   UNL     1      -9.045  -9.808  18.098  0.00  0.00    -0.311 N 
ATOM     17  C   UNL     1      -8.301 -10.635  18.927  0.00  0.00    +0.214 C 
ATOM     37  H   UNL     1      -8.598  -9.356  17.307  0.00  0.00    +0.149 HD
BRANCH   7  20
ATOM     20  C   UNL     1     -10.457  -9.564  18.288  0.00  0.00    +0.139 C 
BRANCH  20  22
ATOM     22  C   UNL     1     -10.974  -8.504  17.361  0.00  0.00    -0.027 A 
ATOM     23  C   UNL     1     -12.332  -8.456  17.043  0.00  0.00    +0.054 A 
ATOM     24  C   UNL     1     -10.098  -7.563  16.818  0.00  0.00    +0.009 A 
ATOM     25  C   UNL     1     -12.812  -7.469  16.183  0.00  0.00    +0.162 A 
ATOM     26  C   UNL     1     -10.578  -6.577  15.957  0.00  0.00    +0.050 A 
ATOM     27  C   UNL     1     -11.936  -6.530  15.640  0.00  0.00    +0.162 A 
BRANCH  25   4
ATOM      4  O   UNL     1     -14.141  -7.432  15.881  0.00  0.00    -0.491 OA
ATOM     33  C   UNL     1     -14.727  -8.635  15.391  0.00  0.00    +0.277 C 
ENDBRANCH  25   4
BRANCH  27   5
ATOM      5  O   UNL     1     -12.393  -5.561  14.799  0.00  0.00    -0.491 OA
ATOM     34  C   UNL     1     -12.258  -5.800  13.399  0.00  0.00    +0.277 C 
ENDBRANCH  27   5
ENDBRANCH  20  22
ENDBRANCH   7  20
ENDBRANCH  15  17
ENDBRANCH   9  15
TORSDOF 11
ENDMDL
MODEL 9
REMARK VINA RESULT:      -6.4     24.431     27.518
REMARK  Name = 26743195
REMARK  13 active torsions:
REMARK  status: ('A' for Active; 'I' for Inactive)
REMARK    1  A    between atoms: O_3  and  C_21
REMARK    2  A    between atoms: O_3  and  C_28
REMARK    3  A    between atoms: O_4  and  C_25
REMARK    4  A    between atoms: O_4  and  C_33
REMARK    5  A    between atoms: O_5  and  C_27
REMARK    6  A    between atoms: O_5  and  C_34
REMARK    7  A    between atoms: N_7  and  C_20
REMARK    8  A    between atoms: C_9  and  C_15
REMARK    9  A    between atoms: C_10  and  C_14
REMARK   10  A    between atoms: C_14  and  C_16
REMARK   11  A    between atoms: C_15  and  C_17
REMARK   12  A    between atoms: C_19  and  C_21
REMARK   13  A    between atoms: C_20  and  C_22
REMARK                            x       y       z     vdW  Elec       q    Type
REMARK                         _______ _______ _______ _____ _____    ______ ____
ROOT
ATOM      6  N   UNL     1      10.553   4.400   8.487  0.00  0.00    -0.316 NA
ATOM      9  C   UNL     1      10.088   5.585   5.825  0.00  0.00    +0.004 C 
ATOM     10  C   UNL     1      11.183   6.100   6.790  0.00  0.00    +0.012 C 
ATOM     11  C   UNL     1       9.774   4.117   6.161  0.00  0.00    +0.019 C 
ATOM     12  C   UNL     1      10.823   5.821   8.259  0.00  0.00    +0.085 C 
ATOM     13  C   UNL     1       9.466   3.912   7.643  0.00  0.00    +0.081 C 
ATOM     36  H   UNL     1      10.311   4.258   9.467  0.00  0.00    +0.122 HD
ENDROOT
BRANCH  10  14
ATOM     14  C   UNL     1      11.511   7.580   6.589  0.00  0.00    +0.064 C 
BRANCH  14  16
ATOM      2  O   UNL     1      14.730   8.155   5.083  0.00  0.00    -0.356 OA
ATOM      8  N   UNL     1      13.885   8.065   6.183  0.00  0.00    -0.083 NA
ATOM     16  C   UNL     1      12.688   7.761   5.674  0.00  0.00    +0.084 A 
ATOM     18  C   UNL     1      12.715   7.648   4.274  0.00  0.00    +0.074 A 
ATOM     19  C   UNL     1      14.022   7.905   3.952  0.00  0.00    +0.175 A 
BRANCH  19  21
ATOM     21  C   UNL     1      14.765   7.960   2.688  0.00  0.00    +0.306 C 
BRANCH  21   3
ATOM      3  O   UNL     1      13.982   7.404   1.628  0.00  0.00    -0.484 OA
BRANCH   3  28
ATOM     28  C   UNL     1      14.469   6.269   1.041  0.00  0.00    +0.121 A 
ATOM     29  C   UNL     1      14.536   5.082   1.770  0.00  0.00    +0.045 A 
ATOM     30  C   UNL     1      14.900   6.299  -0.285  0.00  0.00    +0.045 A 
ATOM     31  C   UNL     1      15.033   3.924   1.171  0.00  0.00    +0.004 A 
ATOM     32  C   UNL     1      15.396   5.142  -0.883  0.00  0.00    +0.004 A 
ATOM     35  C   UNL     1      15.464   3.954  -0.155  0.00  0.00    +0.000 A 
ENDBRANCH   3  28
ENDBRANCH  21   3
ENDBRANCH  19  21
ENDBRANCH  14  16
ENDBRANCH  10  14
BRANCH   9  15
ATOM     15  C   UNL     1       8.810   6.431   5.825  0.00  0.00    +0.099 C 
BRANCH  15  17
ATOM      1  O   UNL     1       7.759   8.032   4.346  0.00  0.00    -0.276 OA
ATOM      7  N   UNL     1       9.487   6.700   3.544  0.00  0.00    -0.311 N 
ATOM     17  C   UNL     1       8.604   7.157   4.512  0.00  0.00    +0.214 C 
ATOM     37  H   UNL     1      10.143   5.961   3.771  0.00  0.00    +0.149 HD
BRANCH   7  20
ATOM     20  C   UNL     1       9.514   7.217   2.194  0.00  0.00    +0.139 C 
BRANCH  20  22
ATOM     22  C   UNL     1      10.218   6.286   1.250  0.00  0.00    -0.027 A 
ATOM     23  C   UNL     1      10.642   6.746   0.003  0.00  0.00    +0.054 A 
ATOM     24  C   UNL     1      10.451   4.961   1.620  0.00  0.00    +0.009 A 
ATOM     25  C   UNL     1      11.298   5.882  -0.872  0.00  0.00    +0.162 A 
ATOM     26  C   UNL     1      11.106   4.096   0.744  0.00  0.00    +0.050 A 
ATOM     27  C   UNL     1      11.530   4.557  -0.503  0.00  0.00    +0.162 A 
BRANCH  25   4
ATOM      4  O   UNL     1      11.709   6.343  -2.087  0.00  0.00    -0.491 OA
ATOM     33  C   UNL     1      10.711   6.489  -3.095  0.00  0.00    +0.277 C 
ENDBRANCH  25   4
BRANCH  27   5
ATOM      5  O   UNL     1      12.170   3.703  -1.349  0.00  0.00    -0.491 OA
ATOM     34  C   UNL     1      11.354   2.891  -2.191  0.00  0.00    +0.277 C 
ENDBRANCH  27   5
ENDBRANCH  20  22
ENDBRANCH   7  20
ENDBRANCH  15  17
ENDBRANCH   9  15
TORSDOF 11
ENDMDL
MODEL 10
REMARK VINA RESULT:      -6.3      2.980      5.981
REMARK  Name = 26743195
REMARK  13 active torsions:
REMARK  status: ('A' for Active; 'I' for Inactive)
REMARK    1  A    between atoms: O_3  and  C_21
REMARK    2  A    between atoms: O_3  and  C_28
REMARK    3  A    between atoms: O_4  and  C_25
REMARK    4  A    between atoms: O_4  and  C_33
REMARK    5  A    between atoms: O_5  and  C_27
REMARK    6  A    between atoms: O_5  and  C_34
REMARK    7  A    between atoms: N_7  and  C_20
REMARK    8  A    between atoms: C_9  and  C_15
REMARK    9  A    between atoms: C_10  and  C_14
REMARK   10  A    between atoms: C_14  and  C_16
REMARK   11  A    between atoms: C_15  and  C_17
REMARK   12  A    between atoms: C_19  and  C_21
REMARK   13  A    between atoms: C_20  and  C_22
REMARK                            x       y       z     vdW  Elec       q    Type
REMARK                         _______ _______ _______ _____ _____    ______ ____
ROOT
ATOM      6  N   UNL     1      -9.611 -11.579   7.804  0.00  0.00    -0.316 NA
ATOM      9  C   UNL     1      -7.652  -9.432   8.312  0.00  0.00    +0.004 C 
ATOM     10  C   UNL     1      -9.040  -9.166   7.681  0.00  0.00    +0.012 C 
ATOM     11  C   UNL     1      -7.717 -10.726   9.140  0.00  0.00    +0.019 C 
ATOM     12  C   UNL     1      -9.571 -10.402   6.936  0.00  0.00    +0.085 C 
ATOM     13  C   UNL     1      -8.292 -11.898   8.347  0.00  0.00    +0.081 C 
ATOM     36  H   UNL     1      -9.959 -12.377   7.273  0.00  0.00    +0.122 HD
ENDROOT
BRANCH  10  14
ATOM     14  C   UNL     1      -9.058  -7.939   6.769  0.00  0.00    +0.064 C 
BRANCH  14  16
ATOM      2  O   UNL     1      -8.827  -4.877   8.650  0.00  0.00    -0.356 OA
ATOM      8  N   UNL     1      -8.260  -5.955   7.979  0.00  0.00    -0.083 NA
ATOM     16  C   UNL     1      -9.298  -6.679   7.550  0.00  0.00    +0.084 A 
ATOM     18  C   UNL     1     -10.531  -6.115   7.917  0.00  0.00    +0.074 A 
ATOM     19  C   UNL     1     -10.180  -4.984   8.606  0.00  0.00    +0.175 A 
BRANCH  19  21
ATOM     21  C   UNL     1     -10.942  -3.921   9.272  0.00  0.00    +0.306 C 
BRANCH  21   3
ATOM      3  O   UNL     1     -11.663  -4.453  10.387  0.00  0.00    -0.484 OA
BRANCH   3  28
ATOM     28  C   UNL     1     -12.875  -3.881  10.657  0.00  0.00    +0.121 A 
ATOM     29  C   UNL     1     -13.684  -3.435   9.612  0.00  0.00    +0.045 A 
ATOM     30  C   UNL     1     -13.301  -3.741  11.978  0.00  0.00    +0.045 A 
ATOM     31  C   UNL     1     -14.921  -2.852   9.888  0.00  0.00    +0.004 A 
ATOM     32  C   UNL     1     -14.537  -3.158  12.254  0.00  0.00    +0.004 A 
ATOM     35  C   UNL     1     -15.347  -2.712  11.209  0.00  0.00    +0.000 A 
ENDBRANCH   3  28
ENDBRANCH  21   3
ENDBRANCH  19  21
ENDBRANCH  14  16
ENDBRANCH  10  14
BRANCH   9  15
ATOM     15  C   UNL     1      -6.507  -9.492   7.294  0.00  0.00    +0.099 C 
BRANCH  15  17
ATOM      1  O   UNL     1      -4.595 -10.923   7.685  0.00  0.00    -0.276 OA
ATOM      7  N   UNL     1      -4.763  -8.905   8.828  0.00  0.00    -0.311 N 
ATOM     17  C   UNL     1      -5.190  -9.878   7.936  0.00  0.00    +0.214 C 
ATOM     37  H   UNL     1      -5.332  -8.079   8.980  0.00  0.00    +0.149 HD
BRANCH   7  20
ATOM     20  C   UNL     1      -3.537  -9.013   9.584  0.00  0.00    +0.139 C 
BRANCH  20  22
ATOM     22  C   UNL     1      -3.767  -9.597  10.948  0.00  0.00    -0.027 A 
ATOM     23  C   UNL     1      -2.716 -10.209  11.631  0.00  0.00    +0.054 A 
ATOM     24  C   UNL     1      -5.032  -9.527  11.533  0.00  0.00    +0.009 A 
ATOM     25  C   UNL     1      -2.930 -10.750  12.899  0.00  0.00    +0.162 A 
ATOM     26  C   UNL     1      -5.246 -10.068  12.800  0.00  0.00    +0.050 A 
ATOM     27  C   UNL     1      -4.194 -10.680  13.483  0.00  0.00    +0.162 A 
BRANCH  25   4
ATOM      4  O   UNL     1      -1.895 -11.344  13.557  0.00  0.00    -0.491 OA
ATOM     33  C   UNL     1      -1.665 -12.725  13.290  0.00  0.00    +0.277 C 
ENDBRANCH  25   4
BRANCH  27   5
ATOM      5  O   UNL     1      -4.415 -11.204  14.721  0.00  0.00    -0.491 OA
ATOM     34  C   UNL     1      -5.407 -10.570  15.525  0.00  0.00    +0.277 C 
ENDBRANCH  27   5
ENDBRANCH  20  22
ENDBRANCH   7  20
ENDBRANCH  15  17
ENDBRANCH   9  15
TORSDOF 11
ENDMDL
