MODEL 1
REMARK VINA RESULT:      -8.0      0.000      0.000
REMARK  Name = 26743884
REMARK  8 active torsions:
REMARK  status: ('A' for Active; 'I' for Inactive)
REMARK    1  A    between atoms: O_4  and  C_12
REMARK    2  A    between atoms: O_6  and  C_20
REMARK    3  A    between atoms: O_6  and  C_30
REMARK    4  A    between atoms: N_7  and  C_14
REMARK    5  A    between atoms: C_10  and  C_15
REMARK    6  A    between atoms: C_14  and  C_16
REMARK    7  A    between atoms: C_19  and  C_22
REMARK    8  A    between atoms: C_26  and  C_29
REMARK                            x       y       z     vdW  Elec       q    Type
REMARK                         _______ _______ _______ _____ _____    ______ ____
ROOT
ATOM      7  N   UNL     1     -17.352   3.072  27.209  0.00  0.00    -0.285 NA
ATOM     10  C   UNL     1     -16.455   2.249  26.374  0.00  0.00    +0.149 C 
ATOM     11  C   UNL     1     -17.115   0.858  26.339  0.00  0.00    +0.061 C 
ATOM     12  C   UNL     1     -18.351   0.985  27.221  0.00  0.00    +0.130 C 
ATOM     13  C   UNL     1     -18.019   2.153  28.131  0.00  0.00    +0.116 C 
ENDROOT
BRANCH  10  15
ATOM      5  O   UNL     1     -16.693   2.088  23.947  0.00  0.00    -0.336 OA
ATOM      8  N   UNL     1     -15.692   3.966  24.645  0.00  0.00    -0.190 NA
ATOM      9  N   UNL     1     -16.394   2.821  22.792  0.00  0.00    -0.056 NA
ATOM     15  C   UNL     1     -16.247   2.832  24.991  0.00  0.00    +0.245 A 
ATOM     19  C   UNL     1     -15.805   3.914  23.285  0.00  0.00    +0.202 A 
BRANCH  19  22
ATOM     22  C   UNL     1     -15.319   4.974  22.449  0.00  0.00    +0.023 A 
ATOM     24  C   UNL     1     -13.948   5.130  22.245  0.00  0.00    +0.015 A 
ATOM     25  C   UNL     1     -16.219   5.848  21.839  0.00  0.00    +0.012 A 
ATOM     26  C   UNL     1     -13.477   6.160  21.431  0.00  0.00    -0.050 A 
ATOM     27  C   UNL     1     -15.748   6.878  21.025  0.00  0.00    +0.001 A 
ATOM     28  C   UNL     1     -14.378   7.035  20.821  0.00  0.00    +0.003 A 
ATOM     29  C   UNL     1     -12.012   6.328  21.212  0.00  0.00    +0.044 C 
ENDBRANCH  19  22
ENDBRANCH  10  15
BRANCH  12   4
ATOM      4  O   UNL     1     -18.571  -0.205  27.953  0.00  0.00    -0.390 OA
ATOM     31  H   UNL     1     -18.544   0.023  28.897  0.00  0.00    +0.210 HD
ENDBRANCH  12   4
BRANCH   7  14
ATOM     14  C   UNL     1     -16.660   4.145  27.910  0.00  0.00    +0.120 C 
BRANCH  14  16
ATOM     16  C   UNL     1     -16.015   3.660  29.181  0.00  0.00    -0.030 A 
ATOM     17  C   UNL     1     -15.011   2.691  29.127  0.00  0.00    +0.051 A 
ATOM     18  C   UNL     1     -16.419   4.177  30.410  0.00  0.00    +0.005 A 
ATOM     20  C   UNL     1     -14.414   2.241  30.305  0.00  0.00    +0.130 A 
ATOM     21  C   UNL     1     -15.822   3.727  31.588  0.00  0.00    +0.004 A 
ATOM     23  C   UNL     1     -14.819   2.759  31.535  0.00  0.00    +0.046 A 
BRANCH  20   6
ATOM      6  O   UNL     1     -13.436   1.296  30.252  0.00  0.00    -0.406 OA
BRANCH   6  30
ATOM      1  F   UNL     1     -14.575  -0.431  31.227  0.00  0.00    -0.133 F 
ATOM      2  F   UNL     1     -12.711  -0.840  30.162  0.00  0.00    -0.133 F 
ATOM      3  F   UNL     1     -14.498  -0.312  29.022  0.00  0.00    -0.133 F 
ATOM     30  C   UNL     1     -13.823  -0.071  30.166  0.00  0.00    +0.575 C 
ENDBRANCH   6  30
ENDBRANCH  20   6
ENDBRANCH  14  16
ENDBRANCH   7  14
TORSDOF 7
ENDMDL
MODEL 2
REMARK VINA RESULT:      -7.9     28.921     32.294
REMARK  Name = 26743884
REMARK  8 active torsions:
REMARK  status: ('A' for Active; 'I' for Inactive)
REMARK    1  A    between atoms: O_4  and  C_12
REMARK    2  A    between atoms: O_6  and  C_20
REMARK    3  A    between atoms: O_6  and  C_30
REMARK    4  A    between atoms: N_7  and  C_14
REMARK    5  A    between atoms: C_10  and  C_15
REMARK    6  A    between atoms: C_14  and  C_16
REMARK    7  A    between atoms: C_19  and  C_22
REMARK    8  A    between atoms: C_26  and  C_29
REMARK                            x       y       z     vdW  Elec       q    Type
REMARK                         _______ _______ _______ _____ _____    ______ ____
ROOT
ATOM      7  N   UNL     1      13.111   7.952  20.793  0.00  0.00    -0.285 NA
ATOM     10  C   UNL     1      12.261   7.783  19.598  0.00  0.00    +0.149 C 
ATOM     11  C   UNL     1      10.924   8.452  19.967  0.00  0.00    +0.061 C 
ATOM     12  C   UNL     1      11.103   8.925  21.405  0.00  0.00    +0.130 C 
ATOM     13  C   UNL     1      12.205   8.029  21.938  0.00  0.00    +0.116 C 
ENDROOT
BRANCH  10  15
ATOM      5  O   UNL     1      12.639   7.724  17.184  0.00  0.00    -0.336 OA
ATOM      8  N   UNL     1      13.642   9.435  18.224  0.00  0.00    -0.190 NA
ATOM      9  N   UNL     1      13.310   8.444  16.188  0.00  0.00    -0.056 NA
ATOM     15  C   UNL     1      12.886   8.374  18.350  0.00  0.00    +0.245 A 
ATOM     19  C   UNL     1      13.878   9.437  16.879  0.00  0.00    +0.202 A 
BRANCH  19  22
ATOM     22  C   UNL     1      14.685  10.448  16.258  0.00  0.00    +0.023 A 
ATOM     24  C   UNL     1      15.118  11.548  16.998  0.00  0.00    +0.015 A 
ATOM     25  C   UNL     1      15.037  10.328  14.913  0.00  0.00    +0.012 A 
ATOM     26  C   UNL     1      15.903  12.529  16.393  0.00  0.00    -0.050 A 
ATOM     27  C   UNL     1      15.822  11.310  14.309  0.00  0.00    +0.001 A 
ATOM     28  C   UNL     1      16.255  12.410  15.048  0.00  0.00    +0.003 A 
ATOM     29  C   UNL     1      16.366  13.706  17.183  0.00  0.00    +0.044 C 
ENDBRANCH  19  22
ENDBRANCH  10  15
BRANCH  12   4
ATOM      4  O   UNL     1       9.903   8.774  22.136  0.00  0.00    -0.390 OA
ATOM     31  H   UNL     1       9.285   9.459  21.830  0.00  0.00    +0.210 HD
ENDBRANCH  12   4
BRANCH   7  14
ATOM     14  C   UNL     1      14.101   6.896  20.948  0.00  0.00    +0.120 C 
BRANCH  14  16
ATOM     16  C   UNL     1      15.497   7.447  21.071  0.00  0.00    -0.030 A 
ATOM     17  C   UNL     1      16.572   6.583  21.282  0.00  0.00    +0.051 A 
ATOM     18  C   UNL     1      15.715   8.821  20.974  0.00  0.00    +0.005 A 
ATOM     20  C   UNL     1      17.865   7.094  21.397  0.00  0.00    +0.130 A 
ATOM     21  C   UNL     1      17.008   9.332  21.090  0.00  0.00    +0.004 A 
ATOM     23  C   UNL     1      18.082   8.468  21.300  0.00  0.00    +0.046 A 
BRANCH  20   6
ATOM      6  O   UNL     1      18.913   6.250  21.604  0.00  0.00    -0.406 OA
BRANCH   6  30
ATOM      1  F   UNL     1      20.550   6.752  20.087  0.00  0.00    -0.133 F 
ATOM      2  F   UNL     1      18.808   5.600  19.445  0.00  0.00    -0.133 F 
ATOM      3  F   UNL     1      20.298   4.653  20.732  0.00  0.00    -0.133 F 
ATOM     30  C   UNL     1      19.659   5.814  20.473  0.00  0.00    +0.575 C 
ENDBRANCH   6  30
ENDBRANCH  20   6
ENDBRANCH  14  16
ENDBRANCH   7  14
TORSDOF 7
ENDMDL
MODEL 3
REMARK VINA RESULT:      -7.8     18.853     20.350
REMARK  Name = 26743884
REMARK  8 active torsions:
REMARK  status: ('A' for Active; 'I' for Inactive)
REMARK    1  A    between atoms: O_4  and  C_12
REMARK    2  A    between atoms: O_6  and  C_20
REMARK    3  A    between atoms: O_6  and  C_30
REMARK    4  A    between atoms: N_7  and  C_14
REMARK    5  A    between atoms: C_10  and  C_15
REMARK    6  A    between atoms: C_14  and  C_16
REMARK    7  A    between atoms: C_19  and  C_22
REMARK    8  A    between atoms: C_26  and  C_29
REMARK                            x       y       z     vdW  Elec       q    Type
REMARK                         _______ _______ _______ _____ _____    ______ ____
ROOT
ATOM      7  N   UNL     1      -8.391  -9.760  16.236  0.00  0.00    -0.285 NA
ATOM     10  C   UNL     1      -9.194  -9.621  15.005  0.00  0.00    +0.149 C 
ATOM     11  C   UNL     1      -9.959  -8.297  15.181  0.00  0.00    +0.061 C 
ATOM     12  C   UNL     1      -9.557  -7.789  16.561  0.00  0.00    +0.130 C 
ATOM     13  C   UNL     1      -9.116  -9.046  17.286  0.00  0.00    +0.116 C 
ENDROOT
BRANCH  10  15
ATOM      5  O   UNL     1      -9.013  -9.713  12.569  0.00  0.00    -0.336 OA
ATOM      8  N   UNL     1      -7.042  -9.605  13.629  0.00  0.00    -0.190 NA
ATOM      9  N   UNL     1      -8.033  -9.722  11.569  0.00  0.00    -0.056 NA
ATOM     15  C   UNL     1      -8.345  -9.643  13.750  0.00  0.00    +0.245 A 
ATOM     19  C   UNL     1      -6.898  -9.657  12.272  0.00  0.00    +0.202 A 
BRANCH  19  22
ATOM     22  C   UNL     1      -5.605  -9.639  11.651  0.00  0.00    +0.023 A 
ATOM     24  C   UNL     1      -4.617 -10.530  12.070  0.00  0.00    +0.015 A 
ATOM     25  C   UNL     1      -5.336  -8.730  10.627  0.00  0.00    +0.012 A 
ATOM     26  C   UNL     1      -3.360 -10.512  11.466  0.00  0.00    -0.050 A 
ATOM     27  C   UNL     1      -4.079  -8.713  10.023  0.00  0.00    +0.001 A 
ATOM     28  C   UNL     1      -3.091  -9.603  10.442  0.00  0.00    +0.003 A 
ATOM     29  C   UNL     1      -2.303 -11.464  11.914  0.00  0.00    +0.044 C 
ENDBRANCH  19  22
ENDBRANCH  10  15
BRANCH  12   4
ATOM      4  O   UNL     1     -10.652  -7.168  17.206  0.00  0.00    -0.390 OA
ATOM     31  H   UNL     1     -10.293  -6.591  17.901  0.00  0.00    +0.210 HD
ENDBRANCH  12   4
BRANCH   7  14
ATOM     14  C   UNL     1      -8.129 -11.147  16.596  0.00  0.00    +0.120 C 
BRANCH  14  16
ATOM     16  C   UNL     1      -6.756 -11.323  17.188  0.00  0.00    -0.030 A 
ATOM     17  C   UNL     1      -5.668 -10.642  16.640  0.00  0.00    +0.051 A 
ATOM     18  C   UNL     1      -6.571 -12.166  18.283  0.00  0.00    +0.005 A 
ATOM     20  C   UNL     1      -4.395 -10.806  17.187  0.00  0.00    +0.130 A 
ATOM     21  C   UNL     1      -5.298 -12.330  18.831  0.00  0.00    +0.004 A 
ATOM     23  C   UNL     1      -4.211 -11.650  18.283  0.00  0.00    +0.046 A 
BRANCH  20   6
ATOM      6  O   UNL     1      -3.334 -10.143  16.652  0.00  0.00    -0.406 OA
BRANCH   6  30
ATOM      1  F   UNL     1      -1.290 -11.108  16.301  0.00  0.00    -0.133 F 
ATOM      2  F   UNL     1      -2.283 -10.066  14.656  0.00  0.00    -0.133 F 
ATOM      3  F   UNL     1      -3.069 -11.990  15.330  0.00  0.00    -0.133 F 
ATOM     30  C   UNL     1      -2.491 -10.842  15.744  0.00  0.00    +0.575 C 
ENDBRANCH   6  30
ENDBRANCH  20   6
ENDBRANCH  14  16
ENDBRANCH   7  14
TORSDOF 7
ENDMDL
MODEL 4
REMARK VINA RESULT:      -7.8     28.939     32.285
REMARK  Name = 26743884
REMARK  8 active torsions:
REMARK  status: ('A' for Active; 'I' for Inactive)
REMARK    1  A    between atoms: O_4  and  C_12
REMARK    2  A    between atoms: O_6  and  C_20
REMARK    3  A    between atoms: O_6  and  C_30
REMARK    4  A    between atoms: N_7  and  C_14
REMARK    5  A    between atoms: C_10  and  C_15
REMARK    6  A    between atoms: C_14  and  C_16
REMARK    7  A    between atoms: C_19  and  C_22
REMARK    8  A    between atoms: C_26  and  C_29
REMARK                            x       y       z     vdW  Elec       q    Type
REMARK                         _______ _______ _______ _____ _____    ______ ____
ROOT
ATOM      7  N   UNL     1      13.163   7.806  20.638  0.00  0.00    -0.285 NA
ATOM     10  C   UNL     1      12.311   7.773  19.432  0.00  0.00    +0.149 C 
ATOM     11  C   UNL     1      11.025   8.516  19.837  0.00  0.00    +0.061 C 
ATOM     12  C   UNL     1      11.228   8.888  21.301  0.00  0.00    +0.130 C 
ATOM     13  C   UNL     1      12.256   7.881  21.782  0.00  0.00    +0.116 C 
ENDROOT
BRANCH  10  15
ATOM      5  O   UNL     1      12.843   7.727  17.047  0.00  0.00    -0.336 OA
ATOM      8  N   UNL     1      13.702   9.483  18.141  0.00  0.00    -0.190 NA
ATOM      9  N   UNL     1      13.544   8.475  16.092  0.00  0.00    -0.056 NA
ATOM     15  C   UNL     1      12.987   8.389  18.224  0.00  0.00    +0.245 A 
ATOM     19  C   UNL     1      14.023   9.493  16.814  0.00  0.00    +0.202 A 
BRANCH  19  22
ATOM     22  C   UNL     1      14.822  10.538  16.241  0.00  0.00    +0.023 A 
ATOM     24  C   UNL     1      15.299  11.572  17.045  0.00  0.00    +0.015 A 
ATOM     25  C   UNL     1      15.121  10.518  14.879  0.00  0.00    +0.012 A 
ATOM     26  C   UNL     1      16.077  12.587  16.487  0.00  0.00    -0.050 A 
ATOM     27  C   UNL     1      15.899  11.533  14.321  0.00  0.00    +0.001 A 
ATOM     28  C   UNL     1      16.376  12.567  15.124  0.00  0.00    +0.003 A 
ATOM     29  C   UNL     1      16.588  13.694  17.346  0.00  0.00    +0.044 C 
ENDBRANCH  19  22
ENDBRANCH  10  15
BRANCH  12   4
ATOM      4  O   UNL     1      10.015   8.783  22.019  0.00  0.00    -0.390 OA
ATOM     31  H   UNL     1       9.313   9.163  21.464  0.00  0.00    +0.210 HD
ENDBRANCH  12   4
BRANCH   7  14
ATOM     14  C   UNL     1      14.070   6.671  20.731  0.00  0.00    +0.120 C 
BRANCH  14  16
ATOM     16  C   UNL     1      15.510   7.107  20.787  0.00  0.00    -0.030 A 
ATOM     17  C   UNL     1      15.841   8.355  21.317  0.00  0.00    +0.051 A 
ATOM     18  C   UNL     1      16.514   6.264  20.310  0.00  0.00    +0.005 A 
ATOM     20  C   UNL     1      17.175   8.760  21.368  0.00  0.00    +0.130 A 
ATOM     21  C   UNL     1      17.848   6.669  20.360  0.00  0.00    +0.004 A 
ATOM     23  C   UNL     1      18.178   7.916  20.890  0.00  0.00    +0.046 A 
BRANCH  20   6
ATOM      6  O   UNL     1      17.496   9.977  21.884  0.00  0.00    -0.406 OA
BRANCH   6  30
ATOM      1  F   UNL     1      16.958  10.934  19.877  0.00  0.00    -0.133 F 
ATOM      2  F   UNL     1      19.021  11.026  20.592  0.00  0.00    -0.133 F 
ATOM      3  F   UNL     1      17.496  12.243  21.575  0.00  0.00    -0.133 F 
ATOM     30  C   UNL     1      17.727  11.053  20.981  0.00  0.00    +0.575 C 
ENDBRANCH   6  30
ENDBRANCH  20   6
ENDBRANCH  14  16
ENDBRANCH   7  14
TORSDOF 7
ENDMDL
MODEL 5
REMARK VINA RESULT:      -7.6     20.449     22.768
REMARK  Name = 26743884
REMARK  8 active torsions:
REMARK  status: ('A' for Active; 'I' for Inactive)
REMARK    1  A    between atoms: O_4  and  C_12
REMARK    2  A    between atoms: O_6  and  C_20
REMARK    3  A    between atoms: O_6  and  C_30
REMARK    4  A    between atoms: N_7  and  C_14
REMARK    5  A    between atoms: C_10  and  C_15
REMARK    6  A    between atoms: C_14  and  C_16
REMARK    7  A    between atoms: C_19  and  C_22
REMARK    8  A    between atoms: C_26  and  C_29
REMARK                            x       y       z     vdW  Elec       q    Type
REMARK                         _______ _______ _______ _____ _____    ______ ____
ROOT
ATOM      7  N   UNL     1      -4.447 -10.055  10.184  0.00  0.00    -0.285 NA
ATOM     10  C   UNL     1      -5.359  -9.146  10.907  0.00  0.00    +0.149 C 
ATOM     11  C   UNL     1      -6.446  -8.779   9.879  0.00  0.00    +0.061 C 
ATOM     12  C   UNL     1      -6.033  -9.492   8.597  0.00  0.00    +0.130 C 
ATOM     13  C   UNL     1      -4.540  -9.695   8.770  0.00  0.00    +0.116 C 
ENDROOT
BRANCH  10  15
ATOM      5  O   UNL     1      -6.947 -10.654  11.992  0.00  0.00    -0.336 OA
ATOM      8  N   UNL     1      -5.584  -9.585  13.412  0.00  0.00    -0.190 NA
ATOM      9  N   UNL     1      -7.302 -11.091  13.275  0.00  0.00    -0.056 NA
ATOM     15  C   UNL     1      -5.929  -9.771  12.164  0.00  0.00    +0.245 A 
ATOM     19  C   UNL     1      -6.455 -10.416  14.058  0.00  0.00    +0.202 A 
BRANCH  19  22
ATOM     22  C   UNL     1      -6.451 -10.549  15.486  0.00  0.00    +0.023 A 
ATOM     24  C   UNL     1      -5.718 -11.570  16.090  0.00  0.00    +0.015 A 
ATOM     25  C   UNL     1      -7.179  -9.654  16.271  0.00  0.00    +0.012 A 
ATOM     26  C   UNL     1      -5.714 -11.698  17.479  0.00  0.00    -0.050 A 
ATOM     27  C   UNL     1      -7.175  -9.782  17.660  0.00  0.00    +0.001 A 
ATOM     28  C   UNL     1      -6.442 -10.804  18.264  0.00  0.00    +0.003 A 
ATOM     29  C   UNL     1      -4.931 -12.790  18.126  0.00  0.00    +0.044 C 
ENDBRANCH  19  22
ENDBRANCH  10  15
BRANCH  12   4
ATOM      4  O   UNL     1      -6.327  -8.697   7.464  0.00  0.00    -0.390 OA
ATOM     31  H   UNL     1      -5.774  -9.017   6.732  0.00  0.00    +0.210 HD
ENDBRANCH  12   4
BRANCH   7  14
ATOM     14  C   UNL     1      -3.076 -10.002  10.674  0.00  0.00    +0.120 C 
BRANCH  14  16
ATOM     16  C   UNL     1      -2.788 -11.107  11.655  0.00  0.00    -0.030 A 
ATOM     17  C   UNL     1      -2.122 -10.823  12.849  0.00  0.00    +0.051 A 
ATOM     18  C   UNL     1      -3.185 -12.413  11.372  0.00  0.00    +0.005 A 
ATOM     20  C   UNL     1      -1.854 -11.847  13.757  0.00  0.00    +0.130 A 
ATOM     21  C   UNL     1      -2.916 -13.437  12.280  0.00  0.00    +0.004 A 
ATOM     23  C   UNL     1      -2.252 -13.154  13.473  0.00  0.00    +0.046 A 
BRANCH  20   6
ATOM      6  O   UNL     1      -1.204 -11.570  14.921  0.00  0.00    -0.406 OA
BRANCH   6  30
ATOM      1  F   UNL     1      -3.046 -10.330  15.469  0.00  0.00    -0.133 F 
ATOM      2  F   UNL     1      -1.059  -9.433  15.633  0.00  0.00    -0.133 F 
ATOM      3  F   UNL     1      -1.664 -10.959  17.076  0.00  0.00    -0.133 F 
ATOM     30  C   UNL     1      -1.757 -10.582  15.782  0.00  0.00    +0.575 C 
ENDBRANCH   6  30
ENDBRANCH  20   6
ENDBRANCH  14  16
ENDBRANCH   7  14
TORSDOF 7
ENDMDL
MODEL 6
REMARK VINA RESULT:      -7.5      2.116      2.609
REMARK  Name = 26743884
REMARK  8 active torsions:
REMARK  status: ('A' for Active; 'I' for Inactive)
REMARK    1  A    between atoms: O_4  and  C_12
REMARK    2  A    between atoms: O_6  and  C_20
REMARK    3  A    between atoms: O_6  and  C_30
REMARK    4  A    between atoms: N_7  and  C_14
REMARK    5  A    between atoms: C_10  and  C_15
REMARK    6  A    between atoms: C_14  and  C_16
REMARK    7  A    between atoms: C_19  and  C_22
REMARK    8  A    between atoms: C_26  and  C_29
REMARK                            x       y       z     vdW  Elec       q    Type
REMARK                         _______ _______ _______ _____ _____    ______ ____
ROOT
ATOM      7  N   UNL     1     -16.665   2.178  27.343  0.00  0.00    -0.285 NA
ATOM     10  C   UNL     1     -16.329   1.462  26.096  0.00  0.00    +0.149 C 
ATOM     11  C   UNL     1     -17.487   0.470  25.886  0.00  0.00    +0.061 C 
ATOM     12  C   UNL     1     -18.400   0.669  27.090  0.00  0.00    +0.130 C 
ATOM     13  C   UNL     1     -17.479   1.261  28.139  0.00  0.00    +0.116 C 
ENDROOT
BRANCH  10  15
ATOM      5  O   UNL     1     -16.652   1.987  23.731  0.00  0.00    -0.336 OA
ATOM      8  N   UNL     1     -15.546   3.564  24.874  0.00  0.00    -0.190 NA
ATOM      9  N   UNL     1     -16.359   3.000  22.810  0.00  0.00    -0.056 NA
ATOM     15  C   UNL     1     -16.140   2.398  24.919  0.00  0.00    +0.245 A 
ATOM     19  C   UNL     1     -15.705   3.894  23.558  0.00  0.00    +0.202 A 
BRANCH  19  22
ATOM     22  C   UNL     1     -15.200   5.126  23.025  0.00  0.00    +0.023 A 
ATOM     24  C   UNL     1     -14.009   5.137  22.300  0.00  0.00    +0.015 A 
ATOM     25  C   UNL     1     -15.902   6.314  23.233  0.00  0.00    +0.012 A 
ATOM     26  C   UNL     1     -13.519   6.336  21.781  0.00  0.00    -0.050 A 
ATOM     27  C   UNL     1     -15.412   7.513  22.714  0.00  0.00    +0.001 A 
ATOM     28  C   UNL     1     -14.221   7.524  21.989  0.00  0.00    +0.003 A 
ATOM     29  C   UNL     1     -12.246   6.349  21.006  0.00  0.00    +0.044 C 
ENDBRANCH  19  22
ENDBRANCH  10  15
BRANCH  12   4
ATOM      4  O   UNL     1     -18.953  -0.563  27.511  0.00  0.00    -0.390 OA
ATOM     31  H   UNL     1     -18.944  -0.571  28.482  0.00  0.00    +0.210 HD
ENDBRANCH  12   4
BRANCH   7  14
ATOM     14  C   UNL     1     -15.493   2.645  28.071  0.00  0.00    +0.120 C 
BRANCH  14  16
ATOM     16  C   UNL     1     -15.855   3.651  29.131  0.00  0.00    -0.030 A 
ATOM     17  C   UNL     1     -15.464   3.440  30.454  0.00  0.00    +0.051 A 
ATOM     18  C   UNL     1     -16.581   4.792  28.792  0.00  0.00    +0.005 A 
ATOM     20  C   UNL     1     -15.801   4.371  31.437  0.00  0.00    +0.130 A 
ATOM     21  C   UNL     1     -16.917   5.723  29.775  0.00  0.00    +0.004 A 
ATOM     23  C   UNL     1     -16.526   5.512  31.097  0.00  0.00    +0.046 A 
BRANCH  20   6
ATOM      6  O   UNL     1     -15.419   4.164  32.727  0.00  0.00    -0.406 OA
BRANCH   6  30
ATOM      1  F   UNL     1     -13.386   3.137  32.930  0.00  0.00    -0.133 F 
ATOM      2  F   UNL     1     -13.940   4.711  34.342  0.00  0.00    -0.133 F 
ATOM      3  F   UNL     1     -13.456   5.248  32.280  0.00  0.00    -0.133 F 
ATOM     30  C   UNL     1     -14.042   4.310  33.055  0.00  0.00    +0.575 C 
ENDBRANCH   6  30
ENDBRANCH  20   6
ENDBRANCH  14  16
ENDBRANCH   7  14
TORSDOF 7
ENDMDL
MODEL 7
REMARK VINA RESULT:      -7.5     18.060     19.807
REMARK  Name = 26743884
REMARK  8 active torsions:
REMARK  status: ('A' for Active; 'I' for Inactive)
REMARK    1  A    between atoms: O_4  and  C_12
REMARK    2  A    between atoms: O_6  and  C_20
REMARK    3  A    between atoms: O_6  and  C_30
REMARK    4  A    between atoms: N_7  and  C_14
REMARK    5  A    between atoms: C_10  and  C_15
REMARK    6  A    between atoms: C_14  and  C_16
REMARK    7  A    between atoms: C_19  and  C_22
REMARK    8  A    between atoms: C_26  and  C_29
REMARK                            x       y       z     vdW  Elec       q    Type
REMARK                         _______ _______ _______ _____ _____    ______ ____
ROOT
ATOM      7  N   UNL     1      -7.289 -10.717  17.598  0.00  0.00    -0.285 NA
ATOM     10  C   UNL     1      -5.909 -10.868  18.102  0.00  0.00    +0.149 C 
ATOM     11  C   UNL     1      -5.918 -12.195  18.884  0.00  0.00    +0.061 C 
ATOM     12  C   UNL     1      -7.356 -12.691  18.803  0.00  0.00    +0.130 C 
ATOM     13  C   UNL     1      -8.153 -11.427  18.540  0.00  0.00    +0.116 C 
ENDROOT
BRANCH  10  15
ATOM      5  O   UNL     1      -3.590 -11.080  17.358  0.00  0.00    -0.336 OA
ATOM      8  N   UNL     1      -5.043 -10.643  15.710  0.00  0.00    -0.190 NA
ATOM      9  N   UNL     1      -2.834 -11.014  16.181  0.00  0.00    -0.056 NA
ATOM     15  C   UNL     1      -4.878 -10.851  16.992  0.00  0.00    +0.245 A 
ATOM     19  C   UNL     1      -3.760 -10.753  15.254  0.00  0.00    +0.202 A 
BRANCH  19  22
ATOM     22  C   UNL     1      -3.440 -10.597  13.864  0.00  0.00    +0.023 A 
ATOM     24  C   UNL     1      -4.454 -10.373  12.935  0.00  0.00    +0.015 A 
ATOM     25  C   UNL     1      -2.111 -10.669  13.444  0.00  0.00    +0.012 A 
ATOM     26  C   UNL     1      -4.141 -10.220  11.584  0.00  0.00    -0.050 A 
ATOM     27  C   UNL     1      -1.798 -10.517  12.093  0.00  0.00    +0.001 A 
ATOM     28  C   UNL     1      -2.813 -10.293  11.163  0.00  0.00    +0.003 A 
ATOM     29  C   UNL     1      -5.226  -9.981  10.589  0.00  0.00    +0.044 C 
ENDBRANCH  19  22
ENDBRANCH  10  15
BRANCH  12   4
ATOM      4  O   UNL     1      -7.742 -13.313  20.013  0.00  0.00    -0.390 OA
ATOM     31  H   UNL     1      -8.390 -12.732  20.447  0.00  0.00    +0.210 HD
ENDBRANCH  12   4
BRANCH   7  14
ATOM     14  C   UNL     1      -7.689  -9.327  17.428  0.00  0.00    +0.120 C 
BRANCH  14  16
ATOM     16  C   UNL     1      -8.680  -9.162  16.306  0.00  0.00    -0.030 A 
ATOM     17  C   UNL     1      -9.821  -8.381  16.494  0.00  0.00    +0.051 A 
ATOM     18  C   UNL     1      -8.458  -9.788  15.081  0.00  0.00    +0.005 A 
ATOM     20  C   UNL     1     -10.740  -8.229  15.456  0.00  0.00    +0.130 A 
ATOM     21  C   UNL     1      -9.377  -9.636  14.042  0.00  0.00    +0.004 A 
ATOM     23  C   UNL     1     -10.517  -8.856  14.230  0.00  0.00    +0.046 A 
BRANCH  20   6
ATOM      6  O   UNL     1     -11.853  -7.468  15.640  0.00  0.00    -0.406 OA
BRANCH   6  30
ATOM      1  F   UNL     1     -12.817  -5.448  15.167  0.00  0.00    -0.133 F 
ATOM      2  F   UNL     1     -10.673  -5.717  14.843  0.00  0.00    -0.133 F 
ATOM      3  F   UNL     1     -11.436  -5.596  16.886  0.00  0.00    -0.133 F 
ATOM     30  C   UNL     1     -11.708  -6.052  15.645  0.00  0.00    +0.575 C 
ENDBRANCH   6  30
ENDBRANCH  20   6
ENDBRANCH  14  16
ENDBRANCH   7  14
TORSDOF 7
ENDMDL
MODEL 8
REMARK VINA RESULT:      -7.5     20.369     21.974
REMARK  Name = 26743884
REMARK  8 active torsions:
REMARK  status: ('A' for Active; 'I' for Inactive)
REMARK    1  A    between atoms: O_4  and  C_12
REMARK    2  A    between atoms: O_6  and  C_20
REMARK    3  A    between atoms: O_6  and  C_30
REMARK    4  A    between atoms: N_7  and  C_14
REMARK    5  A    between atoms: C_10  and  C_15
REMARK    6  A    between atoms: C_14  and  C_16
REMARK    7  A    between atoms: C_19  and  C_22
REMARK    8  A    between atoms: C_26  and  C_29
REMARK                            x       y       z     vdW  Elec       q    Type
REMARK                         _______ _______ _______ _____ _____    ______ ____
ROOT
ATOM      7  N   UNL     1      -6.353 -10.744  16.332  0.00  0.00    -0.285 NA
ATOM     10  C   UNL     1      -7.553 -11.113  15.555  0.00  0.00    +0.149 C 
ATOM     11  C   UNL     1      -8.646 -10.137  16.030  0.00  0.00    +0.061 C 
ATOM     12  C   UNL     1      -7.978  -9.289  17.106  0.00  0.00    +0.130 C 
ATOM     13  C   UNL     1      -6.834 -10.164  17.585  0.00  0.00    +0.116 C 
ENDROOT
BRANCH  10  15
ATOM      5  O   UNL     1      -8.113 -11.841  13.290  0.00  0.00    -0.336 OA
ATOM      8  N   UNL     1      -6.458 -10.335  13.384  0.00  0.00    -0.190 NA
ATOM      9  N   UNL     1      -7.719 -11.614  11.966  0.00  0.00    -0.056 NA
ATOM     15  C   UNL     1      -7.322 -11.049  14.060  0.00  0.00    +0.245 A 
ATOM     19  C   UNL     1      -6.739 -10.716  12.103  0.00  0.00    +0.202 A 
BRANCH  19  22
ATOM     22  C   UNL     1      -6.022 -10.178  10.983  0.00  0.00    +0.023 A 
ATOM     24  C   UNL     1      -5.701 -10.996   9.901  0.00  0.00    +0.015 A 
ATOM     25  C   UNL     1      -5.647  -8.834  10.977  0.00  0.00    +0.012 A 
ATOM     26  C   UNL     1      -5.005 -10.471   8.812  0.00  0.00    -0.050 A 
ATOM     27  C   UNL     1      -4.950  -8.309   9.888  0.00  0.00    +0.001 A 
ATOM     28  C   UNL     1      -4.629  -9.128   8.806  0.00  0.00    +0.003 A 
ATOM     29  C   UNL     1      -4.661 -11.346   7.654  0.00  0.00    +0.044 C 
ENDBRANCH  19  22
ENDBRANCH  10  15
BRANCH  12   4
ATOM      4  O   UNL     1      -8.886  -8.995  18.149  0.00  0.00    -0.390 OA
ATOM     31  H   UNL     1      -8.368  -8.671  18.905  0.00  0.00    +0.210 HD
ENDBRANCH  12   4
BRANCH   7  14
ATOM     14  C   UNL     1      -5.449 -11.863  16.558  0.00  0.00    +0.120 C 
BRANCH  14  16
ATOM     16  C   UNL     1      -4.062 -11.576  16.047  0.00  0.00    -0.030 A 
ATOM     17  C   UNL     1      -3.719 -11.909  14.736  0.00  0.00    +0.051 A 
ATOM     18  C   UNL     1      -3.120 -10.978  16.884  0.00  0.00    +0.005 A 
ATOM     20  C   UNL     1      -2.434 -11.644  14.263  0.00  0.00    +0.130 A 
ATOM     21  C   UNL     1      -1.835 -10.713  16.411  0.00  0.00    +0.004 A 
ATOM     23  C   UNL     1      -1.492 -11.046  15.101  0.00  0.00    +0.046 A 
BRANCH  20   6
ATOM      6  O   UNL     1      -2.100 -11.970  12.985  0.00  0.00    -0.406 OA
BRANCH   6  30
ATOM      1  F   UNL     1      -2.724 -11.527  10.829  0.00  0.00    -0.133 F 
ATOM      2  F   UNL     1      -1.057 -10.424  11.712  0.00  0.00    -0.133 F 
ATOM      3  F   UNL     1      -3.092 -10.000  12.383  0.00  0.00    -0.133 F 
ATOM     30  C   UNL     1      -2.261 -10.981  11.974  0.00  0.00    +0.575 C 
ENDBRANCH   6  30
ENDBRANCH  20   6
ENDBRANCH  14  16
ENDBRANCH   7  14
TORSDOF 7
ENDMDL
MODEL 9
REMARK VINA RESULT:      -7.5     19.404     21.818
REMARK  Name = 26743884
REMARK  8 active torsions:
REMARK  status: ('A' for Active; 'I' for Inactive)
REMARK    1  A    between atoms: O_4  and  C_12
REMARK    2  A    between atoms: O_6  and  C_20
REMARK    3  A    between atoms: O_6  and  C_30
REMARK    4  A    between atoms: N_7  and  C_14
REMARK    5  A    between atoms: C_10  and  C_15
REMARK    6  A    between atoms: C_14  and  C_16
REMARK    7  A    between atoms: C_19  and  C_22
REMARK    8  A    between atoms: C_26  and  C_29
REMARK                            x       y       z     vdW  Elec       q    Type
REMARK                         _______ _______ _______ _____ _____    ______ ____
ROOT
ATOM      7  N   UNL     1      -3.129 -10.567  14.219  0.00  0.00    -0.285 NA
ATOM     10  C   UNL     1      -3.470 -11.174  15.521  0.00  0.00    +0.149 C 
ATOM     11  C   UNL     1      -2.296 -10.808  16.447  0.00  0.00    +0.061 C 
ATOM     12  C   UNL     1      -1.323 -10.036  15.564  0.00  0.00    +0.130 C 
ATOM     13  C   UNL     1      -1.669 -10.503  14.163  0.00  0.00    +0.116 C 
ENDROOT
BRANCH  10  15
ATOM      5  O   UNL     1      -4.997 -10.806  17.394  0.00  0.00    -0.336 OA
ATOM      8  N   UNL     1      -5.823 -10.187  15.406  0.00  0.00    -0.190 NA
ATOM      9  N   UNL     1      -6.283 -10.311  17.644  0.00  0.00    -0.056 NA
ATOM     15  C   UNL     1      -4.806 -10.697  16.054  0.00  0.00    +0.245 A 
ATOM     19  C   UNL     1      -6.706  -9.967  16.424  0.00  0.00    +0.202 A 
BRANCH  19  22
ATOM     22  C   UNL     1      -8.001  -9.399  16.188  0.00  0.00    +0.023 A 
ATOM     24  C   UNL     1      -8.650  -9.621  14.973  0.00  0.00    +0.015 A 
ATOM     25  C   UNL     1      -8.613  -8.625  17.174  0.00  0.00    +0.012 A 
ATOM     26  C   UNL     1      -9.910  -9.069  14.744  0.00  0.00    -0.050 A 
ATOM     27  C   UNL     1      -9.873  -8.073  16.945  0.00  0.00    +0.001 A 
ATOM     28  C   UNL     1     -10.522  -8.295  15.730  0.00  0.00    +0.003 A 
ATOM     29  C   UNL     1     -10.604  -9.306  13.446  0.00  0.00    +0.044 C 
ENDBRANCH  19  22
ENDBRANCH  10  15
BRANCH  12   4
ATOM      4  O   UNL     1       0.015 -10.342  15.904  0.00  0.00    -0.390 OA
ATOM     31  H   UNL     1       0.312 -11.052  15.311  0.00  0.00    +0.210 HD
ENDBRANCH  12   4
BRANCH   7  14
ATOM     14  C   UNL     1      -3.690 -11.288  13.085  0.00  0.00    +0.120 C 
BRANCH  14  16
ATOM     16  C   UNL     1      -4.028 -10.365  11.944  0.00  0.00    -0.030 A 
ATOM     17  C   UNL     1      -5.307  -9.817  11.848  0.00  0.00    +0.051 A 
ATOM     18  C   UNL     1      -3.064 -10.059  10.985  0.00  0.00    +0.005 A 
ATOM     20  C   UNL     1      -5.621  -8.963  10.790  0.00  0.00    +0.130 A 
ATOM     21  C   UNL     1      -3.378  -9.205   9.928  0.00  0.00    +0.004 A 
ATOM     23  C   UNL     1      -4.656  -8.657   9.831  0.00  0.00    +0.046 A 
BRANCH  20   6
ATOM      6  O   UNL     1      -6.870  -8.429  10.696  0.00  0.00    -0.406 OA
BRANCH   6  30
ATOM      1  F   UNL     1      -7.486  -9.976   9.129  0.00  0.00    -0.133 F 
ATOM      2  F   UNL     1      -8.919  -8.448   9.750  0.00  0.00    -0.133 F 
ATOM      3  F   UNL     1      -8.411 -10.060  11.134  0.00  0.00    -0.133 F 
ATOM     30  C   UNL     1      -7.915  -9.245  10.179  0.00  0.00    +0.575 C 
ENDBRANCH   6  30
ENDBRANCH  20   6
ENDBRANCH  14  16
ENDBRANCH   7  14
TORSDOF 7
ENDMDL
MODEL 10
REMARK VINA RESULT:      -7.4      5.034      9.000
REMARK  Name = 26743884
REMARK  8 active torsions:
REMARK  status: ('A' for Active; 'I' for Inactive)
REMARK    1  A    between atoms: O_4  and  C_12
REMARK    2  A    between atoms: O_6  and  C_20
REMARK    3  A    between atoms: O_6  and  C_30
REMARK    4  A    between atoms: N_7  and  C_14
REMARK    5  A    between atoms: C_10  and  C_15
REMARK    6  A    between atoms: C_14  and  C_16
REMARK    7  A    between atoms: C_19  and  C_22
REMARK    8  A    between atoms: C_26  and  C_29
REMARK                            x       y       z     vdW  Elec       q    Type
REMARK                         _______ _______ _______ _____ _____    ______ ____
ROOT
ATOM      7  N   UNL     1     -16.934   4.830  21.095  0.00  0.00    -0.285 NA
ATOM     10  C   UNL     1     -17.984   4.370  22.026  0.00  0.00    +0.149 C 
ATOM     11  C   UNL     1     -18.891   3.459  21.178  0.00  0.00    +0.061 C 
ATOM     12  C   UNL     1     -18.297   3.507  19.775  0.00  0.00    +0.130 C 
ATOM     13  C   UNL     1     -17.530   4.816  19.760  0.00  0.00    +0.116 C 
ENDROOT
BRANCH  10  15
ATOM      5  O   UNL     1     -16.625   2.587  23.000  0.00  0.00    -0.336 OA
ATOM      8  N   UNL     1     -17.580   3.939  24.510  0.00  0.00    -0.190 NA
ATOM      9  N   UNL     1     -16.228   2.110  24.256  0.00  0.00    -0.056 NA
ATOM     15  C   UNL     1     -17.418   3.664  23.241  0.00  0.00    +0.245 A 
ATOM     19  C   UNL     1     -16.832   2.957  25.095  0.00  0.00    +0.202 A 
BRANCH  19  22
ATOM     22  C   UNL     1     -16.707   2.854  26.520  0.00  0.00    +0.023 A 
ATOM     24  C   UNL     1     -16.627   4.007  27.299  0.00  0.00    +0.015 A 
ATOM     25  C   UNL     1     -16.666   1.598  27.126  0.00  0.00    +0.012 A 
ATOM     26  C   UNL     1     -16.506   3.905  28.685  0.00  0.00    -0.050 A 
ATOM     27  C   UNL     1     -16.545   1.496  28.512  0.00  0.00    +0.001 A 
ATOM     28  C   UNL     1     -16.465   2.649  29.291  0.00  0.00    +0.003 A 
ATOM     29  C   UNL     1     -16.420   5.138  29.520  0.00  0.00    +0.044 C 
ENDBRANCH  19  22
ENDBRANCH  10  15
BRANCH  12   4
ATOM      4  O   UNL     1     -19.318   3.486  18.796  0.00  0.00    -0.390 OA
ATOM     31  H   UNL     1     -19.753   2.618  18.846  0.00  0.00    +0.210 HD
ENDBRANCH  12   4
BRANCH   7  14
ATOM     14  C   UNL     1     -16.395   6.139  21.441  0.00  0.00    +0.120 C 
BRANCH  14  16
ATOM     16  C   UNL     1     -14.890   6.152  21.405  0.00  0.00    -0.030 A 
ATOM     17  C   UNL     1     -14.220   7.113  20.646  0.00  0.00    +0.051 A 
ATOM     18  C   UNL     1     -14.166   5.206  22.129  0.00  0.00    +0.005 A 
ATOM     20  C   UNL     1     -12.825   7.125  20.612  0.00  0.00    +0.130 A 
ATOM     21  C   UNL     1     -12.772   5.218  22.094  0.00  0.00    +0.004 A 
ATOM     23  C   UNL     1     -12.102   6.178  21.337  0.00  0.00    +0.046 A 
BRANCH  20   6
ATOM      6  O   UNL     1     -12.172   8.062  19.871  0.00  0.00    -0.406 OA
BRANCH   6  30
ATOM      1  F   UNL     1     -11.103   6.481  18.609  0.00  0.00    -0.133 F 
ATOM      2  F   UNL     1     -10.785   8.599  18.173  0.00  0.00    -0.133 F 
ATOM      3  F   UNL     1     -12.707   7.685  17.680  0.00  0.00    -0.133 F 
ATOM     30  C   UNL     1     -11.701   7.691  18.580  0.00  0.00    +0.575 C 
ENDBRANCH   6  30
ENDBRANCH  20   6
ENDBRANCH  14  16
ENDBRANCH   7  14
TORSDOF 7
ENDMDL
