MODEL 1
REMARK VINA RESULT:      -6.3      0.000      0.000
REMARK  Name = 45361595
REMARK  11 active torsions:
REMARK  status: ('A' for Active; 'I' for Inactive)
REMARK    1  A    between atoms: O_1  and  C_10
REMARK    2  A    between atoms: O_4  and  C_29
REMARK    3  A    between atoms: O_4  and  C_30
REMARK    4  A    between atoms: N_5  and  C_14
REMARK    5  A    between atoms: C_7  and  C_17
REMARK    6  A    between atoms: C_9  and  C_19
REMARK    7  A    between atoms: C_12  and  C_18
REMARK    8  A    between atoms: C_18  and  C_20
REMARK    9  A    between atoms: C_18  and  C_21
REMARK   10  A    between atoms: C_22  and  C_25
REMARK   11  A    between atoms: C_25  and  C_29
REMARK                            x       y       z     vdW  Elec       q    Type
REMARK                         _______ _______ _______ _____ _____    ______ ____
ROOT
ATOM      7  C   UNL     1      -3.732 -10.435  10.369  0.00  0.00    -0.027 C 
ATOM      8  C   UNL     1      -5.053 -10.188  11.170  0.00  0.00    +0.028 C 
ATOM      9  C   UNL     1      -5.921  -9.071  10.486  0.00  0.00    +0.012 C 
ATOM     10  C   UNL     1      -4.764  -9.977  12.684  0.00  0.00    +0.122 C 
ATOM     11  C   UNL     1      -2.957 -11.616  11.003  0.00  0.00    +0.007 C 
ATOM     12  C   UNL     1      -3.902 -11.109  13.288  0.00  0.00    +0.029 C 
ATOM     13  C   UNL     1      -4.087 -10.831   8.918  0.00  0.00    +0.009 C 
ATOM     14  C   UNL     1      -6.209  -9.444   9.004  0.00  0.00    +0.076 C 
ATOM     15  C   UNL     1      -2.639 -11.394  12.476  0.00  0.00    +0.007 C 
ATOM     16  C   UNL     1      -4.952  -9.796   8.211  0.00  0.00    +0.023 C 
ATOM     17  C   UNL     1      -2.809  -9.190  10.347  0.00  0.00    +0.011 C 
ATOM     19  C   UNL     1      -7.252  -8.797  11.207  0.00  0.00    +0.010 C 
ENDROOT
BRANCH  14   5
ATOM      3  O   UNL     1      -8.210  -9.737   6.946  0.00  0.00    -0.276 OA
ATOM      5  N   UNL     1      -6.908  -8.383   8.310  0.00  0.00    -0.312 N 
ATOM     22  C   UNL     1      -7.857  -8.625   7.331  0.00  0.00    +0.215 C 
ATOM     31  H   UNL     1      -6.639  -7.424   8.511  0.00  0.00    +0.149 HD
BRANCH  22  25
ATOM     25  C   UNL     1      -8.428  -7.329   6.777  0.00  0.00    +0.124 C 
BRANCH  25  29
ATOM     29  C   UNL     1      -8.337  -6.172   7.760  0.00  0.00    +0.168 C 
BRANCH  29   4
ATOM      4  O   UNL     1      -9.293  -6.357   8.796  0.00  0.00    -0.382 OA
ATOM     30  C   UNL     1     -10.228  -5.288   8.839  0.00  0.00    +0.194 C 
ENDBRANCH  29   4
ENDBRANCH  25  29
ENDBRANCH  22  25
ENDBRANCH  14   5
BRANCH  10   1
ATOM      1  O   UNL     1      -5.996  -9.972  13.408  0.00  0.00    -0.391 OA
ATOM     32  H   UNL     1      -6.495  -9.178  13.150  0.00  0.00    +0.210 HD
ENDBRANCH  10   1
BRANCH  12  18
ATOM     18  C   UNL     1      -3.518 -10.818  14.744  0.00  0.00    +0.078 C 
ATOM     20  C   UNL     1      -2.024 -10.594  14.883  0.00  0.00    +0.017 C 
BRANCH  18  21
ATOM      2  O   UNL     1      -3.716 -13.131  15.214  0.00  0.00    -0.275 OA
ATOM      6  N   UNL     1      -4.601 -11.674  16.793  0.00  0.00    -0.301 N 
ATOM     21  C   UNL     1      -3.949 -11.982  15.599  0.00  0.00    +0.219 C 
ATOM     23  C   UNL     1      -5.052 -12.750  17.677  0.00  0.00    +0.108 C 
ATOM     24  C   UNL     1      -4.853 -10.317  17.297  0.00  0.00    +0.108 C 
ATOM     26  C   UNL     1      -6.537 -12.605  18.000  0.00  0.00    +0.019 C 
ATOM     27  C   UNL     1      -6.335 -10.125  17.614  0.00  0.00    +0.019 C 
ATOM     28  C   UNL     1      -6.849 -11.215  18.554  0.00  0.00    +0.003 C 
ENDBRANCH  18  21
ENDBRANCH  12  18
TORSDOF 7
ENDMDL
MODEL 2
REMARK VINA RESULT:      -6.2      3.471      7.976
REMARK  Name = 45361595
REMARK  11 active torsions:
REMARK  status: ('A' for Active; 'I' for Inactive)
REMARK    1  A    between atoms: O_1  and  C_10
REMARK    2  A    between atoms: O_4  and  C_29
REMARK    3  A    between atoms: O_4  and  C_30
REMARK    4  A    between atoms: N_5  and  C_14
REMARK    5  A    between atoms: C_7  and  C_17
REMARK    6  A    between atoms: C_9  and  C_19
REMARK    7  A    between atoms: C_12  and  C_18
REMARK    8  A    between atoms: C_18  and  C_20
REMARK    9  A    between atoms: C_18  and  C_21
REMARK   10  A    between atoms: C_22  and  C_25
REMARK   11  A    between atoms: C_25  and  C_29
REMARK                            x       y       z     vdW  Elec       q    Type
REMARK                         _______ _______ _______ _____ _____    ______ ____
ROOT
ATOM      7  C   UNL     1      -5.289 -11.178  17.514  0.00  0.00    -0.027 C 
ATOM      8  C   UNL     1      -5.852 -10.494  16.224  0.00  0.00    +0.028 C 
ATOM      9  C   UNL     1      -7.423 -10.529  16.213  0.00  0.00    +0.012 C 
ATOM     10  C   UNL     1      -5.162 -11.048  14.945  0.00  0.00    +0.122 C 
ATOM     11  C   UNL     1      -3.749 -11.026  17.548  0.00  0.00    +0.007 C 
ATOM     12  C   UNL     1      -3.620 -10.988  15.028  0.00  0.00    +0.029 C 
ATOM     13  C   UNL     1      -5.861 -10.460  18.757  0.00  0.00    +0.009 C 
ATOM     14  C   UNL     1      -7.986  -9.872  17.505  0.00  0.00    +0.076 C 
ATOM     15  C   UNL     1      -3.068 -11.602  16.314  0.00  0.00    +0.007 C 
ATOM     16  C   UNL     1      -7.383 -10.440  18.788  0.00  0.00    +0.023 C 
ATOM     17  C   UNL     1      -5.641 -12.686  17.588  0.00  0.00    +0.011 C 
ATOM     19  C   UNL     1      -8.046  -9.846  14.984  0.00  0.00    +0.010 C 
ENDROOT
BRANCH  14   5
ATOM      3  O   UNL     1      -9.906  -7.718  17.576  0.00  0.00    -0.276 OA
ATOM      5  N   UNL     1      -9.426  -9.990  17.583  0.00  0.00    -0.312 N 
ATOM     22  C   UNL     1     -10.269  -8.891  17.612  0.00  0.00    +0.215 C 
ATOM     31  H   UNL     1      -9.824 -10.920  17.683  0.00  0.00    +0.149 HD
BRANCH  22  25
ATOM     25  C   UNL     1     -11.728  -9.311  17.693  0.00  0.00    +0.124 C 
BRANCH  25  29
ATOM     29  C   UNL     1     -11.943 -10.552  18.547  0.00  0.00    +0.168 C 
BRANCH  29   4
ATOM      4  O   UNL     1     -11.183 -10.438  19.743  0.00  0.00    -0.382 OA
ATOM     30  C   UNL     1     -10.836 -11.715  20.263  0.00  0.00    +0.194 C 
ENDBRANCH  29   4
ENDBRANCH  25  29
ENDBRANCH  22  25
ENDBRANCH  14   5
BRANCH  10   1
ATOM      1  O   UNL     1      -5.541 -10.255  13.818  0.00  0.00    -0.391 OA
ATOM     32  H   UNL     1      -4.758 -10.138  13.253  0.00  0.00    +0.210 HD
ENDBRANCH  10   1
BRANCH  12  18
ATOM     18  C   UNL     1      -2.957 -11.656  13.817  0.00  0.00    +0.078 C 
ATOM     20  C   UNL     1      -1.855 -12.606  14.249  0.00  0.00    +0.017 C 
BRANCH  18  21
ATOM      2  O   UNL     1      -1.627  -9.741  13.397  0.00  0.00    -0.275 OA
ATOM      6  N   UNL     1      -2.789 -10.613  11.584  0.00  0.00    -0.301 N 
ATOM     21  C   UNL     1      -2.394 -10.582  12.921  0.00  0.00    +0.219 C 
ATOM     23  C   UNL     1      -2.286  -9.602  10.651  0.00  0.00    +0.108 C 
ATOM     24  C   UNL     1      -3.664 -11.626  10.979  0.00  0.00    +0.108 C 
ATOM     26  C   UNL     1      -3.436  -8.904   9.930  0.00  0.00    +0.019 C 
ATOM     27  C   UNL     1      -4.841 -10.967  10.262  0.00  0.00    +0.019 C 
ATOM     28  C   UNL     1      -4.364  -9.917   9.260  0.00  0.00    +0.003 C 
ENDBRANCH  18  21
ENDBRANCH  12  18
TORSDOF 7
ENDMDL
MODEL 3
REMARK VINA RESULT:      -6.0     27.643     30.527
REMARK  Name = 45361595
REMARK  11 active torsions:
REMARK  status: ('A' for Active; 'I' for Inactive)
REMARK    1  A    between atoms: O_1  and  C_10
REMARK    2  A    between atoms: O_4  and  C_29
REMARK    3  A    between atoms: O_4  and  C_30
REMARK    4  A    between atoms: N_5  and  C_14
REMARK    5  A    between atoms: C_7  and  C_17
REMARK    6  A    between atoms: C_9  and  C_19
REMARK    7  A    between atoms: C_12  and  C_18
REMARK    8  A    between atoms: C_18  and  C_20
REMARK    9  A    between atoms: C_18  and  C_21
REMARK   10  A    between atoms: C_22  and  C_25
REMARK   11  A    between atoms: C_25  and  C_29
REMARK                            x       y       z     vdW  Elec       q    Type
REMARK                         _______ _______ _______ _____ _____    ______ ____
ROOT
ATOM      7  C   UNL     1      15.797   7.236  19.661  0.00  0.00    -0.027 C 
ATOM      8  C   UNL     1      16.344   8.648  20.056  0.00  0.00    +0.028 C 
ATOM      9  C   UNL     1      17.197   8.569  21.372  0.00  0.00    +0.012 C 
ATOM     10  C   UNL     1      15.209   9.712  20.058  0.00  0.00    +0.122 C 
ATOM     11  C   UNL     1      15.059   7.330  18.304  0.00  0.00    +0.007 C 
ATOM     12  C   UNL     1      14.408   9.730  18.736  0.00  0.00    +0.029 C 
ATOM     13  C   UNL     1      16.986   6.265  19.484  0.00  0.00    +0.009 C 
ATOM     14  C   UNL     1      18.346   7.533  21.209  0.00  0.00    +0.076 C 
ATOM     15  C   UNL     1      13.922   8.343  18.315  0.00  0.00    +0.007 C 
ATOM     16  C   UNL     1      17.867   6.167  20.722  0.00  0.00    +0.023 C 
ATOM     17  C   UNL     1      14.821   6.660  20.719  0.00  0.00    +0.011 C 
ATOM     19  C   UNL     1      17.792   9.921  21.804  0.00  0.00    +0.010 C 
ENDROOT
BRANCH  14   5
ATOM      3  O   UNL     1      21.124   8.153  21.683  0.00  0.00    -0.276 OA
ATOM      5  N   UNL     1      19.082   7.350  22.442  0.00  0.00    -0.312 N 
ATOM     22  C   UNL     1      20.421   7.679  22.572  0.00  0.00    +0.215 C 
ATOM     31  H   UNL     1      18.606   6.902  23.220  0.00  0.00    +0.149 HD
BRANCH  22  25
ATOM     25  C   UNL     1      20.933   7.382  23.973  0.00  0.00    +0.124 C 
BRANCH  25  29
ATOM     29  C   UNL     1      21.937   6.240  24.010  0.00  0.00    +0.168 C 
BRANCH  29   4
ATOM      4  O   UNL     1      21.370   5.094  23.387  0.00  0.00    -0.382 OA
ATOM     30  C   UNL     1      22.298   4.462  22.516  0.00  0.00    +0.194 C 
ENDBRANCH  29   4
ENDBRANCH  25  29
ENDBRANCH  22  25
ENDBRANCH  14   5
BRANCH  10   1
ATOM      1  O   UNL     1      15.777  11.014  20.208  0.00  0.00    -0.391 OA
ATOM     32  H   UNL     1      16.474  11.120  19.537  0.00  0.00    +0.210 HD
ENDBRANCH  10   1
BRANCH  12  18
ATOM     18  C   UNL     1      13.215  10.691  18.805  0.00  0.00    +0.078 C 
ATOM     20  C   UNL     1      13.583  12.061  18.266  0.00  0.00    +0.017 C 
BRANCH  18  21
ATOM      2  O   UNL     1      13.288  11.650  20.970  0.00  0.00    -0.275 OA
ATOM      6  N   UNL     1      11.775   9.915  20.656  0.00  0.00    -0.301 N 
ATOM     21  C   UNL     1      12.768  10.802  20.241  0.00  0.00    +0.219 C 
ATOM     23  C   UNL     1      11.289   9.960  22.037  0.00  0.00    +0.108 C 
ATOM     24  C   UNL     1      11.107   8.926  19.800  0.00  0.00    +0.108 C 
ATOM     26  C   UNL     1      11.383   8.584  22.693  0.00  0.00    +0.019 C 
ATOM     27  C   UNL     1      11.196   7.530  20.414  0.00  0.00    +0.019 C 
ATOM     28  C   UNL     1      10.678   7.521  21.852  0.00  0.00    +0.003 C 
ENDBRANCH  18  21
ENDBRANCH  12  18
TORSDOF 7
ENDMDL
MODEL 4
REMARK VINA RESULT:      -5.7     27.756     29.603
REMARK  Name = 45361595
REMARK  11 active torsions:
REMARK  status: ('A' for Active; 'I' for Inactive)
REMARK    1  A    between atoms: O_1  and  C_10
REMARK    2  A    between atoms: O_4  and  C_29
REMARK    3  A    between atoms: O_4  and  C_30
REMARK    4  A    between atoms: N_5  and  C_14
REMARK    5  A    between atoms: C_7  and  C_17
REMARK    6  A    between atoms: C_9  and  C_19
REMARK    7  A    between atoms: C_12  and  C_18
REMARK    8  A    between atoms: C_18  and  C_20
REMARK    9  A    between atoms: C_18  and  C_21
REMARK   10  A    between atoms: C_22  and  C_25
REMARK   11  A    between atoms: C_25  and  C_29
REMARK                            x       y       z     vdW  Elec       q    Type
REMARK                         _______ _______ _______ _____ _____    ______ ____
ROOT
ATOM      7  C   UNL     1      13.052   9.122  17.315  0.00  0.00    -0.027 C 
ATOM      8  C   UNL     1      13.646  10.352  18.080  0.00  0.00    +0.028 C 
ATOM      9  C   UNL     1      14.954  10.866  17.379  0.00  0.00    +0.012 C 
ATOM     10  C   UNL     1      13.773  10.061  19.603  0.00  0.00    +0.122 C 
ATOM     11  C   UNL     1      11.708   8.712  17.963  0.00  0.00    +0.007 C 
ATOM     12  C   UNL     1      12.451   9.553  20.223  0.00  0.00    +0.029 C 
ATOM     13  C   UNL     1      12.765   9.527  15.852  0.00  0.00    +0.009 C 
ATOM     14  C   UNL     1      14.671  11.199  15.886  0.00  0.00    +0.076 C 
ATOM     15  C   UNL     1      11.836   8.390  19.446  0.00  0.00    +0.007 C 
ATOM     16  C   UNL     1      13.993  10.060  15.128  0.00  0.00    +0.023 C 
ATOM     17  C   UNL     1      14.004   7.898  17.329  0.00  0.00    +0.011 C 
ATOM     19  C   UNL     1      15.577  12.095  18.063  0.00  0.00    +0.010 C 
ENDROOT
BRANCH  14   5
ATOM      3  O   UNL     1      14.975  13.309  13.941  0.00  0.00    -0.276 OA
ATOM      5  N   UNL     1      15.880  11.567  15.180  0.00  0.00    -0.312 N 
ATOM     22  C   UNL     1      15.927  12.600  14.259  0.00  0.00    +0.215 C 
ATOM     31  H   UNL     1      16.709  10.997  15.325  0.00  0.00    +0.149 HD
BRANCH  22  25
ATOM     25  C   UNL     1      17.321  12.764  13.676  0.00  0.00    +0.124 C 
BRANCH  25  29
ATOM     29  C   UNL     1      18.368  13.107  14.725  0.00  0.00    +0.168 C 
BRANCH  29   4
ATOM      4  O   UNL     1      18.894  11.906  15.276  0.00  0.00    -0.382 OA
ATOM     30  C   UNL     1      19.788  11.267  14.374  0.00  0.00    +0.194 C 
ENDBRANCH  29   4
ENDBRANCH  25  29
ENDBRANCH  22  25
ENDBRANCH  14   5
BRANCH  10   1
ATOM      1  O   UNL     1      14.109  11.267  20.291  0.00  0.00    -0.391 OA
ATOM     32  H   UNL     1      13.502  11.966  19.993  0.00  0.00    +0.210 HD
ENDBRANCH  10   1
BRANCH  12  18
ATOM     18  C   UNL     1      12.630   9.149  21.692  0.00  0.00    +0.078 C 
ATOM     20  C   UNL     1      12.665   7.640  21.845  0.00  0.00    +0.017 C 
BRANCH  18  21
ATOM      2  O   UNL     1      10.365   9.229  22.382  0.00  0.00    -0.275 OA
ATOM      6  N   UNL     1      11.791  10.804  23.323  0.00  0.00    -0.301 N 
ATOM     21  C   UNL     1      11.490   9.724  22.493  0.00  0.00    +0.219 C 
ATOM     23  C   UNL     1      10.736  11.419  24.131  0.00  0.00    +0.108 C 
ATOM     24  C   UNL     1      13.126  11.386  23.509  0.00  0.00    +0.108 C 
ATOM     26  C   UNL     1      10.665  12.924  23.883  0.00  0.00    +0.019 C 
ATOM     27  C   UNL     1      13.102  12.892  23.250  0.00  0.00    +0.019 C 
ATOM     28  C   UNL     1      12.028  13.583  24.090  0.00  0.00    +0.003 C 
ENDBRANCH  18  21
ENDBRANCH  12  18
TORSDOF 7
ENDMDL
MODEL 5
REMARK VINA RESULT:      -5.7      3.700      9.467
REMARK  Name = 45361595
REMARK  11 active torsions:
REMARK  status: ('A' for Active; 'I' for Inactive)
REMARK    1  A    between atoms: O_1  and  C_10
REMARK    2  A    between atoms: O_4  and  C_29
REMARK    3  A    between atoms: O_4  and  C_30
REMARK    4  A    between atoms: N_5  and  C_14
REMARK    5  A    between atoms: C_7  and  C_17
REMARK    6  A    between atoms: C_9  and  C_19
REMARK    7  A    between atoms: C_12  and  C_18
REMARK    8  A    between atoms: C_18  and  C_20
REMARK    9  A    between atoms: C_18  and  C_21
REMARK   10  A    between atoms: C_22  and  C_25
REMARK   11  A    between atoms: C_25  and  C_29
REMARK                            x       y       z     vdW  Elec       q    Type
REMARK                         _______ _______ _______ _____ _____    ______ ____
ROOT
ATOM      7  C   UNL     1      -4.917 -11.138  17.726  0.00  0.00    -0.027 C 
ATOM      8  C   UNL     1      -5.732 -12.111  16.809  0.00  0.00    +0.028 C 
ATOM      9  C   UNL     1      -6.427 -13.231  17.663  0.00  0.00    +0.012 C 
ATOM     10  C   UNL     1      -4.869 -12.616  15.617  0.00  0.00    +0.122 C 
ATOM     11  C   UNL     1      -4.340  -9.985  16.871  0.00  0.00    +0.007 C 
ATOM     12  C   UNL     1      -4.211 -11.462  14.828  0.00  0.00    +0.029 C 
ATOM     13  C   UNL     1      -5.868 -10.517  18.774  0.00  0.00    +0.009 C 
ATOM     14  C   UNL     1      -7.323 -12.594  18.762  0.00  0.00    +0.076 C 
ATOM     15  C   UNL     1      -3.464 -10.476  15.726  0.00  0.00    +0.007 C 
ATOM     16  C   UNL     1      -6.593 -11.558  19.615  0.00  0.00    +0.023 C 
ATOM     17  C   UNL     1      -3.749 -11.849  18.456  0.00  0.00    +0.011 C 
ATOM     19  C   UNL     1      -7.271 -14.209  16.825  0.00  0.00    +0.010 C 
ENDROOT
BRANCH  14   5
ATOM      3  O   UNL     1      -9.822 -12.436  20.197  0.00  0.00    -0.276 OA
ATOM      5  N   UNL     1      -7.889 -13.596  19.641  0.00  0.00    -0.312 N 
ATOM     22  C   UNL     1      -9.102 -13.427  20.288  0.00  0.00    +0.215 C 
ATOM     31  H   UNL     1      -7.338 -14.427  19.834  0.00  0.00    +0.149 HD
BRANCH  22  25
ATOM     25  C   UNL     1      -9.450 -14.636  21.142  0.00  0.00    +0.124 C 
BRANCH  25  29
ATOM     29  C   UNL     1     -10.871 -14.593  21.683  0.00  0.00    +0.168 C 
BRANCH  29   4
ATOM      4  O   UNL     1     -10.833 -14.531  23.103  0.00  0.00    -0.382 OA
ATOM     30  C   UNL     1     -12.103 -14.194  23.643  0.00  0.00    +0.194 C 
ENDBRANCH  29   4
ENDBRANCH  25  29
ENDBRANCH  22  25
ENDBRANCH  14   5
BRANCH  10   1
ATOM      1  O   UNL     1      -5.701 -13.320  14.693  0.00  0.00    -0.391 OA
ATOM     32  H   UNL     1      -5.774 -12.786  13.884  0.00  0.00    +0.210 HD
ENDBRANCH  10   1
BRANCH  12  18
ATOM     18  C   UNL     1      -3.263 -11.983  13.741  0.00  0.00    +0.078 C 
ATOM     20  C   UNL     1      -1.950 -12.454  14.339  0.00  0.00    +0.017 C 
BRANCH  18  21
ATOM      2  O   UNL     1      -1.975 -10.214  12.832  0.00  0.00    -0.275 OA
ATOM      6  N   UNL     1      -3.996 -10.671  11.780  0.00  0.00    -0.301 N 
ATOM     21  C   UNL     1      -3.013 -10.877  12.747  0.00  0.00    +0.219 C 
ATOM     23  C   UNL     1      -3.827  -9.614  10.781  0.00  0.00    +0.108 C 
ATOM     24  C   UNL     1      -5.219 -11.471  11.628  0.00  0.00    +0.108 C 
ATOM     26  C   UNL     1      -5.036  -8.682  10.763  0.00  0.00    +0.019 C 
ATOM     27  C   UNL     1      -6.456 -10.574  11.625  0.00  0.00    +0.019 C 
ATOM     28  C   UNL     1      -6.335  -9.465  10.580  0.00  0.00    +0.003 C 
ENDBRANCH  18  21
ENDBRANCH  12  18
TORSDOF 7
ENDMDL
MODEL 6
REMARK VINA RESULT:      -5.7     29.994     32.731
REMARK  Name = 45361595
REMARK  11 active torsions:
REMARK  status: ('A' for Active; 'I' for Inactive)
REMARK    1  A    between atoms: O_1  and  C_10
REMARK    2  A    between atoms: O_4  and  C_29
REMARK    3  A    between atoms: O_4  and  C_30
REMARK    4  A    between atoms: N_5  and  C_14
REMARK    5  A    between atoms: C_7  and  C_17
REMARK    6  A    between atoms: C_9  and  C_19
REMARK    7  A    between atoms: C_12  and  C_18
REMARK    8  A    between atoms: C_18  and  C_20
REMARK    9  A    between atoms: C_18  and  C_21
REMARK   10  A    between atoms: C_22  and  C_25
REMARK   11  A    between atoms: C_25  and  C_29
REMARK                            x       y       z     vdW  Elec       q    Type
REMARK                         _______ _______ _______ _____ _____    ______ ____
ROOT
ATOM      7  C   UNL     1      20.288   8.390  21.888  0.00  0.00    -0.027 C 
ATOM      8  C   UNL     1      20.202   7.242  20.828  0.00  0.00    +0.028 C 
ATOM      9  C   UNL     1      18.791   6.552  20.865  0.00  0.00    +0.012 C 
ATOM     10  C   UNL     1      21.420   6.280  20.940  0.00  0.00    +0.122 C 
ATOM     11  C   UNL     1      21.645   9.120  21.749  0.00  0.00    +0.007 C 
ATOM     12  C   UNL     1      22.773   7.027  20.904  0.00  0.00    +0.029 C 
ATOM     13  C   UNL     1      19.169   9.419  21.609  0.00  0.00    +0.009 C 
ATOM     14  C   UNL     1      17.669   7.609  20.658  0.00  0.00    +0.076 C 
ATOM     15  C   UNL     1      22.839   8.187  21.896  0.00  0.00    +0.007 C 
ATOM     16  C   UNL     1      17.777   8.802  21.605  0.00  0.00    +0.023 C 
ATOM     17  C   UNL     1      20.150   7.869  23.342  0.00  0.00    +0.011 C 
ATOM     19  C   UNL     1      18.628   5.429  19.826  0.00  0.00    +0.010 C 
ENDROOT
BRANCH  14   5
ATOM      3  O   UNL     1      15.237   8.477  19.371  0.00  0.00    -0.276 OA
ATOM      5  N   UNL     1      16.351   7.027  20.800  0.00  0.00    -0.312 N 
ATOM     22  C   UNL     1      15.239   7.517  20.138  0.00  0.00    +0.215 C 
ATOM     31  H   UNL     1      16.235   6.266  21.465  0.00  0.00    +0.149 HD
BRANCH  22  25
ATOM     25  C   UNL     1      13.992   6.713  20.472  0.00  0.00    +0.124 C 
BRANCH  25  29
ATOM     29  C   UNL     1      12.873   6.902  19.459  0.00  0.00    +0.168 C 
BRANCH  29   4
ATOM      4  O   UNL     1      11.659   6.398  19.999  0.00  0.00    -0.382 OA
ATOM     30  C   UNL     1      11.637   6.501  21.417  0.00  0.00    +0.194 C 
ENDBRANCH  29   4
ENDBRANCH  25  29
ENDBRANCH  22  25
ENDBRANCH  14   5
BRANCH  10   1
ATOM      1  O   UNL     1      21.420   5.381  19.829  0.00  0.00    -0.391 OA
ATOM     32  H   UNL     1      21.496   4.475  20.173  0.00  0.00    +0.210 HD
ENDBRANCH  10   1
BRANCH  12  18
ATOM     18  C   UNL     1      23.953   6.078  21.146  0.00  0.00    +0.078 C 
ATOM     20  C   UNL     1      24.332   6.038  22.616  0.00  0.00    +0.017 C 
BRANCH  18  21
ATOM      2  O   UNL     1      25.217   7.741  20.029  0.00  0.00    -0.275 OA
ATOM      6  N   UNL     1      26.047   5.573  19.937  0.00  0.00    -0.301 N 
ATOM     21  C   UNL     1      25.126   6.546  20.322  0.00  0.00    +0.219 C 
ATOM     23  C   UNL     1      27.212   5.949  19.133  0.00  0.00    +0.108 C 
ATOM     24  C   UNL     1      25.988   4.153  20.308  0.00  0.00    +0.108 C 
ATOM     26  C   UNL     1      27.301   5.097  17.869  0.00  0.00    +0.019 C 
ATOM     27  C   UNL     1      26.055   3.265  19.066  0.00  0.00    +0.019 C 
ATOM     28  C   UNL     1      27.270   3.607  18.204  0.00  0.00    +0.003 C 
ENDBRANCH  18  21
ENDBRANCH  12  18
TORSDOF 7
ENDMDL
MODEL 7
REMARK VINA RESULT:      -5.6     23.320     26.034
REMARK  Name = 45361595
REMARK  11 active torsions:
REMARK  status: ('A' for Active; 'I' for Inactive)
REMARK    1  A    between atoms: O_1  and  C_10
REMARK    2  A    between atoms: O_4  and  C_29
REMARK    3  A    between atoms: O_4  and  C_30
REMARK    4  A    between atoms: N_5  and  C_14
REMARK    5  A    between atoms: C_7  and  C_17
REMARK    6  A    between atoms: C_9  and  C_19
REMARK    7  A    between atoms: C_12  and  C_18
REMARK    8  A    between atoms: C_18  and  C_20
REMARK    9  A    between atoms: C_18  and  C_21
REMARK   10  A    between atoms: C_22  and  C_25
REMARK   11  A    between atoms: C_25  and  C_29
REMARK                            x       y       z     vdW  Elec       q    Type
REMARK                         _______ _______ _______ _____ _____    ______ ____
ROOT
ATOM      7  C   UNL     1       9.775   6.731   6.643  0.00  0.00    -0.027 C 
ATOM      8  C   UNL     1      10.357   7.622   5.496  0.00  0.00    +0.028 C 
ATOM      9  C   UNL     1      11.390   6.814   4.631  0.00  0.00    +0.012 C 
ATOM     10  C   UNL     1      10.866   8.986   6.045  0.00  0.00    +0.122 C 
ATOM     11  C   UNL     1       8.681   7.518   7.404  0.00  0.00    +0.007 C 
ATOM     12  C   UNL     1       9.802   9.721   6.891  0.00  0.00    +0.029 C 
ATOM     13  C   UNL     1       9.110   5.481   6.024  0.00  0.00    +0.009 C 
ATOM     14  C   UNL     1      10.732   5.520   4.075  0.00  0.00    +0.076 C 
ATOM     15  C   UNL     1       9.187   8.837   7.975  0.00  0.00    +0.007 C 
ATOM     16  C   UNL     1      10.058   4.671   5.151  0.00  0.00    +0.023 C 
ATOM     17  C   UNL     1      10.860   6.283   7.656  0.00  0.00    +0.011 C 
ATOM     19  C   UNL     1      11.982   7.623   3.464  0.00  0.00    +0.010 C 
ENDROOT
BRANCH  14   5
ATOM      3  O   UNL     1      10.274   4.014   1.656  0.00  0.00    -0.276 OA
ATOM      5  N   UNL     1      11.687   4.693   3.368  0.00  0.00    -0.312 N 
ATOM     22  C   UNL     1      11.371   4.005   2.208  0.00  0.00    +0.215 C 
ATOM     31  H   UNL     1      12.607   4.567   3.782  0.00  0.00    +0.149 HD
BRANCH  22  25
ATOM     25  C   UNL     1      12.564   3.222   1.684  0.00  0.00    +0.124 C 
BRANCH  25  29
ATOM     29  C   UNL     1      12.975   3.635   0.279  0.00  0.00    +0.168 C 
BRANCH  29   4
ATOM      4  O   UNL     1      14.393   3.606   0.175  0.00  0.00    -0.382 OA
ATOM     30  C   UNL     1      15.008   3.585   1.456  0.00  0.00    +0.194 C 
ENDBRANCH  29   4
ENDBRANCH  25  29
ENDBRANCH  22  25
ENDBRANCH  14   5
BRANCH  10   1
ATOM      1  O   UNL     1      11.187   9.849   4.952  0.00  0.00    -0.391 OA
ATOM     32  H   UNL     1      11.767   9.362   4.342  0.00  0.00    +0.210 HD
ENDBRANCH  10   1
BRANCH  12  18
ATOM     18  C   UNL     1      10.364  10.997   7.529  0.00  0.00    +0.078 C 
ATOM     20  C   UNL     1      11.125  10.683   8.804  0.00  0.00    +0.017 C 
BRANCH  18  21
ATOM      2  O   UNL     1       8.759  11.977   8.971  0.00  0.00    -0.275 OA
ATOM      6  N   UNL     1       8.747  12.700   6.763  0.00  0.00    -0.301 N 
ATOM     21  C   UNL     1       9.219  11.933   7.827  0.00  0.00    +0.219 C 
ATOM     23  C   UNL     1       7.635  13.630   6.971  0.00  0.00    +0.108 C 
ATOM     24  C   UNL     1       9.302  12.700   5.403  0.00  0.00    +0.108 C 
ATOM     26  C   UNL     1       6.512  13.372   5.970  0.00  0.00    +0.019 C 
ATOM     27  C   UNL     1       8.210  12.425   4.371  0.00  0.00    +0.019 C 
ATOM     28  C   UNL     1       7.035  13.389   4.535  0.00  0.00    +0.003 C 
ENDBRANCH  18  21
ENDBRANCH  12  18
TORSDOF 7
ENDMDL
MODEL 8
REMARK VINA RESULT:      -5.6     28.518     30.944
REMARK  Name = 45361595
REMARK  11 active torsions:
REMARK  status: ('A' for Active; 'I' for Inactive)
REMARK    1  A    between atoms: O_1  and  C_10
REMARK    2  A    between atoms: O_4  and  C_29
REMARK    3  A    between atoms: O_4  and  C_30
REMARK    4  A    between atoms: N_5  and  C_14
REMARK    5  A    between atoms: C_7  and  C_17
REMARK    6  A    between atoms: C_9  and  C_19
REMARK    7  A    between atoms: C_12  and  C_18
REMARK    8  A    between atoms: C_18  and  C_20
REMARK    9  A    between atoms: C_18  and  C_21
REMARK   10  A    between atoms: C_22  and  C_25
REMARK   11  A    between atoms: C_25  and  C_29
REMARK                            x       y       z     vdW  Elec       q    Type
REMARK                         _______ _______ _______ _____ _____    ______ ____
ROOT
ATOM      7  C   UNL     1      17.241  10.066  20.934  0.00  0.00    -0.027 C 
ATOM      8  C   UNL     1      17.126   8.551  20.558  0.00  0.00    +0.028 C 
ATOM      9  C   UNL     1      15.626   8.086  20.564  0.00  0.00    +0.012 C 
ATOM     10  C   UNL     1      18.098   7.684  21.408  0.00  0.00    +0.122 C 
ATOM     11  C   UNL     1      18.715  10.518  20.808  0.00  0.00    +0.007 C 
ATOM     12  C   UNL     1      19.554   8.203  21.361  0.00  0.00    +0.029 C 
ATOM     13  C   UNL     1      16.406  10.899  19.935  0.00  0.00    +0.009 C 
ATOM     14  C   UNL     1      14.781   8.979  19.612  0.00  0.00    +0.076 C 
ATOM     15  C   UNL     1      19.665   9.696  21.670  0.00  0.00    +0.007 C 
ATOM     16  C   UNL     1      14.945  10.474  19.877  0.00  0.00    +0.023 C 
ATOM     17  C   UNL     1      16.752  10.359  22.376  0.00  0.00    +0.011 C 
ATOM     19  C   UNL     1      15.437   6.609  20.174  0.00  0.00    +0.010 C 
ENDROOT
BRANCH  14   5
ATOM      3  O   UNL     1      12.761   9.571  17.637  0.00  0.00    -0.276 OA
ATOM      5  N   UNL     1      13.372   8.653  19.680  0.00  0.00    -0.312 N 
ATOM     22  C   UNL     1      12.476   8.981  18.676  0.00  0.00    +0.215 C 
ATOM     31  H   UNL     1      13.023   8.221  20.532  0.00  0.00    +0.149 HD
BRANCH  22  25
ATOM     25  C   UNL     1      11.068   8.515  19.013  0.00  0.00    +0.124 C 
BRANCH  25  29
ATOM     29  C   UNL     1      10.873   8.237  20.495  0.00  0.00    +0.168 C 
BRANCH  29   4
ATOM      4  O   UNL     1      11.052   9.442  21.229  0.00  0.00    -0.382 OA
ATOM     30  C   UNL     1      11.173   9.190  22.622  0.00  0.00    +0.194 C 
ENDBRANCH  29   4
ENDBRANCH  25  29
ENDBRANCH  22  25
ENDBRANCH  14   5
BRANCH  10   1
ATOM      1  O   UNL     1      18.124   6.352  20.892  0.00  0.00    -0.391 OA
ATOM     32  H   UNL     1      17.205   6.064  20.753  0.00  0.00    +0.210 HD
ENDBRANCH  10   1
BRANCH  12  18
ATOM     18  C   UNL     1      20.470   7.416  22.306  0.00  0.00    +0.078 C 
ATOM     20  C   UNL     1      20.651   8.144  23.626  0.00  0.00    +0.017 C 
BRANCH  18  21
ATOM      2  O   UNL     1      22.289   8.149  20.977  0.00  0.00    -0.275 OA
ATOM      6  N   UNL     1      22.417   5.981  21.803  0.00  0.00    -0.301 N 
ATOM     21  C   UNL     1      21.806   7.223  21.634  0.00  0.00    +0.219 C 
ATOM     23  C   UNL     1      23.715   5.715  21.179  0.00  0.00    +0.108 C 
ATOM     24  C   UNL     1      21.887   4.877  22.615  0.00  0.00    +0.108 C 
ATOM     26  C   UNL     1      23.663   4.448  20.329  0.00  0.00    +0.019 C 
ATOM     27  C   UNL     1      21.801   3.593  21.792  0.00  0.00    +0.019 C 
ATOM     28  C   UNL     1      23.141   3.261  21.137  0.00  0.00    +0.003 C 
ENDBRANCH  18  21
ENDBRANCH  12  18
TORSDOF 7
ENDMDL
MODEL 9
REMARK VINA RESULT:      -5.5     31.423     33.222
REMARK  Name = 45361595
REMARK  11 active torsions:
REMARK  status: ('A' for Active; 'I' for Inactive)
REMARK    1  A    between atoms: O_1  and  C_10
REMARK    2  A    between atoms: O_4  and  C_29
REMARK    3  A    between atoms: O_4  and  C_30
REMARK    4  A    between atoms: N_5  and  C_14
REMARK    5  A    between atoms: C_7  and  C_17
REMARK    6  A    between atoms: C_9  and  C_19
REMARK    7  A    between atoms: C_12  and  C_18
REMARK    8  A    between atoms: C_18  and  C_20
REMARK    9  A    between atoms: C_18  and  C_21
REMARK   10  A    between atoms: C_22  and  C_25
REMARK   11  A    between atoms: C_25  and  C_29
REMARK                            x       y       z     vdW  Elec       q    Type
REMARK                         _______ _______ _______ _____ _____    ______ ____
ROOT
ATOM      7  C   UNL     1      -1.094   6.535  39.651  0.00  0.00    -0.027 C 
ATOM      8  C   UNL     1      -2.508   7.147  39.377  0.00  0.00    +0.028 C 
ATOM      9  C   UNL     1      -2.402   8.399  38.435  0.00  0.00    +0.012 C 
ATOM     10  C   UNL     1      -3.292   7.372  40.702  0.00  0.00    +0.122 C 
ATOM     11  C   UNL     1      -1.246   5.241  40.487  0.00  0.00    +0.007 C 
ATOM     12  C   UNL     1      -3.351   6.102  41.581  0.00  0.00    +0.029 C 
ATOM     13  C   UNL     1      -0.440   6.151  38.305  0.00  0.00    +0.009 C 
ATOM     14  C   UNL     1      -1.674   8.020  37.114  0.00  0.00    +0.076 C 
ATOM     15  C   UNL     1      -1.979   5.466  41.803  0.00  0.00    +0.007 C 
ATOM     16  C   UNL     1      -0.334   7.322  37.337  0.00  0.00    +0.023 C 
ATOM     17  C   UNL     1      -0.161   7.512  40.412  0.00  0.00    +0.011 C 
ATOM     19  C   UNL     1      -3.761   9.036  38.100  0.00  0.00    +0.010 C 
ENDROOT
BRANCH  14   5
ATOM      3  O   UNL     1      -0.050  10.328  37.715  0.00  0.00    -0.276 OA
ATOM      5  N   UNL     1      -1.456   9.176  36.270  0.00  0.00    -0.312 N 
ATOM     22  C   UNL     1      -0.654  10.240  36.649  0.00  0.00    +0.215 C 
ATOM     31  H   UNL     1      -1.965   9.229  35.392  0.00  0.00    +0.149 HD
BRANCH  22  25
ATOM     25  C   UNL     1      -0.604  11.310  35.570  0.00  0.00    +0.124 C 
BRANCH  25  29
ATOM     29  C   UNL     1      -1.687  12.366  35.730  0.00  0.00    +0.168 C 
BRANCH  29   4
ATOM      4  O   UNL     1      -2.956  11.731  35.819  0.00  0.00    -0.382 OA
ATOM     30  C   UNL     1      -3.846  12.204  34.817  0.00  0.00    +0.194 C 
ENDBRANCH  29   4
ENDBRANCH  25  29
ENDBRANCH  22  25
ENDBRANCH  14   5
BRANCH  10   1
ATOM      1  O   UNL     1      -4.643   7.724  40.402  0.00  0.00    -0.391 OA
ATOM     32  H   UNL     1      -5.204   7.429  41.140  0.00  0.00    +0.210 HD
ENDBRANCH  10   1
BRANCH  12  18
ATOM     18  C   UNL     1      -4.012   6.378  42.937  0.00  0.00    +0.078 C 
ATOM     20  C   UNL     1      -3.078   6.033  44.082  0.00  0.00    +0.017 C 
BRANCH  18  21
ATOM      2  O   UNL     1      -5.203   4.331  42.959  0.00  0.00    -0.275 OA
ATOM      6  N   UNL     1      -6.465   6.266  43.205  0.00  0.00    -0.301 N 
ATOM     21  C   UNL     1      -5.275   5.560  43.035  0.00  0.00    +0.219 C 
ATOM     23  C   UNL     1      -7.734   5.543  43.305  0.00  0.00    +0.108 C 
ATOM     24  C   UNL     1      -6.576   7.724  43.342  0.00  0.00    +0.108 C 
ATOM     26  C   UNL     1      -8.744   6.067  42.287  0.00  0.00    +0.019 C 
ATOM     27  C   UNL     1      -7.564   8.291  42.324  0.00  0.00    +0.019 C 
ATOM     28  C   UNL     1      -8.915   7.580  42.406  0.00  0.00    +0.003 C 
ENDBRANCH  18  21
ENDBRANCH  12  18
TORSDOF 7
ENDMDL
MODEL 10
REMARK VINA RESULT:      -5.5      1.831      8.435
REMARK  Name = 45361595
REMARK  11 active torsions:
REMARK  status: ('A' for Active; 'I' for Inactive)
REMARK    1  A    between atoms: O_1  and  C_10
REMARK    2  A    between atoms: O_4  and  C_29
REMARK    3  A    between atoms: O_4  and  C_30
REMARK    4  A    between atoms: N_5  and  C_14
REMARK    5  A    between atoms: C_7  and  C_17
REMARK    6  A    between atoms: C_9  and  C_19
REMARK    7  A    between atoms: C_12  and  C_18
REMARK    8  A    between atoms: C_18  and  C_20
REMARK    9  A    between atoms: C_18  and  C_21
REMARK   10  A    between atoms: C_22  and  C_25
REMARK   11  A    between atoms: C_25  and  C_29
REMARK                            x       y       z     vdW  Elec       q    Type
REMARK                         _______ _______ _______ _____ _____    ______ ____
ROOT
ATOM      7  C   UNL     1      -4.010 -10.172  10.820  0.00  0.00    -0.027 C 
ATOM      8  C   UNL     1      -5.311  -9.734  11.572  0.00  0.00    +0.028 C 
ATOM      9  C   UNL     1      -5.569 -10.650  12.821  0.00  0.00    +0.012 C 
ATOM     10  C   UNL     1      -6.508  -9.591  10.589  0.00  0.00    +0.122 C 
ATOM     11  C   UNL     1      -3.723  -9.183   9.665  0.00  0.00    +0.007 C 
ATOM     12  C   UNL     1      -6.181  -8.682   9.382  0.00  0.00    +0.029 C 
ATOM     13  C   UNL     1      -2.816 -10.110  11.799  0.00  0.00    +0.009 C 
ATOM     14  C   UNL     1      -4.331 -10.640  13.763  0.00  0.00    +0.076 C 
ATOM     15  C   UNL     1      -4.879  -9.070   8.680  0.00  0.00    +0.007 C 
ATOM     16  C   UNL     1      -3.021 -10.960  13.046  0.00  0.00    +0.023 C 
ATOM     17  C   UNL     1      -4.115 -11.604  10.234  0.00  0.00    +0.011 C 
ATOM     19  C   UNL     1      -6.820 -10.257  13.625  0.00  0.00    +0.010 C 
ENDROOT
BRANCH  14   5
ATOM      3  O   UNL     1      -3.767 -10.133  16.547  0.00  0.00    -0.276 OA
ATOM      5  N   UNL     1      -4.489 -11.563  14.866  0.00  0.00    -0.312 N 
ATOM     22  C   UNL     1      -4.190 -11.226  16.176  0.00  0.00    +0.215 C 
ATOM     31  H   UNL     1      -4.771 -12.516  14.655  0.00  0.00    +0.149 HD
BRANCH  22  25
ATOM     25  C   UNL     1      -4.452 -12.386  17.123  0.00  0.00    +0.124 C 
BRANCH  25  29
ATOM     29  C   UNL     1      -5.894 -12.448  17.602  0.00  0.00    +0.168 C 
BRANCH  29   4
ATOM      4  O   UNL     1      -5.936 -12.216  19.004  0.00  0.00    -0.382 OA
ATOM     30  C   UNL     1      -6.170 -10.845  19.299  0.00  0.00    +0.194 C 
ENDBRANCH  29   4
ENDBRANCH  25  29
ENDBRANCH  22  25
ENDBRANCH  14   5
BRANCH  10   1
ATOM      1  O   UNL     1      -7.611  -8.986  11.267  0.00  0.00    -0.391 OA
ATOM     32  H   UNL     1      -8.265  -8.716  10.600  0.00  0.00    +0.210 HD
ENDBRANCH  10   1
BRANCH  12  18
ATOM     18  C   UNL     1      -7.325  -8.658   8.361  0.00  0.00    +0.078 C 
ATOM     20  C   UNL     1      -6.848  -9.110   6.993  0.00  0.00    +0.017 C 
BRANCH  18  21
ATOM      2  O   UNL     1      -7.086  -6.305   8.217  0.00  0.00    -0.275 OA
ATOM      6  N   UNL     1      -9.259  -7.124   8.288  0.00  0.00    -0.301 N 
ATOM     21  C   UNL     1      -7.871  -7.255   8.281  0.00  0.00    +0.219 C 
ATOM     23  C   UNL     1      -9.866  -5.793   8.216  0.00  0.00    +0.108 C 
ATOM     24  C   UNL     1     -10.218  -8.236   8.319  0.00  0.00    +0.108 C 
ATOM     26  C   UNL     1     -10.847  -5.577   9.366  0.00  0.00    +0.019 C 
ATOM     27  C   UNL     1     -11.207  -8.067   9.471  0.00  0.00    +0.019 C 
ATOM     28  C   UNL     1     -11.884  -6.697   9.425  0.00  0.00    +0.003 C 
ENDBRANCH  18  21
ENDBRANCH  12  18
TORSDOF 7
ENDMDL
