MODEL 1
REMARK VINA RESULT:      -7.0      0.000      0.000
REMARK  Name = 45784338
REMARK  3 active torsions:
REMARK  status: ('A' for Active; 'I' for Inactive)
REMARK    1  A    between atoms: N_4  and  C_10
REMARK    2  A    between atoms: C_6  and  C_11
REMARK    3  A    between atoms: C_10  and  C_12
REMARK                            x       y       z     vdW  Elec       q    Type
REMARK                         _______ _______ _______ _____ _____    ______ ____
ROOT
ATOM      4  N   UNL     1      11.752   9.744  21.006  0.00  0.00    -0.297 NA
ATOM      6  C   UNL     1      13.732   9.240  19.854  0.00  0.00    +0.090 C 
ATOM      7  C   UNL     1      12.532   8.644  19.099  0.00  0.00    +0.029 C 
ATOM      8  C   UNL     1      13.186   9.573  21.249  0.00  0.00    +0.097 C 
ATOM      9  C   UNL     1      11.390   8.647  20.108  0.00  0.00    +0.085 C 
ENDROOT
BRANCH   6  11
ATOM      2  F   UNL     1      19.336   4.686  19.582  0.00  0.00    -0.205 F 
ATOM      3  O   UNL     1      15.886   8.673  20.842  0.00  0.00    -0.439 OA
ATOM      5  N   UNL     1      15.244   7.318  19.143  0.00  0.00    -0.213 NA
ATOM     11  C   UNL     1      14.957   8.356  19.897  0.00  0.00    +0.201 A 
ATOM     13  C   UNL     1      16.465   6.908  19.619  0.00  0.00    +0.112 A 
ATOM     14  C   UNL     1      16.862   7.735  20.660  0.00  0.00    +0.156 A 
ATOM     17  C   UNL     1      17.305   5.853  19.235  0.00  0.00    +0.070 A 
ATOM     18  C   UNL     1      18.050   7.602  21.369  0.00  0.00    +0.051 A 
ATOM     21  C   UNL     1      18.513   5.686  19.927  0.00  0.00    +0.126 A 
ATOM     22  C   UNL     1      18.875   6.545  20.973  0.00  0.00    +0.042 A 
ENDBRANCH   6  11
BRANCH   4  10
ATOM     10  C   UNL     1      10.974   9.731  22.236  0.00  0.00    +0.119 C 
BRANCH  10  12
ATOM      1 CL   UNL     1      10.903  15.125  24.899  0.00  0.00    -0.084 Cl
ATOM     12  C   UNL     1      10.958  11.080  22.903  0.00  0.00    -0.033 A 
ATOM     15  C   UNL     1      10.988  12.241  22.130  0.00  0.00    +0.006 A 
ATOM     16  C   UNL     1      10.911  11.171  24.294  0.00  0.00    +0.006 A 
ATOM     19  C   UNL     1      10.973  13.491  22.746  0.00  0.00    +0.020 A 
ATOM     20  C   UNL     1      10.895  12.422  24.912  0.00  0.00    +0.020 A 
ATOM     23  C   UNL     1      10.926  13.581  24.138  0.00  0.00    +0.041 A 
ENDBRANCH  10  12
ENDBRANCH   4  10
TORSDOF 3
ENDMDL
MODEL 2
REMARK VINA RESULT:      -6.9     27.088     29.265
REMARK  Name = 45784338
REMARK  3 active torsions:
REMARK  status: ('A' for Active; 'I' for Inactive)
REMARK    1  A    between atoms: N_4  and  C_10
REMARK    2  A    between atoms: C_6  and  C_11
REMARK    3  A    between atoms: C_10  and  C_12
REMARK                            x       y       z     vdW  Elec       q    Type
REMARK                         _______ _______ _______ _____ _____    ______ ____
ROOT
ATOM      4  N   UNL     1      -2.124 -10.946  13.812  0.00  0.00    -0.297 NA
ATOM      6  C   UNL     1      -3.356 -10.267  15.687  0.00  0.00    +0.090 C 
ATOM      7  C   UNL     1      -1.933 -10.657  16.122  0.00  0.00    +0.029 C 
ATOM      8  C   UNL     1      -3.508 -10.857  14.279  0.00  0.00    +0.097 C 
ATOM      9  C   UNL     1      -1.373 -11.463  14.956  0.00  0.00    +0.085 C 
ENDROOT
BRANCH   6  11
ATOM      2  F   UNL     1      -8.232 -12.881  20.337  0.00  0.00    -0.205 F 
ATOM      3  O   UNL     1      -5.536  -9.887  16.710  0.00  0.00    -0.439 OA
ATOM      5  N   UNL     1      -4.494 -11.781  17.389  0.00  0.00    -0.213 NA
ATOM     11  C   UNL     1      -4.451 -10.708  16.632  0.00  0.00    +0.201 A 
ATOM     13  C   UNL     1      -5.706 -11.671  18.027  0.00  0.00    +0.112 A 
ATOM     14  C   UNL     1      -6.347 -10.512  17.614  0.00  0.00    +0.156 A 
ATOM     17  C   UNL     1      -6.341 -12.498  18.964  0.00  0.00    +0.070 A 
ATOM     18  C   UNL     1      -7.594 -10.093  18.061  0.00  0.00    +0.051 A 
ATOM     21  C   UNL     1      -7.602 -12.109  19.440  0.00  0.00    +0.126 A 
ATOM     22  C   UNL     1      -8.213 -10.930  18.996  0.00  0.00    +0.042 A 
ENDBRANCH   6  11
BRANCH   4  10
ATOM     10  C   UNL     1      -1.988 -11.790  12.634  0.00  0.00    +0.119 C 
BRANCH  10  12
ATOM      1 CL   UNL     1      -5.031  -9.591   7.933  0.00  0.00    -0.084 Cl
ATOM     12  C   UNL     1      -2.750 -11.241  11.459  0.00  0.00    -0.033 A 
ATOM     15  C   UNL     1      -2.615  -9.897  11.107  0.00  0.00    +0.006 A 
ATOM     16  C   UNL     1      -3.591 -12.073  10.720  0.00  0.00    +0.006 A 
ATOM     19  C   UNL     1      -3.321  -9.387  10.018  0.00  0.00    +0.020 A 
ATOM     20  C   UNL     1      -4.297 -11.563   9.631  0.00  0.00    +0.020 A 
ATOM     23  C   UNL     1      -4.162 -10.220   9.280  0.00  0.00    +0.041 A 
ENDBRANCH  10  12
ENDBRANCH   4  10
TORSDOF 3
ENDMDL
MODEL 3
REMARK VINA RESULT:      -6.6     28.669     30.933
REMARK  Name = 45784338
REMARK  3 active torsions:
REMARK  status: ('A' for Active; 'I' for Inactive)
REMARK    1  A    between atoms: N_4  and  C_10
REMARK    2  A    between atoms: C_6  and  C_11
REMARK    3  A    between atoms: C_10  and  C_12
REMARK                            x       y       z     vdW  Elec       q    Type
REMARK                         _______ _______ _______ _____ _____    ______ ____
ROOT
ATOM      4  N   UNL     1       2.514   4.563  -5.510  0.00  0.00    -0.297 NA
ATOM      6  C   UNL     1       1.841   2.320  -5.642  0.00  0.00    +0.090 C 
ATOM      7  C   UNL     1       2.859   2.618  -6.756  0.00  0.00    +0.029 C 
ATOM      8  C   UNL     1       1.385   3.702  -5.154  0.00  0.00    +0.097 C 
ATOM      9  C   UNL     1       2.902   4.138  -6.855  0.00  0.00    +0.085 C 
ENDROOT
BRANCH   6  11
ATOM      2  F   UNL     1      -3.445  -2.353  -7.205  0.00  0.00    -0.205 F 
ATOM      3  O   UNL     1      -0.138   1.938  -7.012  0.00  0.00    -0.439 OA
ATOM      5  N   UNL     1       0.383   0.232  -5.615  0.00  0.00    -0.213 NA
ATOM     11  C   UNL     1       0.690   1.432  -6.056  0.00  0.00    +0.201 A 
ATOM     13  C   UNL     1      -0.743  -0.091  -6.333  0.00  0.00    +0.112 A 
ATOM     14  C   UNL     1      -1.065   0.951  -7.189  0.00  0.00    +0.156 A 
ATOM     17  C   UNL     1      -1.552  -1.237  -6.325  0.00  0.00    +0.070 A 
ATOM     18  C   UNL     1      -2.148   0.954  -8.060  0.00  0.00    +0.051 A 
ATOM     21  C   UNL     1      -2.655  -1.271  -7.191  0.00  0.00    +0.126 A 
ATOM     22  C   UNL     1      -2.944  -0.195  -8.040  0.00  0.00    +0.042 A 
ENDBRANCH   6  11
BRANCH   4  10
ATOM     10  C   UNL     1       2.174   5.977  -5.453  0.00  0.00    +0.119 C 
BRANCH  10  12
ATOM      1 CL   UNL     1       6.028   9.077  -2.027  0.00  0.00    -0.084 Cl
ATOM     12  C   UNL     1       3.139   6.752  -4.596  0.00  0.00    -0.033 A 
ATOM     15  C   UNL     1       3.160   8.146  -4.655  0.00  0.00    +0.006 A 
ATOM     16  C   UNL     1       4.011   6.077  -3.743  0.00  0.00    +0.006 A 
ATOM     19  C   UNL     1       4.054   8.864  -3.863  0.00  0.00    +0.020 A 
ATOM     20  C   UNL     1       4.906   6.796  -2.949  0.00  0.00    +0.020 A 
ATOM     23  C   UNL     1       4.927   8.189  -3.009  0.00  0.00    +0.041 A 
ENDBRANCH  10  12
ENDBRANCH   4  10
TORSDOF 3
ENDMDL
MODEL 4
REMARK VINA RESULT:      -6.5     27.586     30.139
REMARK  Name = 45784338
REMARK  3 active torsions:
REMARK  status: ('A' for Active; 'I' for Inactive)
REMARK    1  A    between atoms: N_4  and  C_10
REMARK    2  A    between atoms: C_6  and  C_11
REMARK    3  A    between atoms: C_10  and  C_12
REMARK                            x       y       z     vdW  Elec       q    Type
REMARK                         _______ _______ _______ _____ _____    ______ ____
ROOT
ATOM      4  N   UNL     1     -15.048   5.939  21.989  0.00  0.00    -0.297 NA
ATOM      6  C   UNL     1     -15.749   3.963  23.038  0.00  0.00    +0.090 C 
ATOM      7  C   UNL     1     -16.962   4.669  22.407  0.00  0.00    +0.029 C 
ATOM      8  C   UNL     1     -14.650   5.033  23.067  0.00  0.00    +0.097 C 
ATOM      9  C   UNL     1     -16.494   6.094  22.143  0.00  0.00    +0.085 C 
ENDROOT
BRANCH   6  11
ATOM      2  F   UNL     1     -17.046   0.461  29.224  0.00  0.00    -0.205 F 
ATOM      3  O   UNL     1     -15.987   4.206  25.451  0.00  0.00    -0.439 OA
ATOM      5  N   UNL     1     -16.252   2.089  24.687  0.00  0.00    -0.213 NA
ATOM     11  C   UNL     1     -16.008   3.347  24.393  0.00  0.00    +0.201 A 
ATOM     13  C   UNL     1     -16.406   2.107  26.052  0.00  0.00    +0.112 A 
ATOM     14  C   UNL     1     -16.245   3.401  26.524  0.00  0.00    +0.156 A 
ATOM     17  C   UNL     1     -16.683   1.082  26.969  0.00  0.00    +0.070 A 
ATOM     18  C   UNL     1     -16.336   3.775  27.859  0.00  0.00    +0.051 A 
ATOM     21  C   UNL     1     -16.782   1.420  28.326  0.00  0.00    +0.126 A 
ATOM     22  C   UNL     1     -16.612   2.741  28.759  0.00  0.00    +0.042 A 
ENDBRANCH   6  11
BRANCH   4  10
ATOM     10  C   UNL     1     -14.345   7.213  22.046  0.00  0.00    +0.119 C 
BRANCH  10  12
ATOM      1 CL   UNL     1     -10.690   7.976  17.328  0.00  0.00    -0.084 Cl
ATOM     12  C   UNL     1     -13.431   7.403  20.866  0.00  0.00    -0.033 A 
ATOM     15  C   UNL     1     -13.960   7.745  19.621  0.00  0.00    +0.006 A 
ATOM     16  C   UNL     1     -12.054   7.237  21.016  0.00  0.00    +0.006 A 
ATOM     19  C   UNL     1     -13.114   7.921  18.527  0.00  0.00    +0.020 A 
ATOM     20  C   UNL     1     -11.207   7.414  19.922  0.00  0.00    +0.020 A 
ATOM     23  C   UNL     1     -11.737   7.755  18.678  0.00  0.00    +0.041 A 
ENDBRANCH  10  12
ENDBRANCH   4  10
TORSDOF 3
ENDMDL
MODEL 5
REMARK VINA RESULT:      -6.5     18.588     20.541
REMARK  Name = 45784338
REMARK  3 active torsions:
REMARK  status: ('A' for Active; 'I' for Inactive)
REMARK    1  A    between atoms: N_4  and  C_10
REMARK    2  A    between atoms: C_6  and  C_11
REMARK    3  A    between atoms: C_10  and  C_12
REMARK                            x       y       z     vdW  Elec       q    Type
REMARK                         _______ _______ _______ _____ _____    ______ ____
ROOT
ATOM      4  N   UNL     1      10.905   5.373   3.761  0.00  0.00    -0.297 NA
ATOM      6  C   UNL     1      11.759   4.228   1.901  0.00  0.00    +0.090 C 
ATOM      7  C   UNL     1      12.707   5.380   2.275  0.00  0.00    +0.029 C 
ATOM      8  C   UNL     1      10.453   4.544   2.642  0.00  0.00    +0.097 C 
ATOM      9  C   UNL     1      11.884   6.291   3.178  0.00  0.00    +0.085 C 
ENDROOT
BRANCH   6  11
ATOM      2  F   UNL     1      10.242   3.549  -5.132  0.00  0.00    -0.205 F 
ATOM      3  O   UNL     1      12.581   3.414  -0.243  0.00  0.00    -0.439 OA
ATOM      5  N   UNL     1      10.528   4.368  -0.324  0.00  0.00    -0.213 NA
ATOM     11  C   UNL     1      11.560   4.028   0.416  0.00  0.00    +0.201 A 
ATOM     13  C   UNL     1      10.888   3.949  -1.582  0.00  0.00    +0.112 A 
ATOM     14  C   UNL     1      12.144   3.364  -1.537  0.00  0.00    +0.156 A 
ATOM     17  C   UNL     1      10.218   4.021  -2.812  0.00  0.00    +0.070 A 
ATOM     18  C   UNL     1      12.811   2.831  -2.634  0.00  0.00    +0.051 A 
ATOM     21  C   UNL     1      10.859   3.494  -3.943  0.00  0.00    +0.126 A 
ATOM     22  C   UNL     1      12.129   2.912  -3.852  0.00  0.00    +0.042 A 
ENDBRANCH   6  11
BRANCH   4  10
ATOM     10  C   UNL     1       9.808   6.074   4.412  0.00  0.00    +0.119 C 
BRANCH  10  12
ATOM      1 CL   UNL     1       9.400   4.661  10.246  0.00  0.00    -0.084 Cl
ATOM     12  C   UNL     1       9.705   5.721   5.872  0.00  0.00    -0.033 A 
ATOM     15  C   UNL     1       9.899   4.403   6.286  0.00  0.00    +0.006 A 
ATOM     16  C   UNL     1       9.417   6.711   6.811  0.00  0.00    +0.006 A 
ATOM     19  C   UNL     1       9.803   4.074   7.637  0.00  0.00    +0.020 A 
ATOM     20  C   UNL     1       9.321   6.383   8.163  0.00  0.00    +0.020 A 
ATOM     23  C   UNL     1       9.514   5.065   8.576  0.00  0.00    +0.041 A 
ENDBRANCH  10  12
ENDBRANCH   4  10
TORSDOF 3
ENDMDL
MODEL 6
REMARK VINA RESULT:      -6.4     26.561     29.166
REMARK  Name = 45784338
REMARK  3 active torsions:
REMARK  status: ('A' for Active; 'I' for Inactive)
REMARK    1  A    between atoms: N_4  and  C_10
REMARK    2  A    between atoms: C_6  and  C_11
REMARK    3  A    between atoms: C_10  and  C_12
REMARK                            x       y       z     vdW  Elec       q    Type
REMARK                         _______ _______ _______ _____ _____    ______ ____
ROOT
ATOM      4  N   UNL     1     -13.207   6.797  21.018  0.00  0.00    -0.297 NA
ATOM      6  C   UNL     1     -15.053   5.558  21.761  0.00  0.00    +0.090 C 
ATOM      7  C   UNL     1     -15.319   7.057  21.980  0.00  0.00    +0.029 C 
ATOM      8  C   UNL     1     -13.541   5.463  21.518  0.00  0.00    +0.097 C 
ATOM      9  C   UNL     1     -13.950   7.718  21.877  0.00  0.00    +0.085 C 
ENDROOT
BRANCH   6  11
ATOM      2  F   UNL     1     -16.974   1.617  27.506  0.00  0.00    -0.205 F 
ATOM      3  O   UNL     1     -16.369   3.651  22.517  0.00  0.00    -0.439 OA
ATOM      5  N   UNL     1     -15.235   4.723  24.160  0.00  0.00    -0.213 NA
ATOM     11  C   UNL     1     -15.528   4.660  22.880  0.00  0.00    +0.201 A 
ATOM     13  C   UNL     1     -15.937   3.672  24.699  0.00  0.00    +0.112 A 
ATOM     14  C   UNL     1     -16.633   3.013  23.696  0.00  0.00    +0.156 A 
ATOM     17  C   UNL     1     -16.043   3.204  26.016  0.00  0.00    +0.070 A 
ATOM     18  C   UNL     1     -17.445   1.903  23.893  0.00  0.00    +0.051 A 
ATOM     21  C   UNL     1     -16.854   2.086  26.256  0.00  0.00    +0.126 A 
ATOM     22  C   UNL     1     -17.540   1.451  25.213  0.00  0.00    +0.042 A 
ENDBRANCH   6  11
BRANCH   4  10
ATOM     10  C   UNL     1     -11.774   7.055  21.038  0.00  0.00    +0.119 C 
BRANCH  10  12
ATOM      1 CL   UNL     1     -10.000  10.257  16.263  0.00  0.00    -0.084 Cl
ATOM     12  C   UNL     1     -11.332   7.856  19.843  0.00  0.00    -0.033 A 
ATOM     15  C   UNL     1     -10.856   9.157  20.012  0.00  0.00    +0.006 A 
ATOM     16  C   UNL     1     -11.396   7.299  18.566  0.00  0.00    +0.006 A 
ATOM     19  C   UNL     1     -10.445   9.899  18.906  0.00  0.00    +0.020 A 
ATOM     20  C   UNL     1     -10.985   8.041  17.459  0.00  0.00    +0.020 A 
ATOM     23  C   UNL     1     -10.510   9.341  17.629  0.00  0.00    +0.041 A 
ENDBRANCH  10  12
ENDBRANCH   4  10
TORSDOF 3
ENDMDL
MODEL 7
REMARK VINA RESULT:      -6.3     15.012     17.321
REMARK  Name = 45784338
REMARK  3 active torsions:
REMARK  status: ('A' for Active; 'I' for Inactive)
REMARK    1  A    between atoms: N_4  and  C_10
REMARK    2  A    between atoms: C_6  and  C_11
REMARK    3  A    between atoms: C_10  and  C_12
REMARK                            x       y       z     vdW  Elec       q    Type
REMARK                         _______ _______ _______ _____ _____    ______ ____
ROOT
ATOM      4  N   UNL     1      16.123   8.928   5.250  0.00  0.00    -0.297 NA
ATOM      6  C   UNL     1      14.038   7.861   5.128  0.00  0.00    +0.090 C 
ATOM      7  C   UNL     1      13.951   9.240   4.450  0.00  0.00    +0.029 C 
ATOM      8  C   UNL     1      15.332   7.915   5.951  0.00  0.00    +0.097 C 
ATOM      9  C   UNL     1      15.175  10.000   4.944  0.00  0.00    +0.085 C 
ENDROOT
BRANCH   6  11
ATOM      2  F   UNL     1       8.629   5.628   9.368  0.00  0.00    -0.205 F 
ATOM      3  O   UNL     1      11.685   8.169   5.681  0.00  0.00    -0.439 OA
ATOM      5  N   UNL     1      12.738   6.577   6.902  0.00  0.00    -0.213 NA
ATOM     11  C   UNL     1      12.830   7.483   5.954  0.00  0.00    +0.201 A 
ATOM     13  C   UNL     1      11.425   6.663   7.297  0.00  0.00    +0.112 A 
ATOM     14  C   UNL     1      10.777   7.637   6.552  0.00  0.00    +0.156 A 
ATOM     17  C   UNL     1      10.700   5.962   8.271  0.00  0.00    +0.070 A 
ATOM     18  C   UNL     1       9.438   7.983   6.694  0.00  0.00    +0.051 A 
ATOM     21  C   UNL     1       9.346   6.283   8.444  0.00  0.00    +0.126 A 
ATOM     22  C   UNL     1       8.731   7.274   7.670  0.00  0.00    +0.042 A 
ENDBRANCH   6  11
BRANCH   4  10
ATOM     10  C   UNL     1      17.252   9.396   6.040  0.00  0.00    +0.119 C 
BRANCH  10  12
ATOM      1 CL   UNL     1      22.362   6.608   4.521  0.00  0.00    -0.084 Cl
ATOM     12  C   UNL     1      18.531   8.700   5.659  0.00  0.00    -0.033 A 
ATOM     15  C   UNL     1      19.549   8.548   6.600  0.00  0.00    +0.006 A 
ATOM     16  C   UNL     1      18.697   8.205   4.366  0.00  0.00    +0.006 A 
ATOM     19  C   UNL     1      20.734   7.903   6.248  0.00  0.00    +0.020 A 
ATOM     20  C   UNL     1      19.883   7.559   4.013  0.00  0.00    +0.020 A 
ATOM     23  C   UNL     1      20.900   7.408   4.954  0.00  0.00    +0.041 A 
ENDBRANCH  10  12
ENDBRANCH   4  10
TORSDOF 3
ENDMDL
MODEL 8
REMARK VINA RESULT:      -6.3     27.604     29.000
REMARK  Name = 45784338
REMARK  3 active torsions:
REMARK  status: ('A' for Active; 'I' for Inactive)
REMARK    1  A    between atoms: N_4  and  C_10
REMARK    2  A    between atoms: C_6  and  C_11
REMARK    3  A    between atoms: C_10  and  C_12
REMARK                            x       y       z     vdW  Elec       q    Type
REMARK                         _______ _______ _______ _____ _____    ______ ____
ROOT
ATOM      4  N   UNL     1      -2.734 -11.225  12.002  0.00  0.00    -0.297 NA
ATOM      6  C   UNL     1      -2.769 -10.561  14.250  0.00  0.00    +0.090 C 
ATOM      7  C   UNL     1      -1.688 -11.638  14.049  0.00  0.00    +0.029 C 
ATOM      8  C   UNL     1      -3.644 -10.650  12.993  0.00  0.00    +0.097 C 
ATOM      9  C   UNL     1      -2.026 -12.289  12.714  0.00  0.00    +0.085 C 
ENDROOT
BRANCH   6  11
ATOM      2  F   UNL     1      -6.058 -11.473  20.620  0.00  0.00    -0.205 F 
ATOM      3  O   UNL     1      -4.818 -10.164  15.508  0.00  0.00    -0.439 OA
ATOM      5  N   UNL     1      -3.198 -11.245  16.666  0.00  0.00    -0.213 NA
ATOM     11  C   UNL     1      -3.561 -10.690  15.531  0.00  0.00    +0.201 A 
ATOM     13  C   UNL     1      -4.300 -11.076  17.468  0.00  0.00    +0.112 A 
ATOM     14  C   UNL     1      -5.294 -10.414  16.763  0.00  0.00    +0.156 A 
ATOM     17  C   UNL     1      -4.546 -11.448  18.798  0.00  0.00    +0.070 A 
ATOM     18  C   UNL     1      -6.542 -10.082  17.276  0.00  0.00    +0.051 A 
ATOM     21  C   UNL     1      -5.795 -11.130  19.351  0.00  0.00    +0.126 A 
ATOM     22  C   UNL     1      -6.771 -10.460  18.603  0.00  0.00    +0.042 A 
ENDBRANCH   6  11
BRANCH   4  10
ATOM     10  C   UNL     1      -3.434 -11.718  10.824  0.00  0.00    +0.119 C 
BRANCH  10  12
ATOM      1 CL   UNL     1      -7.295  -7.650   8.647  0.00  0.00    -0.084 Cl
ATOM     12  C   UNL     1      -4.399 -10.700  10.278  0.00  0.00    -0.033 A 
ATOM     15  C   UNL     1      -5.746 -11.029  10.124  0.00  0.00    +0.006 A 
ATOM     16  C   UNL     1      -3.948  -9.428   9.928  0.00  0.00    +0.006 A 
ATOM     19  C   UNL     1      -6.641 -10.087   9.619  0.00  0.00    +0.020 A 
ATOM     20  C   UNL     1      -4.843  -8.485   9.423  0.00  0.00    +0.020 A 
ATOM     23  C   UNL     1      -6.189  -8.815   9.268  0.00  0.00    +0.041 A 
ENDBRANCH  10  12
ENDBRANCH   4  10
TORSDOF 3
ENDMDL
MODEL 9
REMARK VINA RESULT:      -6.2     27.883     30.319
REMARK  Name = 45784338
REMARK  3 active torsions:
REMARK  status: ('A' for Active; 'I' for Inactive)
REMARK    1  A    between atoms: N_4  and  C_10
REMARK    2  A    between atoms: C_6  and  C_11
REMARK    3  A    between atoms: C_10  and  C_12
REMARK                            x       y       z     vdW  Elec       q    Type
REMARK                         _______ _______ _______ _____ _____    ______ ____
ROOT
ATOM      4  N   UNL     1      -4.596 -11.780  17.142  0.00  0.00    -0.297 NA
ATOM      6  C   UNL     1      -6.178 -10.588  18.398  0.00  0.00    +0.090 C 
ATOM      7  C   UNL     1      -5.386 -11.526  19.325  0.00  0.00    +0.029 C 
ATOM      8  C   UNL     1      -5.884 -11.103  16.982  0.00  0.00    +0.097 C 
ATOM      9  C   UNL     1      -4.717 -12.528  18.393  0.00  0.00    +0.085 C 
ENDROOT
BRANCH   6  11
ATOM      2  F   UNL     1     -13.138 -10.525  20.340  0.00  0.00    -0.205 F 
ATOM      3  O   UNL     1      -8.400  -9.774  17.816  0.00  0.00    -0.439 OA
ATOM      5  N   UNL     1      -8.322 -11.033  19.698  0.00  0.00    -0.213 NA
ATOM     11  C   UNL     1      -7.657 -10.500  18.697  0.00  0.00    +0.201 A 
ATOM     13  C   UNL     1      -9.615 -10.631  19.469  0.00  0.00    +0.112 A 
ATOM     14  C   UNL     1      -9.667  -9.860  18.318  0.00  0.00    +0.156 A 
ATOM     17  C   UNL     1     -10.801 -10.870  20.178  0.00  0.00    +0.070 A 
ATOM     18  C   UNL     1     -10.823  -9.291  17.796  0.00  0.00    +0.051 A 
ATOM     21  C   UNL     1     -11.989 -10.313  19.683  0.00  0.00    +0.126 A 
ATOM     22  C   UNL     1     -11.996  -9.540  18.515  0.00  0.00    +0.042 A 
ENDBRANCH   6  11
BRANCH   4  10
ATOM     10  C   UNL     1      -4.275 -12.639  16.011  0.00  0.00    +0.119 C 
BRANCH  10  12
ATOM      1 CL   UNL     1      -1.375  -9.647  11.671  0.00  0.00    -0.084 Cl
ATOM     12  C   UNL     1      -3.551 -11.890  14.925  0.00  0.00    -0.033 A 
ATOM     15  C   UNL     1      -2.471 -11.066  15.247  0.00  0.00    +0.006 A 
ATOM     16  C   UNL     1      -3.957 -12.019  13.598  0.00  0.00    +0.006 A 
ATOM     19  C   UNL     1      -1.800 -10.372  14.242  0.00  0.00    +0.020 A 
ATOM     20  C   UNL     1      -3.285 -11.325  12.591  0.00  0.00    +0.020 A 
ATOM     23  C   UNL     1      -2.207 -10.501  12.914  0.00  0.00    +0.041 A 
ENDBRANCH  10  12
ENDBRANCH   4  10
TORSDOF 3
ENDMDL
MODEL 10
REMARK VINA RESULT:      -6.1     18.938     22.261
REMARK  Name = 45784338
REMARK  3 active torsions:
REMARK  status: ('A' for Active; 'I' for Inactive)
REMARK    1  A    between atoms: N_4  and  C_10
REMARK    2  A    between atoms: C_6  and  C_11
REMARK    3  A    between atoms: C_10  and  C_12
REMARK                            x       y       z     vdW  Elec       q    Type
REMARK                         _______ _______ _______ _____ _____    ______ ____
ROOT
ATOM      4  N   UNL     1      -1.429   8.831  37.455  0.00  0.00    -0.297 NA
ATOM      6  C   UNL     1      -1.199  11.029  36.671  0.00  0.00    +0.090 C 
ATOM      7  C   UNL     1      -2.686  10.632  36.661  0.00  0.00    +0.029 C 
ATOM      8  C   UNL     1      -0.444   9.700  36.809  0.00  0.00    +0.097 C 
ATOM      9  C   UNL     1      -2.688   9.113  36.766  0.00  0.00    +0.085 C 
ENDROOT
BRANCH   6  11
ATOM      2  F   UNL     1       1.455  14.532  30.934  0.00  0.00    -0.205 F 
ATOM      3  O   UNL     1      -1.585  12.848  35.095  0.00  0.00    -0.439 OA
ATOM      5  N   UNL     1       0.339  11.699  34.754  0.00  0.00    -0.213 NA
ATOM     11  C   UNL     1      -0.752  11.839  35.475  0.00  0.00    +0.201 A 
ATOM     13  C   UNL     1       0.226  12.694  33.814  0.00  0.00    +0.112 A 
ATOM     14  C   UNL     1      -0.950  13.399  34.019  0.00  0.00    +0.156 A 
ATOM     17  C   UNL     1       1.066  13.071  32.756  0.00  0.00    +0.070 A 
ATOM     18  C   UNL     1      -1.375  14.473  33.245  0.00  0.00    +0.051 A 
ATOM     21  C   UNL     1       0.671  14.150  31.952  0.00  0.00    +0.126 A 
ATOM     22  C   UNL     1      -0.526  14.835  32.195  0.00  0.00    +0.042 A 
ENDBRANCH   6  11
BRANCH   4  10
ATOM     10  C   UNL     1      -1.061   7.425  37.384  0.00  0.00    +0.119 C 
BRANCH  10  12
ATOM      1 CL   UNL     1      -1.620   4.685  42.711  0.00  0.00    -0.084 Cl
ATOM     12  C   UNL     1      -1.199   6.740  38.717  0.00  0.00    -0.033 A 
ATOM     15  C   UNL     1      -2.332   6.962  39.501  0.00  0.00    +0.006 A 
ATOM     16  C   UNL     1      -0.197   5.883  39.169  0.00  0.00    +0.006 A 
ATOM     19  C   UNL     1      -2.462   6.329  40.736  0.00  0.00    +0.020 A 
ATOM     20  C   UNL     1      -0.326   5.248  40.405  0.00  0.00    +0.020 A 
ATOM     23  C   UNL     1      -1.458   5.471  41.188  0.00  0.00    +0.041 A 
ENDBRANCH  10  12
ENDBRANCH   4  10
TORSDOF 3
ENDMDL
