MODEL 1
REMARK VINA RESULT:      -7.1      0.000      0.000
REMARK  Name = 40777878
REMARK  11 active torsions:
REMARK  status: ('A' for Active; 'I' for Inactive)
REMARK    1  A    between atoms: O_3  and  C_10
REMARK    2  A    between atoms: O_4  and  C_11
REMARK    3  A    between atoms: O_7  and  C_29
REMARK    4  A    between atoms: O_7  and  C_31
REMARK    5  A    between atoms: N_8  and  C_15
REMARK    6  A    between atoms: N_9  and  C_18
REMARK    7  A    between atoms: C_12  and  C_14
REMARK    8  A    between atoms: C_13  and  C_15
REMARK    9  A    between atoms: C_14  and  C_16
REMARK   10  A    between atoms: C_17  and  C_19
REMARK   11  A    between atoms: C_18  and  C_20
REMARK                            x       y       z     vdW  Elec       q    Type
REMARK                         _______ _______ _______ _____ _____    ______ ____
ROOT
ATOM      2  O   UNL     1      12.735  10.054  21.261  0.00  0.00    -0.366 OA
ATOM     10  C   UNL     1      11.447  10.594  23.161  0.00  0.00    +0.175 C 
ATOM     11  C   UNL     1      12.528  11.645  23.017  0.00  0.00    +0.176 C 
ATOM     12  C   UNL     1      11.383  10.029  21.752  0.00  0.00    +0.158 C 
ATOM     13  C   UNL     1      13.514  10.961  22.076  0.00  0.00    +0.167 C 
ENDROOT
BRANCH  10   3
ATOM      3  O   UNL     1      10.206  11.122  23.577  0.00  0.00    -0.387 OA
ATOM     32  H   UNL     1      10.312  12.084  23.661  0.00  0.00    +0.210 HD
ENDBRANCH  10   3
BRANCH  11   4
ATOM      4  O   UNL     1      12.012  12.801  22.357  0.00  0.00    -0.387 OA
ATOM     33  H   UNL     1      11.173  12.545  21.938  0.00  0.00    +0.210 HD
ENDBRANCH  11   4
BRANCH  12  14
ATOM     14  C   UNL     1      10.845   8.611  21.695  0.00  0.00    +0.130 C 
BRANCH  14  16
ATOM      5  O   UNL     1      11.567   6.681  20.427  0.00  0.00    -0.276 OA
ATOM      9  N   UNL     1      11.292   8.715  19.337  0.00  0.00    -0.311 N 
ATOM     16  C   UNL     1      11.274   7.874  20.440  0.00  0.00    +0.216 C 
ATOM     35  H   UNL     1      11.020   9.688  19.460  0.00  0.00    +0.149 HD
BRANCH   9  18
ATOM     18  C   UNL     1      11.665   8.274  18.014  0.00  0.00    +0.139 C 
BRANCH  18  20
ATOM     20  C   UNL     1      12.750   9.128  17.421  0.00  0.00    -0.030 A 
ATOM     23  C   UNL     1      13.609   9.843  18.255  0.00  0.00    +0.009 A 
ATOM     24  C   UNL     1      12.898   9.204  16.036  0.00  0.00    +0.009 A 
ATOM     27  C   UNL     1      14.617  10.635  17.705  0.00  0.00    +0.046 A 
ATOM     28  C   UNL     1      13.905   9.996  15.486  0.00  0.00    +0.046 A 
ATOM     29  C   UNL     1      14.764  10.712  16.320  0.00  0.00    +0.120 A 
BRANCH  29   7
ATOM      7  O   UNL     1      15.748  11.485  15.783  0.00  0.00    -0.495 OA
ATOM     31  C   UNL     1      15.775  11.605  14.361  0.00  0.00    +0.277 C 
ENDBRANCH  29   7
ENDBRANCH  18  20
ENDBRANCH   9  18
ENDBRANCH  14  16
ENDBRANCH  12  14
BRANCH  13  15
ATOM     15  C   UNL     1      14.567  10.142  22.808  0.00  0.00    +0.138 C 
BRANCH  15   8
ATOM      6  O   UNL     1      14.160   7.338  22.343  0.00  0.00    -0.270 OA
ATOM      8  N   UNL     1      15.309   9.297  21.883  0.00  0.00    -0.309 N 
ATOM     17  C   UNL     1      15.032   7.953  21.735  0.00  0.00    +0.244 C 
ATOM     34  H   UNL     1      16.084   9.732  21.395  0.00  0.00    +0.149 HD
BRANCH  17  19
ATOM      1  F   UNL     1      19.265   5.870  20.559  0.00  0.00    -0.205 F 
ATOM     19  C   UNL     1      15.896   7.225  20.771  0.00  0.00    +0.039 A 
ATOM     21  C   UNL     1      17.201   6.883  21.125  0.00  0.00    +0.051 A 
ATOM     22  C   UNL     1      15.403   6.885  19.511  0.00  0.00    +0.013 A 
ATOM     25  C   UNL     1      18.013   6.199  20.219  0.00  0.00    +0.124 A 
ATOM     26  C   UNL     1      16.214   6.202  18.605  0.00  0.00    +0.004 A 
ATOM     30  C   UNL     1      17.519   5.859  18.959  0.00  0.00    +0.038 A 
ENDBRANCH  17  19
ENDBRANCH  15   8
ENDBRANCH  13  15
TORSDOF 10
ENDMDL
MODEL 2
REMARK VINA RESULT:      -7.0      3.442      7.199
REMARK  Name = 40777878
REMARK  11 active torsions:
REMARK  status: ('A' for Active; 'I' for Inactive)
REMARK    1  A    between atoms: O_3  and  C_10
REMARK    2  A    between atoms: O_4  and  C_11
REMARK    3  A    between atoms: O_7  and  C_29
REMARK    4  A    between atoms: O_7  and  C_31
REMARK    5  A    between atoms: N_8  and  C_15
REMARK    6  A    between atoms: N_9  and  C_18
REMARK    7  A    between atoms: C_12  and  C_14
REMARK    8  A    between atoms: C_13  and  C_15
REMARK    9  A    between atoms: C_14  and  C_16
REMARK   10  A    between atoms: C_17  and  C_19
REMARK   11  A    between atoms: C_18  and  C_20
REMARK                            x       y       z     vdW  Elec       q    Type
REMARK                         _______ _______ _______ _____ _____    ______ ____
ROOT
ATOM      2  O   UNL     1      10.709   8.745  20.787  0.00  0.00    -0.366 OA
ATOM     10  C   UNL     1      12.590   7.324  20.861  0.00  0.00    +0.175 C 
ATOM     11  C   UNL     1      11.532   6.744  21.776  0.00  0.00    +0.176 C 
ATOM     12  C   UNL     1      11.755   8.212  19.954  0.00  0.00    +0.158 C 
ATOM     13  C   UNL     1      10.600   7.933  21.979  0.00  0.00    +0.167 C 
ENDROOT
BRANCH  10   3
ATOM      3  O   UNL     1      13.301   6.344  20.135  0.00  0.00    -0.387 OA
ATOM     32  H   UNL     1      13.483   6.710  19.253  0.00  0.00    +0.210 HD
ENDBRANCH  10   3
BRANCH  11   4
ATOM      4  O   UNL     1      10.802   5.719  21.101  0.00  0.00    -0.387 OA
ATOM     33  H   UNL     1      11.262   4.878  21.267  0.00  0.00    +0.210 HD
ENDBRANCH  11   4
BRANCH  12  14
ATOM     14  C   UNL     1      12.543   9.351  19.333  0.00  0.00    +0.130 C 
BRANCH  14  16
ATOM      5  O   UNL     1      13.258  10.654  21.242  0.00  0.00    -0.276 OA
ATOM      9  N   UNL     1      14.856   9.582  19.939  0.00  0.00    -0.311 N 
ATOM     16  C   UNL     1      13.563   9.944  20.287  0.00  0.00    +0.216 C 
ATOM     35  H   UNL     1      14.994   8.979  19.132  0.00  0.00    +0.149 HD
BRANCH   9  18
ATOM     18  C   UNL     1      16.021  10.010  20.677  0.00  0.00    +0.139 C 
BRANCH  18  20
ATOM     20  C   UNL     1      17.016   8.899  20.853  0.00  0.00    -0.030 A 
ATOM     23  C   UNL     1      16.785   7.656  20.264  0.00  0.00    +0.009 A 
ATOM     24  C   UNL     1      18.171   9.111  21.605  0.00  0.00    +0.009 A 
ATOM     27  C   UNL     1      17.709   6.624  20.427  0.00  0.00    +0.046 A 
ATOM     28  C   UNL     1      19.096   8.079  21.768  0.00  0.00    +0.046 A 
ATOM     29  C   UNL     1      18.864   6.836  21.180  0.00  0.00    +0.120 A 
BRANCH  29   7
ATOM      7  O   UNL     1      19.767   5.829  21.338  0.00  0.00    -0.495 OA
ATOM     31  C   UNL     1      21.031   5.983  20.695  0.00  0.00    +0.277 C 
ENDBRANCH  29   7
ENDBRANCH  18  20
ENDBRANCH   9  18
ENDBRANCH  14  16
ENDBRANCH  12  14
BRANCH  13  15
ATOM     15  C   UNL     1      10.989   8.799  23.169  0.00  0.00    +0.138 C 
BRANCH  15   8
ATOM      6  O   UNL     1      11.204  10.976  25.029  0.00  0.00    -0.270 OA
ATOM      8  N   UNL     1      10.760  10.209  22.888  0.00  0.00    -0.309 N 
ATOM     17  C   UNL     1      10.890  11.181  23.860  0.00  0.00    +0.244 C 
ATOM     34  H   UNL     1      10.437  10.438  21.954  0.00  0.00    +0.149 HD
BRANCH  17  19
ATOM      1  F   UNL     1      10.547  14.547  20.367  0.00  0.00    -0.205 F 
ATOM     19  C   UNL     1      10.596  12.568  23.419  0.00  0.00    +0.039 A 
ATOM     21  C   UNL     1      10.712  12.913  22.073  0.00  0.00    +0.051 A 
ATOM     22  C   UNL     1      10.204  13.528  24.354  0.00  0.00    +0.013 A 
ATOM     25  C   UNL     1      10.436  14.216  21.660  0.00  0.00    +0.124 A 
ATOM     26  C   UNL     1       9.927  14.831  23.941  0.00  0.00    +0.004 A 
ATOM     30  C   UNL     1      10.044  15.176  22.594  0.00  0.00    +0.038 A 
ENDBRANCH  17  19
ENDBRANCH  15   8
ENDBRANCH  13  15
TORSDOF 10
ENDMDL
MODEL 3
REMARK VINA RESULT:      -6.8      1.898      2.858
REMARK  Name = 40777878
REMARK  11 active torsions:
REMARK  status: ('A' for Active; 'I' for Inactive)
REMARK    1  A    between atoms: O_3  and  C_10
REMARK    2  A    between atoms: O_4  and  C_11
REMARK    3  A    between atoms: O_7  and  C_29
REMARK    4  A    between atoms: O_7  and  C_31
REMARK    5  A    between atoms: N_8  and  C_15
REMARK    6  A    between atoms: N_9  and  C_18
REMARK    7  A    between atoms: C_12  and  C_14
REMARK    8  A    between atoms: C_13  and  C_15
REMARK    9  A    between atoms: C_14  and  C_16
REMARK   10  A    between atoms: C_17  and  C_19
REMARK   11  A    between atoms: C_18  and  C_20
REMARK                            x       y       z     vdW  Elec       q    Type
REMARK                         _______ _______ _______ _____ _____    ______ ____
ROOT
ATOM      2  O   UNL     1      12.221   9.053  20.317  0.00  0.00    -0.366 OA
ATOM     10  C   UNL     1      11.585   7.104  21.480  0.00  0.00    +0.175 C 
ATOM     11  C   UNL     1      11.281   8.294  22.366  0.00  0.00    +0.176 C 
ATOM     12  C   UNL     1      11.644   7.752  20.108  0.00  0.00    +0.158 C 
ATOM     13  C   UNL     1      12.117   9.393  21.719  0.00  0.00    +0.167 C 
ENDROOT
BRANCH  10   3
ATOM      3  O   UNL     1      10.603   6.092  21.547  0.00  0.00    -0.387 OA
ATOM     32  H   UNL     1      11.051   5.241  21.409  0.00  0.00    +0.210 HD
ENDBRANCH  10   3
BRANCH  11   4
ATOM      4  O   UNL     1       9.906   8.658  22.253  0.00  0.00    -0.387 OA
ATOM     33  H   UNL     1       9.581   8.848  23.149  0.00  0.00    +0.210 HD
ENDBRANCH  11   4
BRANCH  12  14
ATOM     14  C   UNL     1      12.482   6.976  19.109  0.00  0.00    +0.130 C 
BRANCH  14  16
ATOM      5  O   UNL     1      11.485   7.588  16.992  0.00  0.00    -0.276 OA
ATOM      9  N   UNL     1      13.695   8.170  17.415  0.00  0.00    -0.311 N 
ATOM     16  C   UNL     1      12.469   7.600  17.726  0.00  0.00    +0.216 C 
ATOM     35  H   UNL     1      14.441   8.131  18.104  0.00  0.00    +0.149 HD
BRANCH   9  18
ATOM     18  C   UNL     1      13.960   8.832  16.158  0.00  0.00    +0.139 C 
BRANCH  18  20
ATOM     20  C   UNL     1      14.058  10.322  16.317  0.00  0.00    -0.030 A 
ATOM     23  C   UNL     1      14.236  11.133  15.196  0.00  0.00    +0.009 A 
ATOM     24  C   UNL     1      13.969  10.895  17.585  0.00  0.00    +0.009 A 
ATOM     27  C   UNL     1      14.326  12.517  15.343  0.00  0.00    +0.046 A 
ATOM     28  C   UNL     1      14.059  12.279  17.732  0.00  0.00    +0.046 A 
ATOM     29  C   UNL     1      14.238  13.090  16.612  0.00  0.00    +0.120 A 
BRANCH  29   7
ATOM      7  O   UNL     1      14.325  14.441  16.756  0.00  0.00    -0.495 OA
ATOM     31  C   UNL     1      13.470  15.047  17.725  0.00  0.00    +0.277 C 
ENDBRANCH  29   7
ENDBRANCH  18  20
ENDBRANCH   9  18
ENDBRANCH  14  16
ENDBRANCH  12  14
BRANCH  13  15
ATOM     15  C   UNL     1      13.528   9.479  22.283  0.00  0.00    +0.138 C 
BRANCH  15   8
ATOM      6  O   UNL     1      16.380   9.704  22.038  0.00  0.00    -0.270 OA
ATOM      8  N   UNL     1      14.419   8.545  21.609  0.00  0.00    -0.309 N 
ATOM     17  C   UNL     1      15.783   8.749  21.549  0.00  0.00    +0.244 C 
ATOM     34  H   UNL     1      13.981   7.766  21.130  0.00  0.00    +0.149 HD
BRANCH  17  19
ATOM      1  F   UNL     1      19.896   6.293  20.708  0.00  0.00    -0.205 F 
ATOM     19  C   UNL     1      16.550   7.719  20.802  0.00  0.00    +0.039 A 
ATOM     21  C   UNL     1      17.890   7.485  21.112  0.00  0.00    +0.051 A 
ATOM     22  C   UNL     1      15.930   6.986  19.789  0.00  0.00    +0.013 A 
ATOM     25  C   UNL     1      18.610   6.518  20.410  0.00  0.00    +0.124 A 
ATOM     26  C   UNL     1      16.650   6.020  19.086  0.00  0.00    +0.004 A 
ATOM     30  C   UNL     1      17.990   5.786  19.397  0.00  0.00    +0.038 A 
ENDBRANCH  17  19
ENDBRANCH  15   8
ENDBRANCH  13  15
TORSDOF 10
ENDMDL
MODEL 4
REMARK VINA RESULT:      -6.7     27.252     30.250
REMARK  Name = 40777878
REMARK  11 active torsions:
REMARK  status: ('A' for Active; 'I' for Inactive)
REMARK    1  A    between atoms: O_3  and  C_10
REMARK    2  A    between atoms: O_4  and  C_11
REMARK    3  A    between atoms: O_7  and  C_29
REMARK    4  A    between atoms: O_7  and  C_31
REMARK    5  A    between atoms: N_8  and  C_15
REMARK    6  A    between atoms: N_9  and  C_18
REMARK    7  A    between atoms: C_12  and  C_14
REMARK    8  A    between atoms: C_13  and  C_15
REMARK    9  A    between atoms: C_14  and  C_16
REMARK   10  A    between atoms: C_17  and  C_19
REMARK   11  A    between atoms: C_18  and  C_20
REMARK                            x       y       z     vdW  Elec       q    Type
REMARK                         _______ _______ _______ _____ _____    ______ ____
ROOT
ATOM      2  O   UNL     1      -9.753  -7.976  17.155  0.00  0.00    -0.366 OA
ATOM     10  C   UNL     1     -11.211  -9.436  16.013  0.00  0.00    +0.175 C 
ATOM     11  C   UNL     1     -10.721  -8.399  15.023  0.00  0.00    +0.176 C 
ATOM     12  C   UNL     1     -10.141  -9.360  17.089  0.00  0.00    +0.158 C 
ATOM     13  C   UNL     1     -10.182  -7.310  15.945  0.00  0.00    +0.167 C 
ENDROOT
BRANCH  10   3
ATOM      3  O   UNL     1     -11.317 -10.730  15.461  0.00  0.00    -0.387 OA
ATOM     32  H   UNL     1     -10.676 -10.789  14.732  0.00  0.00    +0.210 HD
ENDBRANCH  10   3
BRANCH  11   4
ATOM      4  O   UNL     1      -9.629  -8.917  14.263  0.00  0.00    -0.387 OA
ATOM     33  H   UNL     1      -9.961  -9.105  13.369  0.00  0.00    +0.210 HD
ENDBRANCH  11   4
BRANCH  12  14
ATOM     14  C   UNL     1     -10.623  -9.822  18.452  0.00  0.00    +0.130 C 
BRANCH  14  16
ATOM      5  O   UNL     1      -9.719 -11.071  20.316  0.00  0.00    -0.276 OA
ATOM      9  N   UNL     1      -8.265 -10.177  18.739  0.00  0.00    -0.311 N 
ATOM     16  C   UNL     1      -9.513 -10.433  19.286  0.00  0.00    +0.216 C 
ATOM     35  H   UNL     1      -8.211  -9.646  17.873  0.00  0.00    +0.149 HD
BRANCH   9  18
ATOM     18  C   UNL     1      -7.033 -10.642  19.332  0.00  0.00    +0.139 C 
BRANCH  18  20
ATOM     20  C   UNL     1      -5.917 -10.712  18.329  0.00  0.00    -0.030 A 
ATOM     23  C   UNL     1      -6.058 -10.098  17.084  0.00  0.00    +0.009 A 
ATOM     24  C   UNL     1      -4.739 -11.390  18.643  0.00  0.00    +0.009 A 
ATOM     27  C   UNL     1      -5.021 -10.162  16.153  0.00  0.00    +0.046 A 
ATOM     28  C   UNL     1      -3.702 -11.453  17.712  0.00  0.00    +0.046 A 
ATOM     29  C   UNL     1      -3.844 -10.841  16.468  0.00  0.00    +0.120 A 
BRANCH  29   7
ATOM      7  O   UNL     1      -2.831 -10.903  15.559  0.00  0.00    -0.495 OA
ATOM     31  C   UNL     1      -1.537 -10.496  16.000  0.00  0.00    +0.277 C 
ENDBRANCH  29   7
ENDBRANCH  18  20
ENDBRANCH   9  18
ENDBRANCH  14  16
ENDBRANCH  12  14
BRANCH  13  15
ATOM     15  C   UNL     1     -11.234  -6.279  16.328  0.00  0.00    +0.138 C 
BRANCH  15   8
ATOM      6  O   UNL     1     -13.864  -6.265  15.177  0.00  0.00    -0.270 OA
ATOM      8  N   UNL     1     -11.670  -5.519  15.166  0.00  0.00    -0.309 N 
ATOM     17  C   UNL     1     -12.965  -5.584  14.691  0.00  0.00    +0.244 C 
ATOM     34  H   UNL     1     -10.958  -4.984  14.681  0.00  0.00    +0.149 HD
BRANCH  17  19
ATOM      1  F   UNL     1     -11.453  -3.233  10.712  0.00  0.00    -0.205 F 
ATOM     19  C   UNL     1     -13.244  -4.769  13.481  0.00  0.00    +0.039 A 
ATOM     21  C   UNL     1     -12.196  -4.376  12.648  0.00  0.00    +0.051 A 
ATOM     22  C   UNL     1     -14.554  -4.396  13.178  0.00  0.00    +0.013 A 
ATOM     25  C   UNL     1     -12.459  -3.610  11.512  0.00  0.00    +0.124 A 
ATOM     26  C   UNL     1     -14.816  -3.630  12.042  0.00  0.00    +0.004 A 
ATOM     30  C   UNL     1     -13.768  -3.237  11.209  0.00  0.00    +0.038 A 
ENDBRANCH  17  19
ENDBRANCH  15   8
ENDBRANCH  13  15
TORSDOF 10
ENDMDL
MODEL 5
REMARK VINA RESULT:      -6.7      2.421      5.604
REMARK  Name = 40777878
REMARK  11 active torsions:
REMARK  status: ('A' for Active; 'I' for Inactive)
REMARK    1  A    between atoms: O_3  and  C_10
REMARK    2  A    between atoms: O_4  and  C_11
REMARK    3  A    between atoms: O_7  and  C_29
REMARK    4  A    between atoms: O_7  and  C_31
REMARK    5  A    between atoms: N_8  and  C_15
REMARK    6  A    between atoms: N_9  and  C_18
REMARK    7  A    between atoms: C_12  and  C_14
REMARK    8  A    between atoms: C_13  and  C_15
REMARK    9  A    between atoms: C_14  and  C_16
REMARK   10  A    between atoms: C_17  and  C_19
REMARK   11  A    between atoms: C_18  and  C_20
REMARK                            x       y       z     vdW  Elec       q    Type
REMARK                         _______ _______ _______ _____ _____    ______ ____
ROOT
ATOM      2  O   UNL     1      12.975   8.118  20.907  0.00  0.00    -0.366 OA
ATOM     10  C   UNL     1      10.708   7.548  21.213  0.00  0.00    +0.175 C 
ATOM     11  C   UNL     1      11.431   6.320  20.701  0.00  0.00    +0.176 C 
ATOM     12  C   UNL     1      11.857   8.365  21.778  0.00  0.00    +0.158 C 
ATOM     13  C   UNL     1      12.716   6.919  20.140  0.00  0.00    +0.167 C 
ENDROOT
BRANCH  10   3
ATOM      3  O   UNL     1       9.734   7.256  22.193  0.00  0.00    -0.387 OA
ATOM     32  H   UNL     1       9.597   8.063  22.717  0.00  0.00    +0.210 HD
ENDBRANCH  10   3
BRANCH  11   4
ATOM      4  O   UNL     1      11.779   5.461  21.787  0.00  0.00    -0.387 OA
ATOM     33  H   UNL     1      11.031   5.460  22.408  0.00  0.00    +0.210 HD
ENDBRANCH  11   4
BRANCH  12  14
ATOM     14  C   UNL     1      11.570   9.855  21.830  0.00  0.00    +0.130 C 
BRANCH  14  16
ATOM      5  O   UNL     1      12.727  11.489  20.472  0.00  0.00    -0.276 OA
ATOM      9  N   UNL     1      13.868  10.443  22.206  0.00  0.00    -0.311 N 
ATOM     16  C   UNL     1      12.761  10.694  21.408  0.00  0.00    +0.216 C 
ATOM     35  H   UNL     1      13.782   9.770  22.963  0.00  0.00    +0.149 HD
BRANCH   9  18
ATOM     18  C   UNL     1      15.139  11.105  22.022  0.00  0.00    +0.139 C 
BRANCH  18  20
ATOM     20  C   UNL     1      16.247  10.128  21.748  0.00  0.00    -0.030 A 
ATOM     23  C   UNL     1      17.572  10.562  21.735  0.00  0.00    +0.009 A 
ATOM     24  C   UNL     1      15.949   8.787  21.507  0.00  0.00    +0.009 A 
ATOM     27  C   UNL     1      18.601   9.655  21.481  0.00  0.00    +0.046 A 
ATOM     28  C   UNL     1      16.978   7.880  21.253  0.00  0.00    +0.046 A 
ATOM     29  C   UNL     1      18.303   8.314  21.239  0.00  0.00    +0.120 A 
BRANCH  29   7
ATOM      7  O   UNL     1      19.307   7.429  20.991  0.00  0.00    -0.495 OA
ATOM     31  C   UNL     1      18.941   6.177  20.411  0.00  0.00    +0.277 C 
ENDBRANCH  29   7
ENDBRANCH  18  20
ENDBRANCH   9  18
ENDBRANCH  14  16
ENDBRANCH  12  14
BRANCH  13  15
ATOM     15  C   UNL     1      12.598   7.319  18.676  0.00  0.00    +0.138 C 
BRANCH  15   8
ATOM      6  O   UNL     1      13.880   8.106  16.231  0.00  0.00    -0.270 OA
ATOM      8  N   UNL     1      13.284   8.577  18.420  0.00  0.00    -0.309 N 
ATOM     17  C   UNL     1      13.870   8.857  17.202  0.00  0.00    +0.244 C 
ATOM     34  H   UNL     1      13.365   9.217  19.203  0.00  0.00    +0.149 HD
BRANCH  17  19
ATOM      1  F   UNL     1      16.248  12.564  19.266  0.00  0.00    -0.205 F 
ATOM     19  C   UNL     1      14.554  10.173  17.110  0.00  0.00    +0.039 A 
ATOM     21  C   UNL     1      15.090  10.762  18.254  0.00  0.00    +0.051 A 
ATOM     22  C   UNL     1      14.658  10.819  15.878  0.00  0.00    +0.013 A 
ATOM     25  C   UNL     1      15.732  11.998  18.167  0.00  0.00    +0.124 A 
ATOM     26  C   UNL     1      15.300  12.055  15.790  0.00  0.00    +0.004 A 
ATOM     30  C   UNL     1      15.837  12.645  16.935  0.00  0.00    +0.038 A 
ENDBRANCH  17  19
ENDBRANCH  15   8
ENDBRANCH  13  15
TORSDOF 10
ENDMDL
MODEL 6
REMARK VINA RESULT:      -6.7      1.697      2.250
REMARK  Name = 40777878
REMARK  11 active torsions:
REMARK  status: ('A' for Active; 'I' for Inactive)
REMARK    1  A    between atoms: O_3  and  C_10
REMARK    2  A    between atoms: O_4  and  C_11
REMARK    3  A    between atoms: O_7  and  C_29
REMARK    4  A    between atoms: O_7  and  C_31
REMARK    5  A    between atoms: N_8  and  C_15
REMARK    6  A    between atoms: N_9  and  C_18
REMARK    7  A    between atoms: C_12  and  C_14
REMARK    8  A    between atoms: C_13  and  C_15
REMARK    9  A    between atoms: C_14  and  C_16
REMARK   10  A    between atoms: C_17  and  C_19
REMARK   11  A    between atoms: C_18  and  C_20
REMARK                            x       y       z     vdW  Elec       q    Type
REMARK                         _______ _______ _______ _____ _____    ______ ____
ROOT
ATOM      2  O   UNL     1      12.950  10.290  21.709  0.00  0.00    -0.366 OA
ATOM     10  C   UNL     1      11.546  11.075  23.434  0.00  0.00    +0.175 C 
ATOM     11  C   UNL     1      12.378  12.242  22.944  0.00  0.00    +0.176 C 
ATOM     12  C   UNL     1      11.627  10.125  22.251  0.00  0.00    +0.158 C 
ATOM     13  C   UNL     1      13.502  11.537  22.192  0.00  0.00    +0.167 C 
ENDROOT
BRANCH  10   3
ATOM      3  O   UNL     1      10.214  11.428  23.740  0.00  0.00    -0.387 OA
ATOM     32  H   UNL     1       9.669  11.209  22.965  0.00  0.00    +0.210 HD
ENDBRANCH  10   3
BRANCH  11   4
ATOM      4  O   UNL     1      11.637  13.020  22.005  0.00  0.00    -0.387 OA
ATOM     33  H   UNL     1      11.472  13.887  22.413  0.00  0.00    +0.210 HD
ENDBRANCH  11   4
BRANCH  12  14
ATOM     14  C   UNL     1      11.408   8.672  22.629  0.00  0.00    +0.130 C 
BRANCH  14  16
ATOM      5  O   UNL     1      10.292   7.217  21.051  0.00  0.00    -0.276 OA
ATOM      9  N   UNL     1      12.566   7.627  20.802  0.00  0.00    -0.311 N 
ATOM     16  C   UNL     1      11.330   7.760  21.419  0.00  0.00    +0.216 C 
ATOM     35  H   UNL     1      13.360   8.132  21.187  0.00  0.00    +0.149 HD
BRANCH   9  18
ATOM     18  C   UNL     1      12.778   6.814  19.628  0.00  0.00    +0.139 C 
BRANCH  18  20
ATOM     20  C   UNL     1      12.930   7.646  18.387  0.00  0.00    -0.030 A 
ATOM     23  C   UNL     1      14.122   7.610  17.663  0.00  0.00    +0.009 A 
ATOM     24  C   UNL     1      11.877   8.455  17.957  0.00  0.00    +0.009 A 
ATOM     27  C   UNL     1      14.262   8.383  16.511  0.00  0.00    +0.046 A 
ATOM     28  C   UNL     1      12.018   9.227  16.804  0.00  0.00    +0.046 A 
ATOM     29  C   UNL     1      13.210   9.192  16.082  0.00  0.00    +0.120 A 
BRANCH  29   7
ATOM      7  O   UNL     1      13.347   9.946  14.956  0.00  0.00    -0.495 OA
ATOM     31  C   UNL     1      12.277  10.834  14.636  0.00  0.00    +0.277 C 
ENDBRANCH  29   7
ENDBRANCH  18  20
ENDBRANCH   9  18
ENDBRANCH  14  16
ENDBRANCH  12  14
BRANCH  13  15
ATOM     15  C   UNL     1      14.696  11.206  23.077  0.00  0.00    +0.138 C 
BRANCH  15   8
ATOM      6  O   UNL     1      16.971  11.145  21.327  0.00  0.00    -0.270 OA
ATOM      8  N   UNL     1      15.391  10.020  22.596  0.00  0.00    -0.309 N 
ATOM     17  C   UNL     1      16.481  10.102  21.753  0.00  0.00    +0.244 C 
ATOM     34  H   UNL     1      14.996   9.125  22.862  0.00  0.00    +0.149 HD
BRANCH  17  19
ATOM      1  F   UNL     1      16.119   5.837  19.446  0.00  0.00    -0.205 F 
ATOM     19  C   UNL     1      17.061   8.802  21.332  0.00  0.00    +0.039 A 
ATOM     21  C   UNL     1      16.302   7.912  20.571  0.00  0.00    +0.051 A 
ATOM     22  C   UNL     1      18.366   8.469  21.697  0.00  0.00    +0.013 A 
ATOM     25  C   UNL     1      16.848   6.690  20.176  0.00  0.00    +0.124 A 
ATOM     26  C   UNL     1      18.912   7.248  21.302  0.00  0.00    +0.004 A 
ATOM     30  C   UNL     1      18.153   6.358  20.542  0.00  0.00    +0.038 A 
ENDBRANCH  17  19
ENDBRANCH  15   8
ENDBRANCH  13  15
TORSDOF 10
ENDMDL
MODEL 7
REMARK VINA RESULT:      -6.6      2.026      3.361
REMARK  Name = 40777878
REMARK  11 active torsions:
REMARK  status: ('A' for Active; 'I' for Inactive)
REMARK    1  A    between atoms: O_3  and  C_10
REMARK    2  A    between atoms: O_4  and  C_11
REMARK    3  A    between atoms: O_7  and  C_29
REMARK    4  A    between atoms: O_7  and  C_31
REMARK    5  A    between atoms: N_8  and  C_15
REMARK    6  A    between atoms: N_9  and  C_18
REMARK    7  A    between atoms: C_12  and  C_14
REMARK    8  A    between atoms: C_13  and  C_15
REMARK    9  A    between atoms: C_14  and  C_16
REMARK   10  A    between atoms: C_17  and  C_19
REMARK   11  A    between atoms: C_18  and  C_20
REMARK                            x       y       z     vdW  Elec       q    Type
REMARK                         _______ _______ _______ _____ _____    ______ ____
ROOT
ATOM      2  O   UNL     1      13.970  12.319  22.719  0.00  0.00    -0.366 OA
ATOM     10  C   UNL     1      13.692  12.397  25.059  0.00  0.00    +0.175 C 
ATOM     11  C   UNL     1      15.075  11.851  24.772  0.00  0.00    +0.176 C 
ATOM     12  C   UNL     1      13.372  13.113  23.759  0.00  0.00    +0.158 C 
ATOM     13  C   UNL     1      14.959  11.443  23.308  0.00  0.00    +0.167 C 
ENDROOT
BRANCH  10   3
ATOM      3  O   UNL     1      13.653  13.269  26.169  0.00  0.00    -0.387 OA
ATOM     32  H   UNL     1      12.783  13.703  26.168  0.00  0.00    +0.210 HD
ENDBRANCH  10   3
BRANCH  11   4
ATOM      4  O   UNL     1      16.048  12.892  24.868  0.00  0.00    -0.387 OA
ATOM     33  H   UNL     1      16.241  13.024  25.811  0.00  0.00    +0.210 HD
ENDBRANCH  11   4
BRANCH  12  14
ATOM     14  C   UNL     1      11.883  13.257  23.500  0.00  0.00    +0.130 C 
BRANCH  14  16
ATOM      5  O   UNL     1      10.502  11.374  24.132  0.00  0.00    -0.276 OA
ATOM      9  N   UNL     1      11.461  11.417  22.015  0.00  0.00    -0.311 N 
ATOM     16  C   UNL     1      11.197  11.921  23.280  0.00  0.00    +0.216 C 
ATOM     35  H   UNL     1      12.044  11.960  21.384  0.00  0.00    +0.149 HD
BRANCH   9  18
ATOM     18  C   UNL     1      10.934  10.157  21.543  0.00  0.00    +0.139 C 
BRANCH  18  20
ATOM     20  C   UNL     1      11.737   9.605  20.400  0.00  0.00    -0.030 A 
ATOM     23  C   UNL     1      12.833  10.314  19.910  0.00  0.00    +0.009 A 
ATOM     24  C   UNL     1      11.387   8.381  19.830  0.00  0.00    +0.009 A 
ATOM     27  C   UNL     1      13.580   9.801  18.850  0.00  0.00    +0.046 A 
ATOM     28  C   UNL     1      12.133   7.868  18.769  0.00  0.00    +0.046 A 
ATOM     29  C   UNL     1      13.229   8.578  18.279  0.00  0.00    +0.120 A 
BRANCH  29   7
ATOM      7  O   UNL     1      13.957   8.076  17.244  0.00  0.00    -0.495 OA
ATOM     31  C   UNL     1      13.959   8.825  16.029  0.00  0.00    +0.277 C 
ENDBRANCH  29   7
ENDBRANCH  18  20
ENDBRANCH   9  18
ENDBRANCH  14  16
ENDBRANCH  12  14
BRANCH  13  15
ATOM     15  C   UNL     1      14.481  10.010  23.124  0.00  0.00    +0.138 C 
BRANCH  15   8
ATOM      6  O   UNL     1      14.031   7.437  21.931  0.00  0.00    -0.270 OA
ATOM      8  N   UNL     1      15.433   9.237  22.340  0.00  0.00    -0.309 N 
ATOM     17  C   UNL     1      15.114   8.004  21.808  0.00  0.00    +0.244 C 
ATOM     34  H   UNL     1      16.367   9.622  22.254  0.00  0.00    +0.149 HD
BRANCH  17  19
ATOM      1  F   UNL     1      16.690   5.472  17.967  0.00  0.00    -0.205 F 
ATOM     19  C   UNL     1      16.204   7.331  21.056  0.00  0.00    +0.039 A 
ATOM     21  C   UNL     1      15.929   6.705  19.840  0.00  0.00    +0.051 A 
ATOM     22  C   UNL     1      17.503   7.324  21.567  0.00  0.00    +0.013 A 
ATOM     25  C   UNL     1      16.953   6.073  19.134  0.00  0.00    +0.124 A 
ATOM     26  C   UNL     1      18.527   6.692  20.861  0.00  0.00    +0.004 A 
ATOM     30  C   UNL     1      18.252   6.066  19.645  0.00  0.00    +0.038 A 
ENDBRANCH  17  19
ENDBRANCH  15   8
ENDBRANCH  13  15
TORSDOF 10
ENDMDL
MODEL 8
REMARK VINA RESULT:      -6.6      2.871      6.562
REMARK  Name = 40777878
REMARK  11 active torsions:
REMARK  status: ('A' for Active; 'I' for Inactive)
REMARK    1  A    between atoms: O_3  and  C_10
REMARK    2  A    between atoms: O_4  and  C_11
REMARK    3  A    between atoms: O_7  and  C_29
REMARK    4  A    between atoms: O_7  and  C_31
REMARK    5  A    between atoms: N_8  and  C_15
REMARK    6  A    between atoms: N_9  and  C_18
REMARK    7  A    between atoms: C_12  and  C_14
REMARK    8  A    between atoms: C_13  and  C_15
REMARK    9  A    between atoms: C_14  and  C_16
REMARK   10  A    between atoms: C_17  and  C_19
REMARK   11  A    between atoms: C_18  and  C_20
REMARK                            x       y       z     vdW  Elec       q    Type
REMARK                         _______ _______ _______ _____ _____    ______ ____
ROOT
ATOM      2  O   UNL     1      14.141   7.894  19.959  0.00  0.00    -0.366 OA
ATOM     10  C   UNL     1      12.171   8.207  21.215  0.00  0.00    +0.175 C 
ATOM     11  C   UNL     1      12.075   6.861  20.526  0.00  0.00    +0.176 C 
ATOM     12  C   UNL     1      13.670   8.451  21.198  0.00  0.00    +0.158 C 
ATOM     13  C   UNL     1      13.144   6.980  19.446  0.00  0.00    +0.167 C 
ENDROOT
BRANCH  10   3
ATOM      3  O   UNL     1      11.649   8.202  22.526  0.00  0.00    -0.387 OA
ATOM     32  H   UNL     1      11.963   9.010  22.967  0.00  0.00    +0.210 HD
ENDBRANCH  10   3
BRANCH  11   4
ATOM      4  O   UNL     1      12.462   5.818  21.421  0.00  0.00    -0.387 OA
ATOM     33  H   UNL     1      13.312   6.076  21.818  0.00  0.00    +0.210 HD
ENDBRANCH  11   4
BRANCH  12  14
ATOM     14  C   UNL     1      14.042   9.921  21.271  0.00  0.00    +0.130 C 
BRANCH  14  16
ATOM      5  O   UNL     1      15.892  10.864  20.030  0.00  0.00    -0.276 OA
ATOM      9  N   UNL     1      16.332   9.513  21.869  0.00  0.00    -0.311 N 
ATOM     16  C   UNL     1      15.507  10.168  20.966  0.00  0.00    +0.216 C 
ATOM     35  H   UNL     1      15.905   8.970  22.615  0.00  0.00    +0.149 HD
BRANCH   9  18
ATOM     18  C   UNL     1      17.773   9.575  21.810  0.00  0.00    +0.139 C 
BRANCH  18  20
ATOM     20  C   UNL     1      18.375   8.274  21.360  0.00  0.00    -0.030 A 
ATOM     23  C   UNL     1      19.710   7.988  21.643  0.00  0.00    +0.009 A 
ATOM     24  C   UNL     1      17.597   7.352  20.660  0.00  0.00    +0.009 A 
ATOM     27  C   UNL     1      20.268   6.780  21.226  0.00  0.00    +0.046 A 
ATOM     28  C   UNL     1      18.155   6.144  20.242  0.00  0.00    +0.046 A 
ATOM     29  C   UNL     1      19.490   5.858  20.525  0.00  0.00    +0.120 A 
BRANCH  29   7
ATOM      7  O   UNL     1      20.035   4.678  20.118  0.00  0.00    -0.495 OA
ATOM     31  C   UNL     1      21.205   4.233  20.803  0.00  0.00    +0.277 C 
ENDBRANCH  29   7
ENDBRANCH  18  20
ENDBRANCH   9  18
ENDBRANCH  14  16
ENDBRANCH  12  14
BRANCH  13  15
ATOM     15  C   UNL     1      12.612   7.556  18.141  0.00  0.00    +0.138 C 
BRANCH  15   8
ATOM      6  O   UNL     1      12.890   8.600  15.481  0.00  0.00    -0.270 OA
ATOM      8  N   UNL     1      13.364   8.738  17.746  0.00  0.00    -0.309 N 
ATOM     17  C   UNL     1      13.434   9.156  16.432  0.00  0.00    +0.244 C 
ATOM     34  H   UNL     1      13.887   9.207  18.477  0.00  0.00    +0.149 HD
BRANCH  17  19
ATOM      1  F   UNL     1      16.697  11.608  13.789  0.00  0.00    -0.205 F 
ATOM     19  C   UNL     1      14.263  10.364  16.189  0.00  0.00    +0.039 A 
ATOM     21  C   UNL     1      15.108  10.420  15.081  0.00  0.00    +0.051 A 
ATOM     22  C   UNL     1      14.198  11.444  17.071  0.00  0.00    +0.013 A 
ATOM     25  C   UNL     1      15.887  11.555  14.854  0.00  0.00    +0.124 A 
ATOM     26  C   UNL     1      14.976  12.579  16.844  0.00  0.00    +0.004 A 
ATOM     30  C   UNL     1      15.821  12.634  15.736  0.00  0.00    +0.038 A 
ENDBRANCH  17  19
ENDBRANCH  15   8
ENDBRANCH  13  15
TORSDOF 10
ENDMDL
MODEL 9
REMARK VINA RESULT:      -6.5      2.871      6.396
REMARK  Name = 40777878
REMARK  11 active torsions:
REMARK  status: ('A' for Active; 'I' for Inactive)
REMARK    1  A    between atoms: O_3  and  C_10
REMARK    2  A    between atoms: O_4  and  C_11
REMARK    3  A    between atoms: O_7  and  C_29
REMARK    4  A    between atoms: O_7  and  C_31
REMARK    5  A    between atoms: N_8  and  C_15
REMARK    6  A    between atoms: N_9  and  C_18
REMARK    7  A    between atoms: C_12  and  C_14
REMARK    8  A    between atoms: C_13  and  C_15
REMARK    9  A    between atoms: C_14  and  C_16
REMARK   10  A    between atoms: C_17  and  C_19
REMARK   11  A    between atoms: C_18  and  C_20
REMARK                            x       y       z     vdW  Elec       q    Type
REMARK                         _______ _______ _______ _____ _____    ______ ____
ROOT
ATOM      2  O   UNL     1      14.303   8.467  17.655  0.00  0.00    -0.366 OA
ATOM     10  C   UNL     1      11.967   8.481  17.337  0.00  0.00    +0.175 C 
ATOM     11  C   UNL     1      12.586   9.376  16.284  0.00  0.00    +0.176 C 
ATOM     12  C   UNL     1      13.148   7.611  17.730  0.00  0.00    +0.158 C 
ATOM     13  C   UNL     1      13.976   9.628  16.857  0.00  0.00    +0.167 C 
ENDROOT
BRANCH  10   3
ATOM      3  O   UNL     1      10.883   7.716  16.854  0.00  0.00    -0.387 OA
ATOM     32  H   UNL     1      11.224   7.141  16.148  0.00  0.00    +0.210 HD
ENDBRANCH  10   3
BRANCH  11   4
ATOM      4  O   UNL     1      12.735   8.666  15.054  0.00  0.00    -0.387 OA
ATOM     33  H   UNL     1      12.955   9.317  14.367  0.00  0.00    +0.210 HD
ENDBRANCH  11   4
BRANCH  12  14
ATOM     14  C   UNL     1      13.032   7.031  19.128  0.00  0.00    +0.130 C 
BRANCH  14  16
ATOM      5  O   UNL     1      15.191   6.204  19.838  0.00  0.00    -0.276 OA
ATOM      9  N   UNL     1      14.437   8.247  20.650  0.00  0.00    -0.311 N 
ATOM     16  C   UNL     1      14.340   7.088  19.894  0.00  0.00    +0.216 C 
ATOM     35  H   UNL     1      13.674   8.919  20.614  0.00  0.00    +0.149 HD
BRANCH   9  18
ATOM     18  C   UNL     1      15.579   8.556  21.478  0.00  0.00    +0.139 C 
BRANCH  18  20
ATOM     20  C   UNL     1      15.587   9.994  21.911  0.00  0.00    -0.030 A 
ATOM     23  C   UNL     1      14.947  10.371  23.091  0.00  0.00    +0.009 A 
ATOM     24  C   UNL     1      16.237  10.952  21.134  0.00  0.00    +0.009 A 
ATOM     27  C   UNL     1      14.955  11.707  23.494  0.00  0.00    +0.046 A 
ATOM     28  C   UNL     1      16.246  12.287  21.536  0.00  0.00    +0.046 A 
ATOM     29  C   UNL     1      15.605  12.665  22.715  0.00  0.00    +0.120 A 
BRANCH  29   7
ATOM      7  O   UNL     1      15.614  13.968  23.109  0.00  0.00    -0.495 OA
ATOM     31  C   UNL     1      14.469  14.753  22.779  0.00  0.00    +0.277 C 
ENDBRANCH  29   7
ENDBRANCH  18  20
ENDBRANCH   9  18
ENDBRANCH  14  16
ENDBRANCH  12  14
BRANCH  13  15
ATOM     15  C   UNL     1      14.034  10.848  17.765  0.00  0.00    +0.138 C 
BRANCH  15   8
ATOM      6  O   UNL     1      13.176  12.861  19.624  0.00  0.00    -0.270 OA
ATOM      8  N   UNL     1      13.257  10.637  18.978  0.00  0.00    -0.309 N 
ATOM     17  C   UNL     1      12.895  11.679  19.807  0.00  0.00    +0.244 C 
ATOM     34  H   UNL     1      13.046   9.675  19.218  0.00  0.00    +0.149 HD
BRANCH  17  19
ATOM      1  F   UNL     1      10.624   8.339  22.514  0.00  0.00    -0.205 F 
ATOM     19  C   UNL     1      12.126  11.295  21.018  0.00  0.00    +0.039 A 
ATOM     21  C   UNL     1      11.728   9.971  21.201  0.00  0.00    +0.051 A 
ATOM     22  C   UNL     1      11.800  12.259  21.972  0.00  0.00    +0.013 A 
ATOM     25  C   UNL     1      11.006   9.610  22.338  0.00  0.00    +0.124 A 
ATOM     26  C   UNL     1      11.078  11.899  23.110  0.00  0.00    +0.004 A 
ATOM     30  C   UNL     1      10.680  10.575  23.293  0.00  0.00    +0.038 A 
ENDBRANCH  17  19
ENDBRANCH  15   8
ENDBRANCH  13  15
TORSDOF 10
ENDMDL
MODEL 10
REMARK VINA RESULT:      -6.5      3.225      7.109
REMARK  Name = 40777878
REMARK  11 active torsions:
REMARK  status: ('A' for Active; 'I' for Inactive)
REMARK    1  A    between atoms: O_3  and  C_10
REMARK    2  A    between atoms: O_4  and  C_11
REMARK    3  A    between atoms: O_7  and  C_29
REMARK    4  A    between atoms: O_7  and  C_31
REMARK    5  A    between atoms: N_8  and  C_15
REMARK    6  A    between atoms: N_9  and  C_18
REMARK    7  A    between atoms: C_12  and  C_14
REMARK    8  A    between atoms: C_13  and  C_15
REMARK    9  A    between atoms: C_14  and  C_16
REMARK   10  A    between atoms: C_17  and  C_19
REMARK   11  A    between atoms: C_18  and  C_20
REMARK                            x       y       z     vdW  Elec       q    Type
REMARK                         _______ _______ _______ _____ _____    ______ ____
ROOT
ATOM      2  O   UNL     1      14.674   7.935  18.552  0.00  0.00    -0.366 OA
ATOM     10  C   UNL     1      12.680   7.362  19.672  0.00  0.00    +0.175 C 
ATOM     11  C   UNL     1      12.309   7.896  18.304  0.00  0.00    +0.176 C 
ATOM     12  C   UNL     1      14.129   6.960  19.459  0.00  0.00    +0.158 C 
ATOM     13  C   UNL     1      13.586   8.618  17.888  0.00  0.00    +0.167 C 
ENDROOT
BRANCH  10   3
ATOM      3  O   UNL     1      11.882   6.272  20.082  0.00  0.00    -0.387 OA
ATOM     32  H   UNL     1      11.355   6.566  20.843  0.00  0.00    +0.210 HD
ENDBRANCH  10   3
BRANCH  11   4
ATOM      4  O   UNL     1      12.091   6.819  17.393  0.00  0.00    -0.387 OA
ATOM     33  H   UNL     1      12.554   6.041  17.747  0.00  0.00    +0.210 HD
ENDBRANCH  11   4
BRANCH  12  14
ATOM     14  C   UNL     1      14.944   6.941  20.739  0.00  0.00    +0.130 C 
BRANCH  14  16
ATOM      5  O   UNL     1      17.135   7.908  20.396  0.00  0.00    -0.276 OA
ATOM      9  N   UNL     1      15.453   9.214  21.327  0.00  0.00    -0.311 N 
ATOM     16  C   UNL     1      15.980   8.049  20.788  0.00  0.00    +0.216 C 
ATOM     35  H   UNL     1      14.476   9.222  21.611  0.00  0.00    +0.149 HD
BRANCH   9  18
ATOM     18  C   UNL     1      16.222  10.425  21.492  0.00  0.00    +0.139 C 
BRANCH  18  20
ATOM     20  C   UNL     1      15.567  11.381  22.447  0.00  0.00    -0.030 A 
ATOM     23  C   UNL     1      14.957  10.903  23.606  0.00  0.00    +0.009 A 
ATOM     24  C   UNL     1      15.570  12.749  22.174  0.00  0.00    +0.009 A 
ATOM     27  C   UNL     1      14.349  11.791  24.493  0.00  0.00    +0.046 A 
ATOM     28  C   UNL     1      14.962  13.638  23.061  0.00  0.00    +0.046 A 
ATOM     29  C   UNL     1      14.352  13.159  24.220  0.00  0.00    +0.120 A 
BRANCH  29   7
ATOM      7  O   UNL     1      13.759  14.026  25.086  0.00  0.00    -0.495 OA
ATOM     31  C   UNL     1      12.968  13.461  26.130  0.00  0.00    +0.277 C 
ENDBRANCH  29   7
ENDBRANCH  18  20
ENDBRANCH   9  18
ENDBRANCH  14  16
ENDBRANCH  12  14
BRANCH  13  15
ATOM     15  C   UNL     1      13.616  10.076  18.323  0.00  0.00    +0.138 C 
BRANCH  15   8
ATOM      6  O   UNL     1      13.038  12.576  19.612  0.00  0.00    -0.270 OA
ATOM      8  N   UNL     1      12.904  10.263  19.579  0.00  0.00    -0.309 N 
ATOM     17  C   UNL     1      12.678  11.515  20.115  0.00  0.00    +0.244 C 
ATOM     34  H   UNL     1      12.635   9.421  20.076  0.00  0.00    +0.149 HD
BRANCH  17  19
ATOM      1  F   UNL     1      10.425  13.923  23.688  0.00  0.00    -0.205 F 
ATOM     19  C   UNL     1      11.962  11.534  21.415  0.00  0.00    +0.039 A 
ATOM     21  C   UNL     1      11.521  12.744  21.952  0.00  0.00    +0.051 A 
ATOM     22  C   UNL     1      11.730  10.341  22.101  0.00  0.00    +0.013 A 
ATOM     25  C   UNL     1      10.848  12.761  23.174  0.00  0.00    +0.124 A 
ATOM     26  C   UNL     1      11.057  10.358  23.323  0.00  0.00    +0.004 A 
ATOM     30  C   UNL     1      10.617  11.568  23.860  0.00  0.00    +0.038 A 
ENDBRANCH  17  19
ENDBRANCH  15   8
ENDBRANCH  13  15
TORSDOF 10
ENDMDL
