MODEL 1
REMARK VINA RESULT:      -6.1      0.000      0.000
REMARK  Name = 75536945
REMARK  4 active torsions:
REMARK  status: ('A' for Active; 'I' for Inactive)
REMARK    1  A    between atoms: O_5  and  C_11
REMARK    2  A    between atoms: O_5  and  C_17
REMARK    3  A    between atoms: C_16  and  C_18
REMARK    4  A    between atoms: C_23  and  C_25
REMARK                            x       y       z     vdW  Elec       q    Type
REMARK                         _______ _______ _______ _____ _____    ______ ____
ROOT
ATOM      4  O   UNL     1       9.261   4.665  -2.037  0.00  0.00    -0.375 OA
ATOM      6  O   UNL     1      12.876   2.771  -2.712  0.00  0.00    -0.270 OA
ATOM      7  N   UNL     1      12.079   4.915  -2.225  0.00  0.00    -0.292 N 
ATOM     11  C   UNL     1      10.585   6.084  -0.592  0.00  0.00    +0.218 C 
ATOM     12  C   UNL     1      11.940   6.049  -1.307  0.00  0.00    +0.155 C 
ATOM     13  C   UNL     1      11.292   5.002  -3.451  0.00  0.00    +0.136 C 
ATOM     14  C   UNL     1       9.385   5.988  -1.534  0.00  0.00    +0.206 C 
ATOM     15  C   UNL     1       9.896   4.408  -3.285  0.00  0.00    +0.179 C 
ATOM     16  C   UNL     1      12.820   3.757  -1.977  0.00  0.00    +0.250 C 
ENDROOT
BRANCH  16  18
ATOM      9  N   UNL     1      13.742   3.133   1.603  0.00  0.00    -0.243 NA
ATOM     10  N   UNL     1      15.653   4.054   0.460  0.00  0.00    -0.243 NA
ATOM     18  C   UNL     1      13.595   3.689  -0.735  0.00  0.00    +0.073 A 
ATOM     20  C   UNL     1      13.057   3.209   0.442  0.00  0.00    +0.127 A 
ATOM     21  C   UNL     1      14.910   4.101  -0.666  0.00  0.00    +0.127 A 
ATOM     26  C   UNL     1      15.015   3.566   1.540  0.00  0.00    +0.221 A 
ENDBRANCH  16  18
BRANCH  11   5
ATOM      5  O   UNL     1      10.485   7.309   0.129  0.00  0.00    -0.469 OA
BRANCH   5  17
ATOM      8  N   UNL     1      10.444   6.221   2.177  0.00  0.00    -0.221 NA
ATOM     17  C   UNL     1       9.988   7.230   1.401  0.00  0.00    +0.215 A 
ATOM     19  C   UNL     1       9.060   8.171   1.818  0.00  0.00    +0.068 A 
ATOM     22  C   UNL     1       8.569   8.070   3.116  0.00  0.00    +0.019 A 
ATOM     23  C   UNL     1       9.014   7.045   3.944  0.00  0.00    +0.073 A 
ATOM     24  C   UNL     1       9.944   6.155   3.431  0.00  0.00    +0.127 A 
BRANCH  23  25
ATOM      1  F   UNL     1       9.477   6.581   6.244  0.00  0.00    -0.166 F 
ATOM      2  F   UNL     1       7.935   8.049   5.828  0.00  0.00    -0.166 F 
ATOM      3  F   UNL     1       7.553   5.940   5.459  0.00  0.00    -0.166 F 
ATOM     25  C   UNL     1       8.509   6.909   5.336  0.00  0.00    +0.419 C 
ENDBRANCH  23  25
ENDBRANCH   5  17
ENDBRANCH  11   5
TORSDOF 4
ENDMDL
MODEL 2
REMARK VINA RESULT:      -6.1     26.388     29.254
REMARK  Name = 75536945
REMARK  4 active torsions:
REMARK  status: ('A' for Active; 'I' for Inactive)
REMARK    1  A    between atoms: O_5  and  C_11
REMARK    2  A    between atoms: O_5  and  C_17
REMARK    3  A    between atoms: C_16  and  C_18
REMARK    4  A    between atoms: C_23  and  C_25
REMARK                            x       y       z     vdW  Elec       q    Type
REMARK                         _______ _______ _______ _____ _____    ______ ____
ROOT
ATOM      4  O   UNL     1      -7.095 -13.263  17.842  0.00  0.00    -0.375 OA
ATOM      6  O   UNL     1     -10.736 -11.370  18.352  0.00  0.00    -0.270 OA
ATOM      7  N   UNL     1      -8.467 -10.942  18.718  0.00  0.00    -0.292 N 
ATOM     11  C   UNL     1      -6.279 -11.010  17.503  0.00  0.00    +0.218 C 
ATOM     12  C   UNL     1      -7.235 -10.214  18.398  0.00  0.00    +0.155 C 
ATOM     13  C   UNL     1      -8.313 -12.051  19.654  0.00  0.00    +0.136 C 
ATOM     14  C   UNL     1      -5.969 -12.414  18.023  0.00  0.00    +0.206 C 
ATOM     15  C   UNL     1      -7.987 -13.363  18.946  0.00  0.00    +0.179 C 
ATOM     16  C   UNL     1      -9.719 -10.710  18.142  0.00  0.00    +0.250 C 
ENDROOT
BRANCH  16  18
ATOM      9  N   UNL     1      -9.668  -8.731  14.958  0.00  0.00    -0.243 NA
ATOM     10  N   UNL     1     -10.385  -7.292  16.754  0.00  0.00    -0.243 NA
ATOM     18  C   UNL     1      -9.846  -9.596  17.198  0.00  0.00    +0.073 A 
ATOM     20  C   UNL     1      -9.562  -9.735  15.854  0.00  0.00    +0.127 A 
ATOM     21  C   UNL     1     -10.257  -8.340  17.595  0.00  0.00    +0.127 A 
ATOM     26  C   UNL     1     -10.079  -7.555  15.470  0.00  0.00    +0.221 A 
ENDBRANCH  16  18
BRANCH  11   5
ATOM      5  O   UNL     1      -5.051 -10.294  17.404  0.00  0.00    -0.469 OA
BRANCH   5  17
ATOM      8  N   UNL     1      -5.047 -10.379  15.086  0.00  0.00    -0.221 NA
ATOM     17  C   UNL     1      -4.347 -10.448  16.241  0.00  0.00    +0.215 A 
ATOM     19  C   UNL     1      -2.980 -10.663  16.307  0.00  0.00    +0.068 A 
ATOM     22  C   UNL     1      -2.286 -10.817  15.111  0.00  0.00    +0.019 A 
ATOM     23  C   UNL     1      -2.972 -10.752  13.903  0.00  0.00    +0.073 A 
ATOM     24  C   UNL     1      -4.339 -10.534  13.945  0.00  0.00    +0.127 A 
BRANCH  23  25
ATOM      1  F   UNL     1      -1.462 -12.021  12.549  0.00  0.00    -0.166 F 
ATOM      2  F   UNL     1      -3.094 -11.021  11.529  0.00  0.00    -0.166 F 
ATOM      3  F   UNL     1      -1.436  -9.858  12.324  0.00  0.00    -0.166 F 
ATOM     25  C   UNL     1      -2.260 -10.912  12.608  0.00  0.00    +0.419 C 
ENDBRANCH  23  25
ENDBRANCH   5  17
ENDBRANCH  11   5
TORSDOF 4
ENDMDL
MODEL 3
REMARK VINA RESULT:      -5.8     28.167     31.052
REMARK  Name = 75536945
REMARK  4 active torsions:
REMARK  status: ('A' for Active; 'I' for Inactive)
REMARK    1  A    between atoms: O_5  and  C_11
REMARK    2  A    between atoms: O_5  and  C_17
REMARK    3  A    between atoms: C_16  and  C_18
REMARK    4  A    between atoms: C_23  and  C_25
REMARK                            x       y       z     vdW  Elec       q    Type
REMARK                         _______ _______ _______ _____ _____    ______ ____
ROOT
ATOM      4  O   UNL     1      -9.645 -13.732  19.346  0.00  0.00    -0.375 OA
ATOM      6  O   UNL     1     -12.682 -11.249  18.036  0.00  0.00    -0.270 OA
ATOM      7  N   UNL     1     -10.782 -11.135  19.394  0.00  0.00    -0.292 N 
ATOM     11  C   UNL     1      -8.342 -11.692  19.334  0.00  0.00    +0.218 C 
ATOM     12  C   UNL     1      -9.421 -10.653  19.652  0.00  0.00    +0.155 C 
ATOM     13  C   UNL     1     -11.283 -12.129  20.338  0.00  0.00    +0.136 C 
ATOM     14  C   UNL     1      -8.578 -13.052  19.994  0.00  0.00    +0.206 C 
ATOM     15  C   UNL     1     -10.937 -13.554  19.914  0.00  0.00    +0.179 C 
ATOM     16  C   UNL     1     -11.571 -10.786  18.295  0.00  0.00    +0.250 C 
ENDROOT
BRANCH  16  18
ATOM      9  N   UNL     1     -10.866  -7.507  16.620  0.00  0.00    -0.243 NA
ATOM     10  N   UNL     1      -9.717  -9.252  15.420  0.00  0.00    -0.243 NA
ATOM     18  C   UNL     1     -11.043  -9.792  17.356  0.00  0.00    +0.073 A 
ATOM     20  C   UNL     1     -11.335  -8.448  17.467  0.00  0.00    +0.127 A 
ATOM     21  C   UNL     1     -10.222 -10.140  16.304  0.00  0.00    +0.127 A 
ATOM     26  C   UNL     1     -10.075  -7.973  15.635  0.00  0.00    +0.221 A 
ENDBRANCH  16  18
BRANCH  11   5
ATOM      5  O   UNL     1      -7.086 -11.194  19.786  0.00  0.00    -0.469 OA
BRANCH   5  17
ATOM      8  N   UNL     1      -6.359 -10.452  17.713  0.00  0.00    -0.221 NA
ATOM     17  C   UNL     1      -6.086 -11.122  18.855  0.00  0.00    +0.215 A 
ATOM     19  C   UNL     1      -4.871 -11.728  19.127  0.00  0.00    +0.068 A 
ATOM     22  C   UNL     1      -3.870 -11.642  18.164  0.00  0.00    +0.019 A 
ATOM     23  C   UNL     1      -4.113 -10.961  16.976  0.00  0.00    +0.073 A 
ATOM     24  C   UNL     1      -5.363 -10.389  16.801  0.00  0.00    +0.127 A 
BRANCH  23  25
ATOM      1  F   UNL     1      -2.591 -12.055  15.491  0.00  0.00    -0.166 F 
ATOM      2  F   UNL     1      -3.483 -10.204  14.796  0.00  0.00    -0.166 F 
ATOM      3  F   UNL     1      -1.964 -10.160  16.353  0.00  0.00    -0.166 F 
ATOM     25  C   UNL     1      -3.065 -10.850  15.928  0.00  0.00    +0.419 C 
ENDBRANCH  23  25
ENDBRANCH   5  17
ENDBRANCH  11   5
TORSDOF 4
ENDMDL
MODEL 4
REMARK VINA RESULT:      -5.8     27.196     29.587
REMARK  Name = 75536945
REMARK  4 active torsions:
REMARK  status: ('A' for Active; 'I' for Inactive)
REMARK    1  A    between atoms: O_5  and  C_11
REMARK    2  A    between atoms: O_5  and  C_17
REMARK    3  A    between atoms: C_16  and  C_18
REMARK    4  A    between atoms: C_23  and  C_25
REMARK                            x       y       z     vdW  Elec       q    Type
REMARK                         _______ _______ _______ _____ _____    ______ ____
ROOT
ATOM      4  O   UNL     1     -11.438  11.775  18.672  0.00  0.00    -0.375 OA
ATOM      6  O   UNL     1     -11.297  11.730  14.539  0.00  0.00    -0.270 OA
ATOM      7  N   UNL     1     -10.388  10.550  16.341  0.00  0.00    -0.292 N 
ATOM     11  C   UNL     1     -11.112   9.389  18.437  0.00  0.00    +0.218 C 
ATOM     12  C   UNL     1     -10.284   9.331  17.149  0.00  0.00    +0.155 C 
ATOM     13  C   UNL     1      -9.700  11.719  16.880  0.00  0.00    +0.136 C 
ATOM     14  C   UNL     1     -10.852  10.635  19.285  0.00  0.00    +0.206 C 
ATOM     15  C   UNL     1     -10.589  12.532  17.816  0.00  0.00    +0.179 C 
ATOM     16  C   UNL     1     -11.146  10.688  15.175  0.00  0.00    +0.250 C 
ENDROOT
BRANCH  16  18
ATOM      9  N   UNL     1     -11.814   7.488  13.340  0.00  0.00    -0.243 NA
ATOM     10  N   UNL     1     -13.818   8.144  14.506  0.00  0.00    -0.243 NA
ATOM     18  C   UNL     1     -11.836   9.502  14.658  0.00  0.00    +0.073 A 
ATOM     20  C   UNL     1     -11.210   8.589  13.834  0.00  0.00    +0.127 A 
ATOM     21  C   UNL     1     -13.152   9.226  14.964  0.00  0.00    +0.127 A 
ATOM     26  C   UNL     1     -13.099   7.330  13.711  0.00  0.00    +0.221 A 
ENDBRANCH  16  18
BRANCH  11   5
ATOM      5  O   UNL     1     -10.800   8.245  19.227  0.00  0.00    -0.469 OA
BRANCH   5  17
ATOM      8  N   UNL     1     -13.092   7.949  19.422  0.00  0.00    -0.221 NA
ATOM     17  C   UNL     1     -11.851   7.629  19.852  0.00  0.00    +0.215 A 
ATOM     19  C   UNL     1     -11.591   6.729  20.872  0.00  0.00    +0.068 A 
ATOM     22  C   UNL     1     -12.675   6.117  21.492  0.00  0.00    +0.019 A 
ATOM     23  C   UNL     1     -13.968   6.420  21.078  0.00  0.00    +0.073 A 
ATOM     24  C   UNL     1     -14.121   7.334  20.048  0.00  0.00    +0.127 A 
BRANCH  23  25
ATOM      1  F   UNL     1     -15.841   6.616  22.552  0.00  0.00    -0.166 F 
ATOM      2  F   UNL     1     -16.078   5.321  20.828  0.00  0.00    -0.166 F 
ATOM      3  F   UNL     1     -14.813   4.701  22.486  0.00  0.00    -0.166 F 
ATOM     25  C   UNL     1     -15.148   5.782  21.719  0.00  0.00    +0.419 C 
ENDBRANCH  23  25
ENDBRANCH   5  17
ENDBRANCH  11   5
TORSDOF 4
ENDMDL
MODEL 5
REMARK VINA RESULT:      -5.8      4.736      7.623
REMARK  Name = 75536945
REMARK  4 active torsions:
REMARK  status: ('A' for Active; 'I' for Inactive)
REMARK    1  A    between atoms: O_5  and  C_11
REMARK    2  A    between atoms: O_5  and  C_17
REMARK    3  A    between atoms: C_16  and  C_18
REMARK    4  A    between atoms: C_23  and  C_25
REMARK                            x       y       z     vdW  Elec       q    Type
REMARK                         _______ _______ _______ _____ _____    ______ ____
ROOT
ATOM      4  O   UNL     1       8.457   8.114   5.091  0.00  0.00    -0.375 OA
ATOM      6  O   UNL     1      11.560   9.401   7.505  0.00  0.00    -0.270 OA
ATOM      7  N   UNL     1      10.709   7.395   6.657  0.00  0.00    -0.292 N 
ATOM     11  C   UNL     1      10.019   6.369   4.480  0.00  0.00    +0.218 C 
ATOM     12  C   UNL     1      10.824   6.228   5.776  0.00  0.00    +0.155 C 
ATOM     13  C   UNL     1       9.421   7.551   7.325  0.00  0.00    +0.136 C 
ATOM     14  C   UNL     1       8.555   6.752   4.699  0.00  0.00    +0.206 C 
ATOM     15  C   UNL     1       8.432   8.362   6.492  0.00  0.00    +0.179 C 
ATOM     16  C   UNL     1      11.684   8.382   6.827  0.00  0.00    +0.250 C 
ENDROOT
BRANCH  16  18
ATOM      9  N   UNL     1      15.223   7.368   6.115  0.00  0.00    -0.243 NA
ATOM     10  N   UNL     1      14.357   8.555   4.204  0.00  0.00    -0.243 NA
ATOM     18  C   UNL     1      12.966   8.208   6.138  0.00  0.00    +0.073 A 
ATOM     20  C   UNL     1      14.029   7.546   6.720  0.00  0.00    +0.127 A 
ATOM     21  C   UNL     1      13.190   8.696   4.867  0.00  0.00    +0.127 A 
ATOM     26  C   UNL     1      15.315   7.891   4.877  0.00  0.00    +0.221 A 
ENDBRANCH  16  18
BRANCH  11   5
ATOM      5  O   UNL     1      10.052   5.123   3.789  0.00  0.00    -0.469 OA
BRANCH   5  17
ATOM      8  N   UNL     1      12.020   5.895   2.835  0.00  0.00    -0.221 NA
ATOM     17  C   UNL     1      11.176   4.862   3.054  0.00  0.00    +0.215 A 
ATOM     19  C   UNL     1      11.386   3.576   2.584  0.00  0.00    +0.068 A 
ATOM     22  C   UNL     1      12.536   3.334   1.839  0.00  0.00    +0.019 A 
ATOM     23  C   UNL     1      13.427   4.372   1.592  0.00  0.00    +0.073 A 
ATOM     24  C   UNL     1      13.126   5.622   2.107  0.00  0.00    +0.127 A 
BRANCH  23  25
ATOM      1  F   UNL     1      15.371   5.290   0.541  0.00  0.00    -0.166 F 
ATOM      2  F   UNL     1      15.562   3.309   1.403  0.00  0.00    -0.166 F 
ATOM      3  F   UNL     1      14.416   3.591  -0.424  0.00  0.00    -0.166 F 
ATOM     25  C   UNL     1      14.665   4.147   0.800  0.00  0.00    +0.419 C 
ENDBRANCH  23  25
ENDBRANCH   5  17
ENDBRANCH  11   5
TORSDOF 4
ENDMDL
MODEL 6
REMARK VINA RESULT:      -5.8     24.655     27.062
REMARK  Name = 75536945
REMARK  4 active torsions:
REMARK  status: ('A' for Active; 'I' for Inactive)
REMARK    1  A    between atoms: O_5  and  C_11
REMARK    2  A    between atoms: O_5  and  C_17
REMARK    3  A    between atoms: C_16  and  C_18
REMARK    4  A    between atoms: C_23  and  C_25
REMARK                            x       y       z     vdW  Elec       q    Type
REMARK                         _______ _______ _______ _____ _____    ______ ____
ROOT
ATOM      4  O   UNL     1      -7.486  -9.205  17.461  0.00  0.00    -0.375 OA
ATOM      6  O   UNL     1      -4.586 -11.971  18.484  0.00  0.00    -0.270 OA
ATOM      7  N   UNL     1      -6.208 -11.656  16.830  0.00  0.00    -0.292 N 
ATOM     11  C   UNL     1      -6.981  -9.918  15.204  0.00  0.00    +0.218 C 
ATOM     12  C   UNL     1      -6.580 -11.377  15.440  0.00  0.00    +0.155 C 
ATOM     13  C   UNL     1      -7.315 -11.675  17.782  0.00  0.00    +0.136 C 
ATOM     14  C   UNL     1      -8.049  -9.405  16.171  0.00  0.00    +0.206 C 
ATOM     15  C   UNL     1      -7.597 -10.295  18.368  0.00  0.00    +0.179 C 
ATOM     16  C   UNL     1      -4.904 -11.813  17.306  0.00  0.00    +0.250 C 
ENDROOT
BRANCH  16  18
ATOM      9  N   UNL     1      -2.640 -12.774  14.476  0.00  0.00    -0.243 NA
ATOM     10  N   UNL     1      -1.860 -10.699  15.422  0.00  0.00    -0.243 NA
ATOM     18  C   UNL     1      -3.808 -11.781  16.333  0.00  0.00    +0.073 A 
ATOM     20  C   UNL     1      -3.637 -12.772  15.386  0.00  0.00    +0.127 A 
ATOM     21  C   UNL     1      -2.881 -10.760  16.303  0.00  0.00    +0.127 A 
ATOM     26  C   UNL     1      -1.801 -11.723  14.551  0.00  0.00    +0.221 A 
ENDBRANCH  16  18
BRANCH  11   5
ATOM      5  O   UNL     1      -7.492  -9.797  13.879  0.00  0.00    -0.469 OA
BRANCH   5  17
ATOM      8  N   UNL     1      -6.989  -9.208  11.692  0.00  0.00    -0.221 NA
ATOM     17  C   UNL     1      -6.567  -9.714  12.873  0.00  0.00    +0.215 A 
ATOM     19  C   UNL     1      -5.273 -10.144  13.115  0.00  0.00    +0.068 A 
ATOM     22  C   UNL     1      -4.351 -10.050  12.078  0.00  0.00    +0.019 A 
ATOM     23  C   UNL     1      -4.747  -9.536  10.848  0.00  0.00    +0.073 A 
ATOM     24  C   UNL     1      -6.065  -9.133  10.708  0.00  0.00    +0.127 A 
BRANCH  23  25
ATOM      1  F   UNL     1      -4.086  -8.421   8.837  0.00  0.00    -0.166 F 
ATOM      2  F   UNL     1      -2.500  -9.171  10.112  0.00  0.00    -0.166 F 
ATOM      3  F   UNL     1      -3.718 -10.561   8.966  0.00  0.00    -0.166 F 
ATOM     25  C   UNL     1      -3.786  -9.422   9.719  0.00  0.00    +0.419 C 
ENDBRANCH  23  25
ENDBRANCH   5  17
ENDBRANCH  11   5
TORSDOF 4
ENDMDL
MODEL 7
REMARK VINA RESULT:      -5.8     21.202     22.829
REMARK  Name = 75536945
REMARK  4 active torsions:
REMARK  status: ('A' for Active; 'I' for Inactive)
REMARK    1  A    between atoms: O_5  and  C_11
REMARK    2  A    between atoms: O_5  and  C_17
REMARK    3  A    between atoms: C_16  and  C_18
REMARK    4  A    between atoms: C_23  and  C_25
REMARK                            x       y       z     vdW  Elec       q    Type
REMARK                         _______ _______ _______ _____ _____    ______ ____
ROOT
ATOM      4  O   UNL     1      -2.269 -12.922   0.994  0.00  0.00    -0.375 OA
ATOM      6  O   UNL     1       0.624 -14.695   3.359  0.00  0.00    -0.270 OA
ATOM      7  N   UNL     1      -0.536 -15.133   1.376  0.00  0.00    -0.292 N 
ATOM     11  C   UNL     1      -1.095 -14.038  -0.804  0.00  0.00    +0.218 C 
ATOM     12  C   UNL     1      -0.566 -15.281  -0.082  0.00  0.00    +0.155 C 
ATOM     13  C   UNL     1      -1.839 -15.151   2.034  0.00  0.00    +0.136 C 
ATOM     14  C   UNL     1      -2.440 -13.540  -0.274  0.00  0.00    +0.206 C 
ATOM     15  C   UNL     1      -2.458 -13.759   2.128  0.00  0.00    +0.179 C 
ATOM     16  C   UNL     1       0.607 -14.896   2.145  0.00  0.00    +0.250 C 
ENDROOT
BRANCH  16  18
ATOM      9  N   UNL     1       3.533 -13.713   0.122  0.00  0.00    -0.243 NA
ATOM     10  N   UNL     1       3.958 -15.970   0.853  0.00  0.00    -0.243 NA
ATOM     18  C   UNL     1       1.903 -14.873   1.460  0.00  0.00    +0.073 A 
ATOM     20  C   UNL     1       2.347 -13.768   0.763  0.00  0.00    +0.127 A 
ATOM     21  C   UNL     1       2.758 -15.956   1.471  0.00  0.00    +0.127 A 
ATOM     26  C   UNL     1       4.277 -14.833   0.207  0.00  0.00    +0.221 A 
ENDBRANCH  16  18
BRANCH  11   5
ATOM      5  O   UNL     1      -1.252 -14.349  -2.186  0.00  0.00    -0.469 OA
BRANCH   5  17
ATOM      8  N   UNL     1      -1.003 -13.351  -4.264  0.00  0.00    -0.221 NA
ATOM     17  C   UNL     1      -0.464 -13.654  -3.062  0.00  0.00    +0.215 A 
ATOM     19  C   UNL     1       0.820 -13.305  -2.677  0.00  0.00    +0.068 A 
ATOM     22  C   UNL     1       1.602 -12.599  -3.585  0.00  0.00    +0.019 A 
ATOM     23  C   UNL     1       1.083 -12.269  -4.832  0.00  0.00    +0.073 A 
ATOM     24  C   UNL     1      -0.213 -12.665  -5.120  0.00  0.00    +0.127 A 
BRANCH  23  25
ATOM      1  F   UNL     1       1.241 -11.275  -7.003  0.00  0.00    -0.166 F 
ATOM      2  F   UNL     1       2.294 -10.282  -5.388  0.00  0.00    -0.166 F 
ATOM      3  F   UNL     1       3.043 -12.167  -6.174  0.00  0.00    -0.166 F 
ATOM     25  C   UNL     1       1.893 -11.514  -5.825  0.00  0.00    +0.419 C 
ENDBRANCH  23  25
ENDBRANCH   5  17
ENDBRANCH  11   5
TORSDOF 4
ENDMDL
MODEL 8
REMARK VINA RESULT:      -5.6     17.926     21.099
REMARK  Name = 75536945
REMARK  4 active torsions:
REMARK  status: ('A' for Active; 'I' for Inactive)
REMARK    1  A    between atoms: O_5  and  C_11
REMARK    2  A    between atoms: O_5  and  C_17
REMARK    3  A    between atoms: C_16  and  C_18
REMARK    4  A    between atoms: C_23  and  C_25
REMARK                            x       y       z     vdW  Elec       q    Type
REMARK                         _______ _______ _______ _____ _____    ______ ____
ROOT
ATOM      4  O   UNL     1      13.595   7.791  21.835  0.00  0.00    -0.375 OA
ATOM      6  O   UNL     1      14.803   7.198  17.924  0.00  0.00    -0.270 OA
ATOM      7  N   UNL     1      12.890   7.867  19.090  0.00  0.00    -0.292 N 
ATOM     11  C   UNL     1      12.189   9.499  20.854  0.00  0.00    +0.218 C 
ATOM     12  C   UNL     1      11.920   8.899  19.471  0.00  0.00    +0.155 C 
ATOM     13  C   UNL     1      12.767   6.599  19.802  0.00  0.00    +0.136 C 
ATOM     14  C   UNL     1      12.346   8.456  21.962  0.00  0.00    +0.206 C 
ATOM     15  C   UNL     1      13.586   6.579  21.090  0.00  0.00    +0.179 C 
ATOM     16  C   UNL     1      13.942   8.037  18.186  0.00  0.00    +0.250 C 
ENDROOT
BRANCH  16  18
ATOM      9  N   UNL     1      13.631  10.682  15.547  0.00  0.00    -0.243 NA
ATOM     10  N   UNL     1      14.776  11.617  17.450  0.00  0.00    -0.243 NA
ATOM     18  C   UNL     1      14.050   9.323  17.489  0.00  0.00    +0.073 A 
ATOM     20  C   UNL     1      13.548   9.513  16.217  0.00  0.00    +0.127 A 
ATOM     21  C   UNL     1      14.659  10.420  18.062  0.00  0.00    +0.127 A 
ATOM     26  C   UNL     1      14.248  11.676  16.213  0.00  0.00    +0.221 A 
ENDBRANCH  16  18
BRANCH  11   5
ATOM      5  O   UNL     1      11.098  10.349  21.199  0.00  0.00    -0.469 OA
BRANCH   5  17
ATOM      8  N   UNL     1      10.738  10.833  23.438  0.00  0.00    -0.221 NA
ATOM     17  C   UNL     1      11.293  11.192  22.259  0.00  0.00    +0.215 A 
ATOM     19  C   UNL     1      12.033  12.347  22.069  0.00  0.00    +0.068 A 
ATOM     22  C   UNL     1      12.217  13.189  23.160  0.00  0.00    +0.019 A 
ATOM     23  C   UNL     1      11.662  12.855  24.390  0.00  0.00    +0.073 A 
ATOM     24  C   UNL     1      10.938  11.677  24.476  0.00  0.00    +0.127 A 
BRANCH  23  25
ATOM      1  F   UNL     1      12.776  13.279  26.464  0.00  0.00    -0.166 F 
ATOM      2  F   UNL     1      12.237  15.005  25.267  0.00  0.00    -0.166 F 
ATOM      3  F   UNL     1      10.692  13.878  26.304  0.00  0.00    -0.166 F 
ATOM     25  C   UNL     1      11.841  13.733  25.577  0.00  0.00    +0.419 C 
ENDBRANCH  23  25
ENDBRANCH   5  17
ENDBRANCH  11   5
TORSDOF 4
ENDMDL
MODEL 9
REMARK VINA RESULT:      -5.6     24.876     27.024
REMARK  Name = 75536945
REMARK  4 active torsions:
REMARK  status: ('A' for Active; 'I' for Inactive)
REMARK    1  A    between atoms: O_5  and  C_11
REMARK    2  A    between atoms: O_5  and  C_17
REMARK    3  A    between atoms: C_16  and  C_18
REMARK    4  A    between atoms: C_23  and  C_25
REMARK                            x       y       z     vdW  Elec       q    Type
REMARK                         _______ _______ _______ _____ _____    ______ ____
ROOT
ATOM      4  O   UNL     1      -2.486 -10.295  15.972  0.00  0.00    -0.375 OA
ATOM      6  O   UNL     1      -1.636 -10.848  11.962  0.00  0.00    -0.270 OA
ATOM      7  N   UNL     1      -2.972 -11.808  13.624  0.00  0.00    -0.292 N 
ATOM     11  C   UNL     1      -4.663 -11.149  15.348  0.00  0.00    +0.218 C 
ATOM     12  C   UNL     1      -4.290 -12.092  14.200  0.00  0.00    +0.155 C 
ATOM     13  C   UNL     1      -1.832 -12.172  14.460  0.00  0.00    +0.136 C 
ATOM     14  C   UNL     1      -3.596 -11.050  16.439  0.00  0.00    +0.206 C 
ATOM     15  C   UNL     1      -1.419 -11.041  15.398  0.00  0.00    +0.179 C 
ATOM     16  C   UNL     1      -2.740 -11.156  12.410  0.00  0.00    +0.250 C 
ENDROOT
BRANCH  16  18
ATOM      9  N   UNL     1      -5.630  -9.222  11.009  0.00  0.00    -0.243 NA
ATOM     10  N   UNL     1      -5.473 -11.328   9.849  0.00  0.00    -0.243 NA
ATOM     18  C   UNL     1      -3.901 -10.792  11.592  0.00  0.00    +0.073 A 
ATOM     20  C   UNL     1      -4.559  -9.588  11.744  0.00  0.00    +0.127 A 
ATOM     21  C   UNL     1      -4.407 -11.630  10.620  0.00  0.00    +0.127 A 
ATOM     26  C   UNL     1      -6.027 -10.126  10.094  0.00  0.00    +0.221 A 
ENDBRANCH  16  18
BRANCH  11   5
ATOM      5  O   UNL     1      -5.867 -11.620  15.948  0.00  0.00    -0.469 OA
BRANCH   5  17
ATOM      8  N   UNL     1      -7.639 -10.450  15.016  0.00  0.00    -0.221 NA
ATOM     17  C   UNL     1      -6.872 -10.704  16.100  0.00  0.00    +0.215 A 
ATOM     19  C   UNL     1      -7.047 -10.099  17.334  0.00  0.00    +0.068 A 
ATOM     22  C   UNL     1      -8.076  -9.172  17.464  0.00  0.00    +0.019 A 
ATOM     23  C   UNL     1      -8.885  -8.883  16.371  0.00  0.00    +0.073 A 
ATOM     24  C   UNL     1      -8.628  -9.543  15.180  0.00  0.00    +0.127 A 
BRANCH  23  25
ATOM      1  F   UNL     1     -11.230  -8.428  16.237  0.00  0.00    -0.166 F 
ATOM      2  F   UNL     1     -10.095  -7.310  17.708  0.00  0.00    -0.166 F 
ATOM      3  F   UNL     1      -9.866  -6.862  15.592  0.00  0.00    -0.166 F 
ATOM     25  C   UNL     1      -9.993  -7.897  16.477  0.00  0.00    +0.419 C 
ENDBRANCH  23  25
ENDBRANCH   5  17
ENDBRANCH  11   5
TORSDOF 4
ENDMDL
MODEL 10
REMARK VINA RESULT:      -5.6      4.224      7.954
REMARK  Name = 75536945
REMARK  4 active torsions:
REMARK  status: ('A' for Active; 'I' for Inactive)
REMARK    1  A    between atoms: O_5  and  C_11
REMARK    2  A    between atoms: O_5  and  C_17
REMARK    3  A    between atoms: C_16  and  C_18
REMARK    4  A    between atoms: C_23  and  C_25
REMARK                            x       y       z     vdW  Elec       q    Type
REMARK                         _______ _______ _______ _____ _____    ______ ____
ROOT
ATOM      4  O   UNL     1      10.300  10.794   3.771  0.00  0.00    -0.375 OA
ATOM      6  O   UNL     1       9.580  10.306   7.815  0.00  0.00    -0.270 OA
ATOM      7  N   UNL     1       8.738   9.534   5.775  0.00  0.00    -0.292 N 
ATOM     11  C   UNL     1       9.532   8.503   3.636  0.00  0.00    +0.218 C 
ATOM     12  C   UNL     1       8.536   8.458   4.800  0.00  0.00    +0.155 C 
ATOM     13  C   UNL     1       8.347  10.867   5.326  0.00  0.00    +0.136 C 
ATOM     14  C   UNL     1       9.614   9.864   2.944  0.00  0.00    +0.206 C 
ATOM     15  C   UNL     1       9.486  11.596   4.619  0.00  0.00    +0.179 C 
ATOM     16  C   UNL     1       9.340   9.392   7.028  0.00  0.00    +0.250 C 
ENDROOT
BRANCH  16  18
ATOM      9  N   UNL     1      11.370   6.282   7.544  0.00  0.00    -0.243 NA
ATOM     10  N   UNL     1       9.210   5.976   8.568  0.00  0.00    -0.243 NA
ATOM     18  C   UNL     1       9.732   8.044   7.453  0.00  0.00    +0.073 A 
ATOM     20  C   UNL     1      10.976   7.518   7.169  0.00  0.00    +0.127 A 
ATOM     21  C   UNL     1       8.883   7.221   8.161  0.00  0.00    +0.127 A 
ATOM     26  C   UNL     1      10.451   5.577   8.230  0.00  0.00    +0.221 A 
ENDBRANCH  16  18
BRANCH  11   5
ATOM      5  O   UNL     1       9.138   7.537   2.665  0.00  0.00    -0.469 OA
BRANCH   5  17
ATOM      8  N   UNL     1      11.092   6.401   3.185  0.00  0.00    -0.221 NA
ATOM     17  C   UNL     1      10.077   6.605   2.316  0.00  0.00    +0.215 A 
ATOM     19  C   UNL     1       9.940   5.934   1.112  0.00  0.00    +0.068 A 
ATOM     22  C   UNL     1      10.907   4.992   0.778  0.00  0.00    +0.019 A 
ATOM     23  C   UNL     1      11.967   4.754   1.646  0.00  0.00    +0.073 A 
ATOM     24  C   UNL     1      12.013   5.478   2.826  0.00  0.00    +0.127 A 
BRANCH  23  25
ATOM      1  F   UNL     1      12.798   2.522   1.873  0.00  0.00    -0.166 F 
ATOM      2  F   UNL     1      13.155   3.516  -0.021  0.00  0.00    -0.166 F 
ATOM      3  F   UNL     1      14.258   4.129   1.751  0.00  0.00    -0.166 F 
ATOM     25  C   UNL     1      13.017   3.753   1.319  0.00  0.00    +0.419 C 
ENDBRANCH  23  25
ENDBRANCH   5  17
ENDBRANCH  11   5
TORSDOF 4
ENDMDL
