MODEL 1
REMARK VINA RESULT:      -8.1      0.000      0.000
REMARK  Name = 45783938
REMARK  12 active torsions:
REMARK  status: ('A' for Active; 'I' for Inactive)
REMARK    1  A    between atoms: N_5  and  C_16
REMARK    2  A    between atoms: N_8  and  C_32
REMARK    3  A    between atoms: C_9  and  C_13
REMARK    4  A    between atoms: C_10  and  C_16
REMARK    5  A    between atoms: C_12  and  C_17
REMARK    6  A    between atoms: C_13  and  C_18
REMARK    7  A    between atoms: C_13  and  C_19
REMARK    8  A    between atoms: C_14  and  C_20
REMARK    9  A    between atoms: C_17  and  C_21
REMARK   10  A    between atoms: C_22  and  C_24
REMARK   11  A    between atoms: C_23  and  C_25
REMARK   12  A    between atoms: C_36  and  C_37
REMARK                            x       y       z     vdW  Elec       q    Type
REMARK                         _______ _______ _______ _____ _____    ______ ____
ROOT
ATOM      9  C   UNL     1      -3.411 -12.055  12.524  0.00  0.00    +0.000 C 
ATOM     10  C   UNL     1      -2.243 -11.054  12.336  0.00  0.00    +0.032 C 
ATOM     11  C   UNL     1      -4.046 -12.399  11.169  0.00  0.00    +0.012 C 
ATOM     12  C   UNL     1      -4.585 -11.150  10.445  0.00  0.00    +0.024 C 
ATOM     14  C   UNL     1      -3.579 -10.017  10.454  0.00  0.00    -0.073 C 
ATOM     15  C   UNL     1      -2.532  -9.997  11.296  0.00  0.00    -0.022 C 
ATOM     20  C   UNL     1      -3.780  -8.926   9.438  0.00  0.00    +0.039 C 
ENDROOT
BRANCH   9  13
ATOM     13  C   UNL     1      -2.952 -13.339  13.223  0.00  0.00    -0.013 C 
ATOM     18  C   UNL     1      -2.676 -14.433  12.197  0.00  0.00    +0.007 C 
ATOM     19  C   UNL     1      -3.998 -13.798  14.234  0.00  0.00    +0.007 C 
ENDBRANCH   9  13
BRANCH  10  16
ATOM     16  C   UNL     1      -1.874 -10.379  13.662  0.00  0.00    +0.112 C 
BRANCH  16   5
ATOM      3  O   UNL     1      -1.917 -10.922  16.481  0.00  0.00    -0.270 OA
ATOM      5  N   UNL     1      -3.009 -10.307  14.528  0.00  0.00    -0.311 N 
ATOM     22  C   UNL     1      -2.941 -10.589  15.892  0.00  0.00    +0.244 C 
ATOM     38  H   UNL     1      -3.893 -10.046  14.107  0.00  0.00    +0.149 HD
BRANCH  22  24
ATOM     24  C   UNL     1      -4.216 -10.494  16.650  0.00  0.00    +0.037 A 
ATOM     26  C   UNL     1      -4.293 -10.995  17.949  0.00  0.00    +0.015 A 
ATOM     27  C   UNL     1      -5.334  -9.904  16.061  0.00  0.00    +0.015 A 
ATOM     28  C   UNL     1      -5.489 -10.905  18.661  0.00  0.00    +0.024 A 
ATOM     29  C   UNL     1      -6.530  -9.815  16.773  0.00  0.00    +0.024 A 
ATOM     32  C   UNL     1      -6.608 -10.315  18.073  0.00  0.00    +0.033 A 
BRANCH  32   8
ATOM      4  O   UNL     1      -8.714 -12.397  18.620  0.00  0.00    -0.276 OA
ATOM      8  N   UNL     1      -7.805 -10.227  18.783  0.00  0.00    -0.286 N 
ATOM     36  C   UNL     1      -8.755 -11.234  19.007  0.00  0.00    +0.214 C 
ATOM     37  C   UNL     1      -9.918 -10.732  19.828  0.00  0.00    +0.109 C 
ATOM     39  H   UNL     1      -8.006  -9.313  19.185  0.00  0.00    +0.155 HD
ENDBRANCH  32   8
ENDBRANCH  22  24
ENDBRANCH  16   5
ENDBRANCH  10  16
BRANCH  12  17
ATOM     17  C   UNL     1      -5.923 -10.700  11.041  0.00  0.00    +0.105 C 
BRANCH  17  21
ATOM      2  O   UNL     1      -7.536  -9.051  10.245  0.00  0.00    -0.420 OA
ATOM      6  N   UNL     1      -7.125 -10.702   8.794  0.00  0.00    -0.112 NA
ATOM      7  N   UNL     1      -8.048  -9.849   8.219  0.00  0.00    -0.107 NA
ATOM     21  C   UNL     1      -6.856 -10.198   9.976  0.00  0.00    +0.218 A 
ATOM     23  C   UNL     1      -8.258  -8.899   9.101  0.00  0.00    +0.251 A 
BRANCH  23  25
ATOM      1  F   UNL     1      -7.401  -6.460   8.019  0.00  0.00    -0.205 F 
ATOM     25  C   UNL     1      -9.114  -7.751   9.046  0.00  0.00    +0.074 A 
ATOM     30  C   UNL     1      -8.650  -6.555   8.500  0.00  0.00    +0.136 A 
ATOM     31  C   UNL     1     -10.416  -7.832   9.541  0.00  0.00    +0.016 A 
ATOM     33  C   UNL     1      -9.486  -5.439   8.450  0.00  0.00    +0.039 A 
ATOM     34  C   UNL     1     -11.253  -6.716   9.491  0.00  0.00    +0.001 A 
ATOM     35  C   UNL     1     -10.787  -5.521   8.945  0.00  0.00    +0.003 A 
ENDBRANCH  23  25
ENDBRANCH  17  21
ENDBRANCH  12  17
TORSDOF 8
ENDMDL
MODEL 2
REMARK VINA RESULT:      -7.8      3.516      4.908
REMARK  Name = 45783938
REMARK  12 active torsions:
REMARK  status: ('A' for Active; 'I' for Inactive)
REMARK    1  A    between atoms: N_5  and  C_16
REMARK    2  A    between atoms: N_8  and  C_32
REMARK    3  A    between atoms: C_9  and  C_13
REMARK    4  A    between atoms: C_10  and  C_16
REMARK    5  A    between atoms: C_12  and  C_17
REMARK    6  A    between atoms: C_13  and  C_18
REMARK    7  A    between atoms: C_13  and  C_19
REMARK    8  A    between atoms: C_14  and  C_20
REMARK    9  A    between atoms: C_17  and  C_21
REMARK   10  A    between atoms: C_22  and  C_24
REMARK   11  A    between atoms: C_23  and  C_25
REMARK   12  A    between atoms: C_36  and  C_37
REMARK                            x       y       z     vdW  Elec       q    Type
REMARK                         _______ _______ _______ _____ _____    ______ ____
ROOT
ATOM      9  C   UNL     1      -3.149 -12.198  13.078  0.00  0.00    +0.000 C 
ATOM     10  C   UNL     1      -2.015 -11.143  13.032  0.00  0.00    +0.032 C 
ATOM     11  C   UNL     1      -3.575 -12.588  11.655  0.00  0.00    +0.012 C 
ATOM     12  C   UNL     1      -4.069 -11.376  10.842  0.00  0.00    +0.024 C 
ATOM     14  C   UNL     1      -3.128 -10.194  10.967  0.00  0.00    -0.073 C 
ATOM     15  C   UNL     1      -2.208 -10.113  11.944  0.00  0.00    -0.022 C 
ATOM     20  C   UNL     1      -3.240  -9.127   9.914  0.00  0.00    +0.039 C 
ENDROOT
BRANCH   9  13
ATOM     13  C   UNL     1      -2.730 -13.449  13.855  0.00  0.00    -0.013 C 
ATOM     18  C   UNL     1      -1.291 -13.827  13.520  0.00  0.00    +0.007 C 
ATOM     19  C   UNL     1      -3.676 -14.607  13.552  0.00  0.00    +0.007 C 
ENDBRANCH   9  13
BRANCH  10  16
ATOM     16  C   UNL     1      -1.863 -10.435  14.384  0.00  0.00    +0.112 C 
BRANCH  16   5
ATOM      3  O   UNL     1      -2.493 -11.096  17.106  0.00  0.00    -0.270 OA
ATOM      5  N   UNL     1      -3.132 -10.290  15.026  0.00  0.00    -0.311 N 
ATOM     22  C   UNL     1      -3.352 -10.638  16.358  0.00  0.00    +0.244 C 
ATOM     38  H   UNL     1      -3.893  -9.925  14.465  0.00  0.00    +0.149 HD
BRANCH  22  24
ATOM     24  C   UNL     1      -4.734 -10.452  16.870  0.00  0.00    +0.037 A 
ATOM     26  C   UNL     1      -5.021 -10.705  18.211  0.00  0.00    +0.015 A 
ATOM     27  C   UNL     1      -5.745 -10.024  16.008  0.00  0.00    +0.015 A 
ATOM     28  C   UNL     1      -6.319 -10.529  18.692  0.00  0.00    +0.024 A 
ATOM     29  C   UNL     1      -7.042  -9.849  16.489  0.00  0.00    +0.024 A 
ATOM     32  C   UNL     1      -7.330 -10.101  17.831  0.00  0.00    +0.033 A 
BRANCH  32   8
ATOM      4  O   UNL     1      -8.804 -11.519  20.040  0.00  0.00    -0.276 OA
ATOM      8  N   UNL     1      -8.628  -9.928  18.310  0.00  0.00    -0.286 N 
ATOM     36  C   UNL     1      -9.268 -10.621  19.346  0.00  0.00    +0.214 C 
ATOM     37  C   UNL     1     -10.680 -10.132  19.558  0.00  0.00    +0.109 C 
ATOM     39  H   UNL     1      -9.172  -9.205  17.841  0.00  0.00    +0.155 HD
ENDBRANCH  32   8
ENDBRANCH  22  24
ENDBRANCH  16   5
ENDBRANCH  10  16
BRANCH  12  17
ATOM     17  C   UNL     1      -5.496 -10.986  11.242  0.00  0.00    +0.105 C 
BRANCH  17  21
ATOM      2  O   UNL     1      -6.360 -11.984  13.294  0.00  0.00    -0.420 OA
ATOM      6  N   UNL     1      -6.683 -13.229  11.464  0.00  0.00    -0.112 NA
ATOM      7  N   UNL     1      -7.216 -13.910  12.543  0.00  0.00    -0.107 NA
ATOM     21  C   UNL     1      -6.194 -12.112  11.950  0.00  0.00    +0.218 A 
ATOM     23  C   UNL     1      -7.006 -13.146  13.590  0.00  0.00    +0.251 A 
BRANCH  23  25
ATOM      1  F   UNL     1      -9.613 -12.769  14.547  0.00  0.00    -0.205 F 
ATOM     25  C   UNL     1      -7.344 -13.343  14.969  0.00  0.00    +0.074 A 
ATOM     30  C   UNL     1      -8.654 -13.145  15.406  0.00  0.00    +0.136 A 
ATOM     31  C   UNL     1      -6.359 -13.734  15.875  0.00  0.00    +0.016 A 
ATOM     33  C   UNL     1      -8.978 -13.336  16.749  0.00  0.00    +0.039 A 
ATOM     34  C   UNL     1      -6.683 -13.927  17.219  0.00  0.00    +0.001 A 
ATOM     35  C   UNL     1      -7.992 -13.728  17.655  0.00  0.00    +0.003 A 
ENDBRANCH  23  25
ENDBRANCH  17  21
ENDBRANCH  12  17
TORSDOF 8
ENDMDL
MODEL 3
REMARK VINA RESULT:      -7.7      3.655      7.111
REMARK  Name = 45783938
REMARK  12 active torsions:
REMARK  status: ('A' for Active; 'I' for Inactive)
REMARK    1  A    between atoms: N_5  and  C_16
REMARK    2  A    between atoms: N_8  and  C_32
REMARK    3  A    between atoms: C_9  and  C_13
REMARK    4  A    between atoms: C_10  and  C_16
REMARK    5  A    between atoms: C_12  and  C_17
REMARK    6  A    between atoms: C_13  and  C_18
REMARK    7  A    between atoms: C_13  and  C_19
REMARK    8  A    between atoms: C_14  and  C_20
REMARK    9  A    between atoms: C_17  and  C_21
REMARK   10  A    between atoms: C_22  and  C_24
REMARK   11  A    between atoms: C_23  and  C_25
REMARK   12  A    between atoms: C_36  and  C_37
REMARK                            x       y       z     vdW  Elec       q    Type
REMARK                         _______ _______ _______ _____ _____    ______ ____
ROOT
ATOM      9  C   UNL     1      -6.375 -10.924  16.018  0.00  0.00    +0.000 C 
ATOM     10  C   UNL     1      -6.933 -10.899  17.464  0.00  0.00    +0.032 C 
ATOM     11  C   UNL     1      -5.402 -12.098  15.840  0.00  0.00    +0.012 C 
ATOM     12  C   UNL     1      -4.215 -12.024  16.819  0.00  0.00    +0.024 C 
ATOM     14  C   UNL     1      -4.670 -11.732  18.234  0.00  0.00    -0.073 C 
ATOM     15  C   UNL     1      -5.893 -11.241  18.504  0.00  0.00    -0.022 C 
ATOM     20  C   UNL     1      -3.703 -12.059  19.338  0.00  0.00    +0.039 C 
ENDROOT
BRANCH   9  13
ATOM     13  C   UNL     1      -7.497 -11.017  14.979  0.00  0.00    -0.013 C 
ATOM     18  C   UNL     1      -7.429 -12.350  14.241  0.00  0.00    +0.007 C 
ATOM     19  C   UNL     1      -7.412  -9.852  13.998  0.00  0.00    +0.007 C 
ENDBRANCH   9  13
BRANCH  10  16
ATOM     16  C   UNL     1      -7.555  -9.536  17.793  0.00  0.00    +0.112 C 
BRANCH  16   5
ATOM      3  O   UNL     1     -10.085  -9.103  16.507  0.00  0.00    -0.270 OA
ATOM      5  N   UNL     1      -8.848  -9.698  18.379  0.00  0.00    -0.311 N 
ATOM     22  C   UNL     1     -10.032  -9.465  17.679  0.00  0.00    +0.244 C 
ATOM     38  H   UNL     1      -8.882  -9.987  19.350  0.00  0.00    +0.149 HD
BRANCH  22  24
ATOM     24  C   UNL     1     -11.296  -9.653  18.437  0.00  0.00    +0.037 A 
ATOM     26  C   UNL     1     -12.524  -9.530  17.788  0.00  0.00    +0.015 A 
ATOM     27  C   UNL     1     -11.253  -9.953  19.799  0.00  0.00    +0.015 A 
ATOM     28  C   UNL     1     -13.710  -9.707  18.500  0.00  0.00    +0.024 A 
ATOM     29  C   UNL     1     -12.439 -10.130  20.511  0.00  0.00    +0.024 A 
ATOM     32  C   UNL     1     -13.668 -10.007  19.862  0.00  0.00    +0.033 A 
BRANCH  32   8
ATOM      4  O   UNL     1     -15.434  -7.996  21.241  0.00  0.00    -0.276 OA
ATOM      8  N   UNL     1     -14.854 -10.182  20.575  0.00  0.00    -0.286 N 
ATOM     36  C   UNL     1     -15.639  -9.205  21.202  0.00  0.00    +0.214 C 
ATOM     37  C   UNL     1     -16.851  -9.806  21.871  0.00  0.00    +0.109 C 
ATOM     39  H   UNL     1     -15.182 -11.144  20.643  0.00  0.00    +0.155 HD
ENDBRANCH  32   8
ENDBRANCH  22  24
ENDBRANCH  16   5
ENDBRANCH  10  16
BRANCH  12  17
ATOM     17  C   UNL     1      -3.177 -10.997  16.353  0.00  0.00    +0.105 C 
BRANCH  17  21
ATOM      2  O   UNL     1      -3.582 -10.473  14.004  0.00  0.00    -0.420 OA
ATOM      6  N   UNL     1      -1.918 -11.929  14.344  0.00  0.00    -0.112 NA
ATOM      7  N   UNL     1      -2.036 -11.726  12.982  0.00  0.00    -0.107 NA
ATOM     21  C   UNL     1      -2.840 -11.178  14.901  0.00  0.00    +0.218 A 
ATOM     23  C   UNL     1      -3.019 -10.869  12.829  0.00  0.00    +0.251 A 
BRANCH  23  25
ATOM      1  F   UNL     1      -1.482  -9.350  11.045  0.00  0.00    -0.205 F 
ATOM     25  C   UNL     1      -3.580 -10.297  11.641  0.00  0.00    +0.074 A 
ATOM     30  C   UNL     1      -2.781  -9.547  10.778  0.00  0.00    +0.136 A 
ATOM     31  C   UNL     1      -4.930 -10.492  11.348  0.00  0.00    +0.016 A 
ATOM     33  C   UNL     1      -3.332  -8.991   9.623  0.00  0.00    +0.039 A 
ATOM     34  C   UNL     1      -5.481  -9.937  10.192  0.00  0.00    +0.001 A 
ATOM     35  C   UNL     1      -4.682  -9.187   9.331  0.00  0.00    +0.003 A 
ENDBRANCH  23  25
ENDBRANCH  17  21
ENDBRANCH  12  17
TORSDOF 8
ENDMDL
MODEL 4
REMARK VINA RESULT:      -7.4      2.005      2.564
REMARK  Name = 45783938
REMARK  12 active torsions:
REMARK  status: ('A' for Active; 'I' for Inactive)
REMARK    1  A    between atoms: N_5  and  C_16
REMARK    2  A    between atoms: N_8  and  C_32
REMARK    3  A    between atoms: C_9  and  C_13
REMARK    4  A    between atoms: C_10  and  C_16
REMARK    5  A    between atoms: C_12  and  C_17
REMARK    6  A    between atoms: C_13  and  C_18
REMARK    7  A    between atoms: C_13  and  C_19
REMARK    8  A    between atoms: C_14  and  C_20
REMARK    9  A    between atoms: C_17  and  C_21
REMARK   10  A    between atoms: C_22  and  C_24
REMARK   11  A    between atoms: C_23  and  C_25
REMARK   12  A    between atoms: C_36  and  C_37
REMARK                            x       y       z     vdW  Elec       q    Type
REMARK                         _______ _______ _______ _____ _____    ______ ____
ROOT
ATOM      9  C   UNL     1      -3.288 -12.095  12.582  0.00  0.00    +0.000 C 
ATOM     10  C   UNL     1      -2.129 -11.081  12.416  0.00  0.00    +0.032 C 
ATOM     11  C   UNL     1      -3.911 -12.425  11.218  0.00  0.00    +0.012 C 
ATOM     12  C   UNL     1      -4.457 -11.172  10.508  0.00  0.00    +0.024 C 
ATOM     14  C   UNL     1      -3.462 -10.029  10.539  0.00  0.00    -0.073 C 
ATOM     15  C   UNL     1      -2.421 -10.012  11.389  0.00  0.00    -0.022 C 
ATOM     20  C   UNL     1      -3.667  -8.927   9.537  0.00  0.00    +0.039 C 
ENDROOT
BRANCH   9  13
ATOM     13  C   UNL     1      -2.822 -13.384  13.266  0.00  0.00    -0.013 C 
ATOM     18  C   UNL     1      -2.576 -14.476  12.230  0.00  0.00    +0.007 C 
ATOM     19  C   UNL     1      -3.847 -13.839  14.299  0.00  0.00    +0.007 C 
ENDBRANCH   9  13
BRANCH  10  16
ATOM     16  C   UNL     1      -1.775 -10.420  13.754  0.00  0.00    +0.112 C 
BRANCH  16   5
ATOM      3  O   UNL     1      -1.864 -10.963  16.572  0.00  0.00    -0.270 OA
ATOM      5  N   UNL     1      -2.924 -10.345  14.601  0.00  0.00    -0.311 N 
ATOM     22  C   UNL     1      -2.878 -10.627  15.966  0.00  0.00    +0.244 C 
ATOM     38  H   UNL     1      -3.800 -10.081  14.167  0.00  0.00    +0.149 HD
BRANCH  22  24
ATOM     24  C   UNL     1      -4.164 -10.528  16.704  0.00  0.00    +0.037 A 
ATOM     26  C   UNL     1      -4.259 -11.014  18.008  0.00  0.00    +0.015 A 
ATOM     27  C   UNL     1      -5.276  -9.949  16.092  0.00  0.00    +0.015 A 
ATOM     28  C   UNL     1      -5.466 -10.920  18.701  0.00  0.00    +0.024 A 
ATOM     29  C   UNL     1      -6.483  -9.856  16.784  0.00  0.00    +0.024 A 
ATOM     32  C   UNL     1      -6.579 -10.342  18.089  0.00  0.00    +0.033 A 
BRANCH  32   8
ATOM      4  O   UNL     1      -8.586 -12.468  18.806  0.00  0.00    -0.276 OA
ATOM      8  N   UNL     1      -7.786 -10.250  18.780  0.00  0.00    -0.286 N 
ATOM     36  C   UNL     1      -8.689 -11.278  19.086  0.00  0.00    +0.214 C 
ATOM     37  C   UNL     1      -9.884 -10.764  19.851  0.00  0.00    +0.109 C 
ATOM     39  H   UNL     1      -8.036  -9.315  19.097  0.00  0.00    +0.155 HD
ENDBRANCH  32   8
ENDBRANCH  22  24
ENDBRANCH  16   5
ENDBRANCH  10  16
BRANCH  12  17
ATOM     17  C   UNL     1      -5.804 -10.743  11.101  0.00  0.00    +0.105 C 
BRANCH  17  21
ATOM      2  O   UNL     1      -6.554 -10.373   8.808  0.00  0.00    -0.420 OA
ATOM      6  N   UNL     1      -7.407  -8.935  10.294  0.00  0.00    -0.112 NA
ATOM      7  N   UNL     1      -7.911  -8.611   9.048  0.00  0.00    -0.107 NA
ATOM     21  C   UNL     1      -6.619  -9.968  10.105  0.00  0.00    +0.218 A 
ATOM     23  C   UNL     1      -7.387  -9.477   8.211  0.00  0.00    +0.251 A 
BRANCH  23  25
ATOM      1  F   UNL     1      -8.261 -11.876   7.056  0.00  0.00    -0.205 F 
ATOM     25  C   UNL     1      -7.553  -9.621   6.795  0.00  0.00    +0.074 A 
ATOM     30  C   UNL     1      -7.990 -10.832   6.259  0.00  0.00    +0.136 A 
ATOM     31  C   UNL     1      -7.276  -8.545   5.951  0.00  0.00    +0.016 A 
ATOM     33  C   UNL     1      -8.149 -10.968   4.879  0.00  0.00    +0.039 A 
ATOM     34  C   UNL     1      -7.435  -8.680   4.572  0.00  0.00    +0.001 A 
ATOM     35  C   UNL     1      -7.872  -9.892   4.036  0.00  0.00    +0.003 A 
ENDBRANCH  23  25
ENDBRANCH  17  21
ENDBRANCH  12  17
TORSDOF 8
ENDMDL
MODEL 5
REMARK VINA RESULT:      -7.4     24.558     27.789
REMARK  Name = 45783938
REMARK  12 active torsions:
REMARK  status: ('A' for Active; 'I' for Inactive)
REMARK    1  A    between atoms: N_5  and  C_16
REMARK    2  A    between atoms: N_8  and  C_32
REMARK    3  A    between atoms: C_9  and  C_13
REMARK    4  A    between atoms: C_10  and  C_16
REMARK    5  A    between atoms: C_12  and  C_17
REMARK    6  A    between atoms: C_13  and  C_18
REMARK    7  A    between atoms: C_13  and  C_19
REMARK    8  A    between atoms: C_14  and  C_20
REMARK    9  A    between atoms: C_17  and  C_21
REMARK   10  A    between atoms: C_22  and  C_24
REMARK   11  A    between atoms: C_23  and  C_25
REMARK   12  A    between atoms: C_36  and  C_37
REMARK                            x       y       z     vdW  Elec       q    Type
REMARK                         _______ _______ _______ _____ _____    ______ ____
ROOT
ATOM      9  C   UNL     1       9.208   7.997   5.494  0.00  0.00    +0.000 C 
ATOM     10  C   UNL     1       8.914   8.680   6.854  0.00  0.00    +0.032 C 
ATOM     11  C   UNL     1       8.534   6.619   5.430  0.00  0.00    +0.012 C 
ATOM     12  C   UNL     1       9.009   5.684   6.559  0.00  0.00    +0.024 C 
ATOM     14  C   UNL     1       9.002   6.379   7.905  0.00  0.00    -0.073 C 
ATOM     15  C   UNL     1       8.946   7.718   8.018  0.00  0.00    -0.022 C 
ATOM     20  C   UNL     1       9.015   5.497   9.123  0.00  0.00    +0.039 C 
ENDROOT
BRANCH   9  13
ATOM     13  C   UNL     1       8.745   8.857   4.315  0.00  0.00    -0.013 C 
ATOM     18  C   UNL     1       7.431   9.555   4.648  0.00  0.00    +0.007 C 
ATOM     19  C   UNL     1       8.600   8.003   3.058  0.00  0.00    +0.007 C 
ENDBRANCH   9  13
BRANCH  10  16
ATOM     16  C   UNL     1       9.892   9.832   7.117  0.00  0.00    +0.112 C 
BRANCH  16   5
ATOM      3  O   UNL     1      12.380  10.688   8.264  0.00  0.00    -0.270 OA
ATOM      5  N   UNL     1      11.203   9.500   6.656  0.00  0.00    -0.311 N 
ATOM     22  C   UNL     1      12.364   9.961   7.276  0.00  0.00    +0.244 C 
ATOM     38  H   UNL     1      11.267   8.908   5.835  0.00  0.00    +0.149 HD
BRANCH  22  24
ATOM     24  C   UNL     1      13.651   9.546   6.659  0.00  0.00    +0.037 A 
ATOM     26  C   UNL     1      13.971   8.193   6.557  0.00  0.00    +0.015 A 
ATOM     27  C   UNL     1      14.539  10.512   6.183  0.00  0.00    +0.015 A 
ATOM     28  C   UNL     1      15.179   7.804   5.977  0.00  0.00    +0.024 A 
ATOM     29  C   UNL     1      15.746  10.123   5.604  0.00  0.00    +0.024 A 
ATOM     32  C   UNL     1      16.067   8.769   5.501  0.00  0.00    +0.033 A 
BRANCH  32   8
ATOM      4  O   UNL     1      18.860   8.766   6.627  0.00  0.00    -0.276 OA
ATOM      8  N   UNL     1      17.276   8.381   4.924  0.00  0.00    -0.286 N 
ATOM     36  C   UNL     1      18.555   8.403   5.496  0.00  0.00    +0.214 C 
ATOM     37  C   UNL     1      19.605   7.898   4.537  0.00  0.00    +0.109 C 
ATOM     39  H   UNL     1      17.211   8.042   3.965  0.00  0.00    +0.155 HD
ENDBRANCH  32   8
ENDBRANCH  22  24
ENDBRANCH  16   5
ENDBRANCH  10  16
BRANCH  12  17
ATOM     17  C   UNL     1      10.393   5.103   6.249  0.00  0.00    +0.105 C 
BRANCH  17  21
ATOM      2  O   UNL     1      11.779   6.471   4.779  0.00  0.00    -0.420 OA
ATOM      6  N   UNL     1      10.487   4.994   3.705  0.00  0.00    -0.112 NA
ATOM      7  N   UNL     1      11.211   5.695   2.759  0.00  0.00    -0.107 NA
ATOM     21  C   UNL     1      10.850   5.481   4.870  0.00  0.00    +0.218 A 
ATOM     23  C   UNL     1      11.952   6.546   3.431  0.00  0.00    +0.251 A 
BRANCH  23  25
ATOM      1  F   UNL     1      14.442   5.820   2.368  0.00  0.00    -0.205 F 
ATOM     25  C   UNL     1      12.896   7.523   2.972  0.00  0.00    +0.074 A 
ATOM     30  C   UNL     1      14.124   7.121   2.450  0.00  0.00    +0.136 A 
ATOM     31  C   UNL     1      12.582   8.880   3.050  0.00  0.00    +0.016 A 
ATOM     33  C   UNL     1      15.041   8.075   2.006  0.00  0.00    +0.039 A 
ATOM     34  C   UNL     1      13.498   9.835   2.606  0.00  0.00    +0.001 A 
ATOM     35  C   UNL     1      14.726   9.432   2.084  0.00  0.00    +0.003 A 
ENDBRANCH  23  25
ENDBRANCH  17  21
ENDBRANCH  12  17
TORSDOF 8
ENDMDL
MODEL 6
REMARK VINA RESULT:      -7.4      3.351      5.781
REMARK  Name = 45783938
REMARK  12 active torsions:
REMARK  status: ('A' for Active; 'I' for Inactive)
REMARK    1  A    between atoms: N_5  and  C_16
REMARK    2  A    between atoms: N_8  and  C_32
REMARK    3  A    between atoms: C_9  and  C_13
REMARK    4  A    between atoms: C_10  and  C_16
REMARK    5  A    between atoms: C_12  and  C_17
REMARK    6  A    between atoms: C_13  and  C_18
REMARK    7  A    between atoms: C_13  and  C_19
REMARK    8  A    between atoms: C_14  and  C_20
REMARK    9  A    between atoms: C_17  and  C_21
REMARK   10  A    between atoms: C_22  and  C_24
REMARK   11  A    between atoms: C_23  and  C_25
REMARK   12  A    between atoms: C_36  and  C_37
REMARK                            x       y       z     vdW  Elec       q    Type
REMARK                         _______ _______ _______ _____ _____    ______ ____
ROOT
ATOM      9  C   UNL     1      -5.359 -12.424  16.704  0.00  0.00    +0.000 C 
ATOM     10  C   UNL     1      -4.485 -11.995  17.910  0.00  0.00    +0.032 C 
ATOM     11  C   UNL     1      -4.473 -12.851  15.525  0.00  0.00    +0.012 C 
ATOM     12  C   UNL     1      -3.530 -11.722  15.067  0.00  0.00    +0.024 C 
ATOM     14  C   UNL     1      -2.827 -11.066  16.238  0.00  0.00    -0.073 C 
ATOM     15  C   UNL     1      -3.261 -11.210  17.503  0.00  0.00    -0.022 C 
ATOM     20  C   UNL     1      -1.586 -10.276  15.926  0.00  0.00    +0.039 C 
ENDROOT
BRANCH   9  13
ATOM     13  C   UNL     1      -6.316 -13.561  17.073  0.00  0.00    -0.013 C 
ATOM     18  C   UNL     1      -5.699 -14.911  16.723  0.00  0.00    +0.007 C 
ATOM     19  C   UNL     1      -7.656 -13.380  16.366  0.00  0.00    +0.007 C 
ENDBRANCH   9  13
BRANCH  10  16
ATOM     16  C   UNL     1      -5.300 -11.182  18.923  0.00  0.00    +0.112 C 
BRANCH  16   5
ATOM      3  O   UNL     1      -8.034 -11.217  19.799  0.00  0.00    -0.270 OA
ATOM      5  N   UNL     1      -6.407 -10.543  18.286  0.00  0.00    -0.311 N 
ATOM     22  C   UNL     1      -7.709 -10.611  18.782  0.00  0.00    +0.244 C 
ATOM     38  H   UNL     1      -6.215 -10.029  17.433  0.00  0.00    +0.149 HD
BRANCH  22  24
ATOM     24  C   UNL     1      -8.755  -9.913  17.989  0.00  0.00    +0.037 A 
ATOM     26  C   UNL     1      -8.444  -9.386  16.736  0.00  0.00    +0.015 A 
ATOM     27  C   UNL     1     -10.047  -9.785  18.499  0.00  0.00    +0.015 A 
ATOM     28  C   UNL     1      -9.426  -8.732  15.991  0.00  0.00    +0.024 A 
ATOM     29  C   UNL     1     -11.028  -9.130  17.755  0.00  0.00    +0.024 A 
ATOM     32  C   UNL     1     -10.719  -8.604  16.501  0.00  0.00    +0.033 A 
BRANCH  32   8
ATOM      4  O   UNL     1     -11.274  -5.664  16.161  0.00  0.00    -0.276 OA
ATOM      8  N   UNL     1     -11.700  -7.948  15.758  0.00  0.00    -0.286 N 
ATOM     36  C   UNL     1     -11.916  -6.568  15.637  0.00  0.00    +0.214 C 
ATOM     37  C   UNL     1     -13.086  -6.263  14.735  0.00  0.00    +0.109 C 
ATOM     39  H   UNL     1     -12.335  -8.556  15.245  0.00  0.00    +0.155 HD
ENDBRANCH  32   8
ENDBRANCH  22  24
ENDBRANCH  16   5
ENDBRANCH  10  16
BRANCH  12  17
ATOM     17  C   UNL     1      -4.279 -10.684  14.224  0.00  0.00    +0.105 C 
BRANCH  17  21
ATOM      2  O   UNL     1      -4.483 -10.816  11.796  0.00  0.00    -0.420 OA
ATOM      6  N   UNL     1      -2.454 -10.204  12.512  0.00  0.00    -0.112 NA
ATOM      7  N   UNL     1      -2.427 -10.238  11.130  0.00  0.00    -0.107 NA
ATOM     21  C   UNL     1      -3.673 -10.549  12.856  0.00  0.00    +0.218 A 
ATOM     23  C   UNL     1      -3.632 -10.600  10.755  0.00  0.00    +0.251 A 
BRANCH  23  25
ATOM      1  F   UNL     1      -4.594  -8.469   9.210  0.00  0.00    -0.205 F 
ATOM     25  C   UNL     1      -4.179 -10.798   9.445  0.00  0.00    +0.074 A 
ATOM     30  C   UNL     1      -4.648  -9.711   8.708  0.00  0.00    +0.136 A 
ATOM     31  C   UNL     1      -4.243 -12.084   8.908  0.00  0.00    +0.016 A 
ATOM     33  C   UNL     1      -5.181  -9.910   7.434  0.00  0.00    +0.039 A 
ATOM     34  C   UNL     1      -4.776 -12.283   7.634  0.00  0.00    +0.001 A 
ATOM     35  C   UNL     1      -5.244 -11.195   6.897  0.00  0.00    +0.003 A 
ENDBRANCH  23  25
ENDBRANCH  17  21
ENDBRANCH  12  17
TORSDOF 8
ENDMDL
MODEL 7
REMARK VINA RESULT:      -7.3     23.931     28.512
REMARK  Name = 45783938
REMARK  12 active torsions:
REMARK  status: ('A' for Active; 'I' for Inactive)
REMARK    1  A    between atoms: N_5  and  C_16
REMARK    2  A    between atoms: N_8  and  C_32
REMARK    3  A    between atoms: C_9  and  C_13
REMARK    4  A    between atoms: C_10  and  C_16
REMARK    5  A    between atoms: C_12  and  C_17
REMARK    6  A    between atoms: C_13  and  C_18
REMARK    7  A    between atoms: C_13  and  C_19
REMARK    8  A    between atoms: C_14  and  C_20
REMARK    9  A    between atoms: C_17  and  C_21
REMARK   10  A    between atoms: C_22  and  C_24
REMARK   11  A    between atoms: C_23  and  C_25
REMARK   12  A    between atoms: C_36  and  C_37
REMARK                            x       y       z     vdW  Elec       q    Type
REMARK                         _______ _______ _______ _____ _____    ______ ____
ROOT
ATOM      9  C   UNL     1     -12.465   9.470  31.648  0.00  0.00    +0.000 C 
ATOM     10  C   UNL     1     -11.757  10.154  32.845  0.00  0.00    +0.032 C 
ATOM     11  C   UNL     1     -13.803   8.863  32.094  0.00  0.00    +0.012 C 
ATOM     12  C   UNL     1     -13.626   7.823  33.217  0.00  0.00    +0.024 C 
ATOM     14  C   UNL     1     -12.714   8.330  34.315  0.00  0.00    -0.073 C 
ATOM     15  C   UNL     1     -11.895   9.381  34.135  0.00  0.00    -0.022 C 
ATOM     20  C   UNL     1     -12.798   7.628  35.642  0.00  0.00    +0.039 C 
ENDROOT
BRANCH   9  13
ATOM     13  C   UNL     1     -12.697  10.446  30.492  0.00  0.00    -0.013 C 
ATOM     18  C   UNL     1     -14.152  10.395  30.036  0.00  0.00    +0.007 C 
ATOM     19  C   UNL     1     -11.756  10.132  29.332  0.00  0.00    +0.007 C 
ENDBRANCH   9  13
BRANCH  10  16
ATOM     16  C   UNL     1     -10.270  10.389  32.547  0.00  0.00    +0.112 C 
BRANCH  16   5
ATOM      3  O   UNL     1      -8.106  11.941  33.618  0.00  0.00    -0.270 OA
ATOM      5  N   UNL     1      -9.468  10.064  33.685  0.00  0.00    -0.311 N 
ATOM     22  C   UNL     1      -8.432  10.879  34.139  0.00  0.00    +0.244 C 
ATOM     38  H   UNL     1      -9.676   9.194  34.161  0.00  0.00    +0.149 HD
BRANCH  22  24
ATOM     24  C   UNL     1      -7.675  10.388  35.320  0.00  0.00    +0.037 A 
ATOM     26  C   UNL     1      -8.101   9.244  35.995  0.00  0.00    +0.015 A 
ATOM     27  C   UNL     1      -6.538  11.071  35.752  0.00  0.00    +0.015 A 
ATOM     28  C   UNL     1      -7.389   8.783  37.102  0.00  0.00    +0.024 A 
ATOM     29  C   UNL     1      -5.827  10.610  36.860  0.00  0.00    +0.024 A 
ATOM     32  C   UNL     1      -6.252   9.466  37.535  0.00  0.00    +0.033 A 
BRANCH  32   8
ATOM      4  O   UNL     1      -3.493   8.278  37.735  0.00  0.00    -0.276 OA
ATOM      8  N   UNL     1      -5.542   9.007  38.644  0.00  0.00    -0.286 N 
ATOM     36  C   UNL     1      -4.253   8.457  38.680  0.00  0.00    +0.214 C 
ATOM     37  C   UNL     1      -3.845   8.082  40.084  0.00  0.00    +0.109 C 
ATOM     39  H   UNL     1      -6.031   9.082  39.535  0.00  0.00    +0.155 HD
ENDBRANCH  32   8
ENDBRANCH  22  24
ENDBRANCH  16   5
ENDBRANCH  10  16
BRANCH  12  17
ATOM     17  C   UNL     1     -13.123   6.487  32.659  0.00  0.00    +0.105 C 
BRANCH  17  21
ATOM      2  O   UNL     1     -13.990   4.308  31.985  0.00  0.00    -0.420 OA
ATOM      6  N   UNL     1     -15.299   5.408  33.426  0.00  0.00    -0.112 NA
ATOM      7  N   UNL     1     -15.907   4.202  33.133  0.00  0.00    -0.107 NA
ATOM     21  C   UNL     1     -14.184   5.427  32.733  0.00  0.00    +0.218 A 
ATOM     23  C   UNL     1     -15.108   3.592  32.288  0.00  0.00    +0.251 A 
BRANCH  23  25
ATOM      1  F   UNL     1     -14.343   1.216  33.563  0.00  0.00    -0.205 F 
ATOM     25  C   UNL     1     -15.229   2.315  31.649  0.00  0.00    +0.074 A 
ATOM     30  C   UNL     1     -14.837   1.155  32.318  0.00  0.00    +0.136 A 
ATOM     31  C   UNL     1     -15.739   2.233  30.354  0.00  0.00    +0.016 A 
ATOM     33  C   UNL     1     -14.954  -0.086  31.691  0.00  0.00    +0.039 A 
ATOM     34  C   UNL     1     -15.858   0.992  29.727  0.00  0.00    +0.001 A 
ATOM     35  C   UNL     1     -15.465  -0.166  30.396  0.00  0.00    +0.003 A 
ENDBRANCH  23  25
ENDBRANCH  17  21
ENDBRANCH  12  17
TORSDOF 8
ENDMDL
MODEL 8
REMARK VINA RESULT:      -7.2     19.982     23.588
REMARK  Name = 45783938
REMARK  12 active torsions:
REMARK  status: ('A' for Active; 'I' for Inactive)
REMARK    1  A    between atoms: N_5  and  C_16
REMARK    2  A    between atoms: N_8  and  C_32
REMARK    3  A    between atoms: C_9  and  C_13
REMARK    4  A    between atoms: C_10  and  C_16
REMARK    5  A    between atoms: C_12  and  C_17
REMARK    6  A    between atoms: C_13  and  C_18
REMARK    7  A    between atoms: C_13  and  C_19
REMARK    8  A    between atoms: C_14  and  C_20
REMARK    9  A    between atoms: C_17  and  C_21
REMARK   10  A    between atoms: C_22  and  C_24
REMARK   11  A    between atoms: C_23  and  C_25
REMARK   12  A    between atoms: C_36  and  C_37
REMARK                            x       y       z     vdW  Elec       q    Type
REMARK                         _______ _______ _______ _____ _____    ______ ____
ROOT
ATOM      9  C   UNL     1     -13.410   7.963  20.889  0.00  0.00    +0.000 C 
ATOM     10  C   UNL     1     -13.943   9.298  21.467  0.00  0.00    +0.032 C 
ATOM     11  C   UNL     1     -14.550   6.942  20.760  0.00  0.00    +0.012 C 
ATOM     12  C   UNL     1     -15.228   6.652  22.113  0.00  0.00    +0.024 C 
ATOM     14  C   UNL     1     -15.543   7.927  22.869  0.00  0.00    -0.073 C 
ATOM     15  C   UNL     1     -14.969   9.102  22.558  0.00  0.00    -0.022 C 
ATOM     20  C   UNL     1     -16.570   7.828  23.963  0.00  0.00    +0.039 C 
ENDROOT
BRANCH   9  13
ATOM     13  C   UNL     1     -12.735   8.162  19.529  0.00  0.00    -0.013 C 
ATOM     18  C   UNL     1     -13.747   7.984  18.402  0.00  0.00    +0.007 C 
ATOM     19  C   UNL     1     -11.569   7.192  19.366  0.00  0.00    +0.007 C 
ENDBRANCH   9  13
BRANCH  10  16
ATOM     16  C   UNL     1     -12.796  10.169  21.996  0.00  0.00    +0.112 C 
BRANCH  16   5
ATOM      3  O   UNL     1     -12.119  12.235  23.870  0.00  0.00    -0.270 OA
ATOM      5  N   UNL     1     -12.662  10.026  23.412  0.00  0.00    -0.311 N 
ATOM     22  C   UNL     1     -12.329  11.088  24.252  0.00  0.00    +0.244 C 
ATOM     38  H   UNL     1     -12.813   9.101  23.798  0.00  0.00    +0.149 HD
BRANCH  22  24
ATOM     24  C   UNL     1     -12.203  10.770  25.699  0.00  0.00    +0.037 A 
ATOM     26  C   UNL     1     -10.962  10.424  26.231  0.00  0.00    +0.015 A 
ATOM     27  C   UNL     1     -13.328  10.818  26.523  0.00  0.00    +0.015 A 
ATOM     28  C   UNL     1     -10.844  10.127  27.589  0.00  0.00    +0.024 A 
ATOM     29  C   UNL     1     -13.209  10.521  27.880  0.00  0.00    +0.024 A 
ATOM     32  C   UNL     1     -11.968  10.175  28.414  0.00  0.00    +0.033 A 
BRANCH  32   8
ATOM      4  O   UNL     1     -10.804  11.784  30.677  0.00  0.00    -0.276 OA
ATOM      8  N   UNL     1     -11.850   9.876  29.771  0.00  0.00    -0.286 N 
ATOM     36  C   UNL     1     -11.294  10.665  30.787  0.00  0.00    +0.214 C 
ATOM     37  C   UNL     1     -11.359   9.977  32.128  0.00  0.00    +0.109 C 
ATOM     39  H   UNL     1     -12.216   8.967  30.049  0.00  0.00    +0.155 HD
ENDBRANCH  32   8
ENDBRANCH  22  24
ENDBRANCH  16   5
ENDBRANCH  10  16
BRANCH  12  17
ATOM     17  C   UNL     1     -14.378   5.704  22.966  0.00  0.00    +0.105 C 
BRANCH  17  21
ATOM      2  O   UNL     1     -15.310   4.376  24.789  0.00  0.00    -0.420 OA
ATOM      6  N   UNL     1     -15.794   3.598  22.749  0.00  0.00    -0.112 NA
ATOM      7  N   UNL     1     -16.379   2.757  23.677  0.00  0.00    -0.107 NA
ATOM     21  C   UNL     1     -15.180   4.528  23.443  0.00  0.00    +0.218 A 
ATOM     23  C   UNL     1     -16.071   3.249  24.854  0.00  0.00    +0.251 A 
BRANCH  23  25
ATOM      1  F   UNL     1     -16.534   0.542  25.414  0.00  0.00    -0.205 F 
ATOM     25  C   UNL     1     -16.405   2.793  26.171  0.00  0.00    +0.074 A 
ATOM     30  C   UNL     1     -16.628   1.437  26.409  0.00  0.00    +0.136 A 
ATOM     31  C   UNL     1     -16.508   3.710  27.217  0.00  0.00    +0.016 A 
ATOM     33  C   UNL     1     -16.955   0.998  27.692  0.00  0.00    +0.039 A 
ATOM     34  C   UNL     1     -16.835   3.271  28.501  0.00  0.00    +0.001 A 
ATOM     35  C   UNL     1     -17.058   1.915  28.738  0.00  0.00    +0.003 A 
ENDBRANCH  23  25
ENDBRANCH  17  21
ENDBRANCH  12  17
TORSDOF 8
ENDMDL
MODEL 9
REMARK VINA RESULT:      -7.1      3.540      7.767
REMARK  Name = 45783938
REMARK  12 active torsions:
REMARK  status: ('A' for Active; 'I' for Inactive)
REMARK    1  A    between atoms: N_5  and  C_16
REMARK    2  A    between atoms: N_8  and  C_32
REMARK    3  A    between atoms: C_9  and  C_13
REMARK    4  A    between atoms: C_10  and  C_16
REMARK    5  A    between atoms: C_12  and  C_17
REMARK    6  A    between atoms: C_13  and  C_18
REMARK    7  A    between atoms: C_13  and  C_19
REMARK    8  A    between atoms: C_14  and  C_20
REMARK    9  A    between atoms: C_17  and  C_21
REMARK   10  A    between atoms: C_22  and  C_24
REMARK   11  A    between atoms: C_23  and  C_25
REMARK   12  A    between atoms: C_36  and  C_37
REMARK                            x       y       z     vdW  Elec       q    Type
REMARK                         _______ _______ _______ _____ _____    ______ ____
ROOT
ATOM      9  C   UNL     1      -9.156 -12.246  17.816  0.00  0.00    +0.000 C 
ATOM     10  C   UNL     1      -8.777 -11.821  19.257  0.00  0.00    +0.032 C 
ATOM     11  C   UNL     1      -7.946 -12.873  17.107  0.00  0.00    +0.012 C 
ATOM     12  C   UNL     1      -6.749 -11.906  17.033  0.00  0.00    +0.024 C 
ATOM     14  C   UNL     1      -6.481 -11.239  18.367  0.00  0.00    -0.073 C 
ATOM     15  C   UNL     1      -7.394 -11.222  19.354  0.00  0.00    -0.022 C 
ATOM     20  C   UNL     1      -5.119 -10.629  18.557  0.00  0.00    +0.039 C 
ENDROOT
BRANCH   9  13
ATOM     13  C   UNL     1     -10.331 -13.227  17.803  0.00  0.00    -0.013 C 
ATOM     18  C   UNL     1     -10.024 -14.437  18.678  0.00  0.00    +0.007 C 
ATOM     19  C   UNL     1     -10.648 -13.660  16.374  0.00  0.00    +0.007 C 
ENDBRANCH   9  13
BRANCH  10  16
ATOM     16  C   UNL     1      -9.802 -10.834  19.830  0.00  0.00    +0.112 C 
BRANCH  16   5
ATOM      3  O   UNL     1     -12.331 -10.284  18.587  0.00  0.00    -0.270 OA
ATOM      5  N   UNL     1     -10.083  -9.793  18.892  0.00  0.00    -0.311 N 
ATOM     22  C   UNL     1     -11.346  -9.596  18.335  0.00  0.00    +0.244 C 
ATOM     38  H   UNL     1      -9.312  -9.189  18.629  0.00  0.00    +0.149 HD
BRANCH  22  24
ATOM     24  C   UNL     1     -11.469  -8.486  17.354  0.00  0.00    +0.037 A 
ATOM     26  C   UNL     1     -12.712  -8.176  16.804  0.00  0.00    +0.015 A 
ATOM     27  C   UNL     1     -10.340  -7.754  16.985  0.00  0.00    +0.015 A 
ATOM     28  C   UNL     1     -12.827  -7.133  15.885  0.00  0.00    +0.024 A 
ATOM     29  C   UNL     1     -10.455  -6.712  16.065  0.00  0.00    +0.024 A 
ATOM     32  C   UNL     1     -11.699  -6.401  15.515  0.00  0.00    +0.033 A 
BRANCH  32   8
ATOM      4  O   UNL     1     -12.590  -6.425  12.639  0.00  0.00    -0.276 OA
ATOM      8  N   UNL     1     -11.813  -5.360  14.594  0.00  0.00    -0.286 N 
ATOM     36  C   UNL     1     -12.234  -5.428  13.258  0.00  0.00    +0.214 C 
ATOM     37  C   UNL     1     -12.217  -4.072  12.597  0.00  0.00    +0.109 C 
ATOM     39  H   UNL     1     -11.555  -4.439  14.944  0.00  0.00    +0.155 HD
ENDBRANCH  32   8
ENDBRANCH  22  24
ENDBRANCH  16   5
ENDBRANCH  10  16
BRANCH  12  17
ATOM     17  C   UNL     1      -6.948 -10.863  15.928  0.00  0.00    +0.105 C 
BRANCH  17  21
ATOM      2  O   UNL     1      -5.986 -10.229  13.777  0.00  0.00    -0.420 OA
ATOM      6  N   UNL     1      -4.586 -11.355  15.110  0.00  0.00    -0.112 NA
ATOM      7  N   UNL     1      -3.916 -11.063  13.936  0.00  0.00    -0.107 NA
ATOM     21  C   UNL     1      -5.790 -10.850  14.972  0.00  0.00    +0.218 A 
ATOM     23  C   UNL     1      -4.771 -10.405  13.188  0.00  0.00    +0.251 A 
BRANCH  23  25
ATOM      1  F   UNL     1      -2.799 -11.307  11.412  0.00  0.00    -0.205 F 
ATOM     25  C   UNL     1      -4.625  -9.855  11.872  0.00  0.00    +0.074 A 
ATOM     30  C   UNL     1      -3.631 -10.331  11.018  0.00  0.00    +0.136 A 
ATOM     31  C   UNL     1      -5.481  -8.839  11.447  0.00  0.00    +0.016 A 
ATOM     33  C   UNL     1      -3.491  -9.791   9.740  0.00  0.00    +0.039 A 
ATOM     34  C   UNL     1      -5.343  -8.300  10.168  0.00  0.00    +0.001 A 
ATOM     35  C   UNL     1      -4.348  -8.776   9.315  0.00  0.00    +0.003 A 
ENDBRANCH  23  25
ENDBRANCH  17  21
ENDBRANCH  12  17
TORSDOF 8
ENDMDL
MODEL 10
REMARK VINA RESULT:      -7.1     25.612     29.407
REMARK  Name = 45783938
REMARK  12 active torsions:
REMARK  status: ('A' for Active; 'I' for Inactive)
REMARK    1  A    between atoms: N_5  and  C_16
REMARK    2  A    between atoms: N_8  and  C_32
REMARK    3  A    between atoms: C_9  and  C_13
REMARK    4  A    between atoms: C_10  and  C_16
REMARK    5  A    between atoms: C_12  and  C_17
REMARK    6  A    between atoms: C_13  and  C_18
REMARK    7  A    between atoms: C_13  and  C_19
REMARK    8  A    between atoms: C_14  and  C_20
REMARK    9  A    between atoms: C_17  and  C_21
REMARK   10  A    between atoms: C_22  and  C_24
REMARK   11  A    between atoms: C_23  and  C_25
REMARK   12  A    between atoms: C_36  and  C_37
REMARK                            x       y       z     vdW  Elec       q    Type
REMARK                         _______ _______ _______ _____ _____    ______ ____
ROOT
ATOM      9  C   UNL     1      10.843   6.282   6.183  0.00  0.00    +0.000 C 
ATOM     10  C   UNL     1      10.598   6.357   4.655  0.00  0.00    +0.032 C 
ATOM     11  C   UNL     1      11.237   7.661   6.731  0.00  0.00    +0.012 C 
ATOM     12  C   UNL     1      12.509   8.213   6.059  0.00  0.00    +0.024 C 
ATOM     14  C   UNL     1      12.454   8.074   4.551  0.00  0.00    -0.073 C 
ATOM     15  C   UNL     1      11.585   7.249   3.941  0.00  0.00    -0.022 C 
ATOM     20  C   UNL     1      13.393   8.940   3.757  0.00  0.00    +0.039 C 
ENDROOT
BRANCH   9  13
ATOM     13  C   UNL     1       9.613   5.758   6.930  0.00  0.00    -0.013 C 
ATOM     18  C   UNL     1       8.482   6.780   6.875  0.00  0.00    +0.007 C 
ATOM     19  C   UNL     1       9.970   5.425   8.376  0.00  0.00    +0.007 C 
ENDBRANCH   9  13
BRANCH  10  16
ATOM     16  C   UNL     1      10.621   4.960   4.021  0.00  0.00    +0.112 C 
BRANCH  16   5
ATOM      3  O   UNL     1      10.544   3.945   1.337  0.00  0.00    -0.270 OA
ATOM      5  N   UNL     1      11.728   4.828   3.127  0.00  0.00    -0.311 N 
ATOM     22  C   UNL     1      11.601   4.323   1.833  0.00  0.00    +0.244 C 
ATOM     38  H   UNL     1      12.637   5.113   3.473  0.00  0.00    +0.149 HD
BRANCH  22  24
ATOM     24  C   UNL     1      12.852   4.225   1.037  0.00  0.00    +0.037 A 
ATOM     26  C   UNL     1      14.077   4.052   1.681  0.00  0.00    +0.015 A 
ATOM     27  C   UNL     1      12.800   4.306  -0.355  0.00  0.00    +0.015 A 
ATOM     28  C   UNL     1      15.251   3.959   0.933  0.00  0.00    +0.024 A 
ATOM     29  C   UNL     1      13.974   4.213  -1.102  0.00  0.00    +0.024 A 
ATOM     32  C   UNL     1      15.200   4.040  -0.459  0.00  0.00    +0.033 A 
BRANCH  32   8
ATOM      4  O   UNL     1      17.168   6.168  -1.272  0.00  0.00    -0.276 OA
ATOM      8  N   UNL     1      16.374   3.950  -1.207  0.00  0.00    -0.286 N 
ATOM     36  C   UNL     1      17.257   4.979  -1.560  0.00  0.00    +0.214 C 
ATOM     37  C   UNL     1      18.415   4.466  -2.379  0.00  0.00    +0.109 C 
ATOM     39  H   UNL     1      16.609   3.014  -1.534  0.00  0.00    +0.155 HD
ENDBRANCH  32   8
ENDBRANCH  22  24
ENDBRANCH  16   5
ENDBRANCH  10  16
BRANCH  12  17
ATOM     17  C   UNL     1      13.767   7.547   6.626  0.00  0.00    +0.105 C 
BRANCH  17  21
ATOM      2  O   UNL     1      16.155   7.771   6.172  0.00  0.00    -0.420 OA
ATOM      6  N   UNL     1      15.091   9.717   6.463  0.00  0.00    -0.112 NA
ATOM      7  N   UNL     1      16.423   9.992   6.216  0.00  0.00    -0.107 NA
ATOM     21  C   UNL     1      14.981   8.409   6.428  0.00  0.00    +0.218 A 
ATOM     23  C   UNL     1      17.006   8.827   6.052  0.00  0.00    +0.251 A 
BRANCH  23  25
ATOM      1  F   UNL     1      17.849   8.022   3.503  0.00  0.00    -0.205 F 
ATOM     25  C   UNL     1      18.374   8.502   5.772  0.00  0.00    +0.074 A 
ATOM     30  C   UNL     1      18.753   8.105   4.490  0.00  0.00    +0.136 A 
ATOM     31  C   UNL     1      19.327   8.582   6.787  0.00  0.00    +0.016 A 
ATOM     33  C   UNL     1      20.085   7.788   4.223  0.00  0.00    +0.039 A 
ATOM     34  C   UNL     1      20.660   8.266   6.520  0.00  0.00    +0.001 A 
ATOM     35  C   UNL     1      21.038   7.869   5.238  0.00  0.00    +0.003 A 
ENDBRANCH  23  25
ENDBRANCH  17  21
ENDBRANCH  12  17
TORSDOF 8
ENDMDL
