MODEL 1
REMARK VINA RESULT:      -7.1      0.000      0.000
REMARK  Name = 45361529
REMARK  11 active torsions:
REMARK  status: ('A' for Active; 'I' for Inactive)
REMARK    1  A    between atoms: O_2  and  C_10
REMARK    2  A    between atoms: N_5  and  C_14
REMARK    3  A    between atoms: N_6  and  C_24
REMARK    4  A    between atoms: C_7  and  C_17
REMARK    5  A    between atoms: C_9  and  C_19
REMARK    6  A    between atoms: C_13  and  C_18
REMARK    7  A    between atoms: C_18  and  C_20
REMARK    8  A    between atoms: C_18  and  C_21
REMARK    9  A    between atoms: C_22  and  C_23
REMARK   10  A    between atoms: C_23  and  C_25
REMARK   11  A    between atoms: C_24  and  C_26
REMARK                            x       y       z     vdW  Elec       q    Type
REMARK                         _______ _______ _______ _____ _____    ______ ____
ROOT
ATOM      7  C   UNL     1     -16.766   5.815  22.049  0.00  0.00    -0.027 C 
ATOM      8  C   UNL     1     -15.488   5.405  22.854  0.00  0.00    +0.028 C 
ATOM      9  C   UNL     1     -14.217   5.417  21.931  0.00  0.00    +0.012 C 
ATOM     10  C   UNL     1     -15.723   4.091  23.654  0.00  0.00    +0.122 C 
ATOM     11  C   UNL     1     -17.975   5.904  23.010  0.00  0.00    +0.007 C 
ATOM     12  C   UNL     1     -16.548   7.217  21.436  0.00  0.00    +0.009 C 
ATOM     13  C   UNL     1     -16.993   4.148  24.533  0.00  0.00    +0.029 C 
ATOM     14  C   UNL     1     -14.051   6.809  21.262  0.00  0.00    +0.076 C 
ATOM     15  C   UNL     1     -18.231   4.606  23.764  0.00  0.00    +0.007 C 
ATOM     16  C   UNL     1     -15.313   7.297  20.550  0.00  0.00    +0.023 C 
ATOM     17  C   UNL     1     -17.102   4.810  20.918  0.00  0.00    +0.011 C 
ATOM     19  C   UNL     1     -12.918   5.050  22.668  0.00  0.00    +0.010 C 
ENDROOT
BRANCH  14   5
ATOM      4  O   UNL     1     -12.260   8.997  20.723  0.00  0.00    -0.275 OA
ATOM      5  N   UNL     1     -12.956   6.821  20.314  0.00  0.00    -0.312 N 
ATOM     22  C   UNL     1     -12.146   7.930  20.125  0.00  0.00    +0.218 C 
ATOM     35  H   UNL     1     -12.830   6.000  19.730  0.00  0.00    +0.149 HD
BRANCH  22  23
ATOM     23  C   UNL     1     -11.080   7.664  19.081  0.00  0.00    +0.130 C 
BRANCH  23  25
ATOM     25  C   UNL     1     -11.494   8.064  17.689  0.00  0.00    -0.039 A 
ATOM     27  C   UNL     1     -12.846   8.185  17.373  0.00  0.00    +0.004 A 
ATOM     28  C   UNL     1     -10.524   8.312  16.718  0.00  0.00    +0.004 A 
ATOM     30  C   UNL     1     -13.231   8.555  16.083  0.00  0.00    +0.000 A 
ATOM     31  C   UNL     1     -10.908   8.683  15.429  0.00  0.00    +0.000 A 
ATOM     32  C   UNL     1     -12.261   8.804  15.112  0.00  0.00    +0.000 A 
ENDBRANCH  23  25
ENDBRANCH  22  23
ENDBRANCH  14   5
BRANCH  10   2
ATOM      2  O   UNL     1     -14.624   3.867  24.537  0.00  0.00    -0.391 OA
ATOM     36  H   UNL     1     -14.863   3.143  25.140  0.00  0.00    +0.210 HD
ENDBRANCH  10   2
BRANCH  13  18
ATOM     18  C   UNL     1     -17.278   2.802  25.210  0.00  0.00    +0.077 C 
ATOM     20  C   UNL     1     -18.602   2.233  24.709  0.00  0.00    +0.017 C 
BRANCH  18  21
ATOM      3  O   UNL     1     -18.302   2.846  27.405  0.00  0.00    -0.276 OA
ATOM      6  N   UNL     1     -16.030   3.282  27.231  0.00  0.00    -0.310 N 
ATOM     21  C   UNL     1     -17.284   2.972  26.726  0.00  0.00    +0.216 C 
ATOM     37  H   UNL     1     -15.247   3.392  26.593  0.00  0.00    +0.149 HD
BRANCH   6  24
ATOM     24  C   UNL     1     -15.786   3.492  28.639  0.00  0.00    +0.146 C 
BRANCH  24  26
ATOM      1  S   UNL     1     -13.815   2.406  30.267  0.00  0.00    -0.100 S 
ATOM     26  C   UNL     1     -15.222   2.269  29.301  0.00  0.00    +0.007 A 
ATOM     29  C   UNL     1     -15.688   0.974  29.248  0.00  0.00    +0.013 A 
ATOM     33  C   UNL     1     -14.879   0.082  30.011  0.00  0.00    +0.008 A 
ATOM     34  C   UNL     1     -13.826   0.730  30.618  0.00  0.00    +0.045 A 
ENDBRANCH  24  26
ENDBRANCH   6  24
ENDBRANCH  18  21
ENDBRANCH  13  18
TORSDOF 8
ENDMDL
MODEL 2
REMARK VINA RESULT:      -7.1     19.146     22.073
REMARK  Name = 45361529
REMARK  11 active torsions:
REMARK  status: ('A' for Active; 'I' for Inactive)
REMARK    1  A    between atoms: O_2  and  C_10
REMARK    2  A    between atoms: N_5  and  C_14
REMARK    3  A    between atoms: N_6  and  C_24
REMARK    4  A    between atoms: C_7  and  C_17
REMARK    5  A    between atoms: C_9  and  C_19
REMARK    6  A    between atoms: C_13  and  C_18
REMARK    7  A    between atoms: C_18  and  C_20
REMARK    8  A    between atoms: C_18  and  C_21
REMARK    9  A    between atoms: C_22  and  C_23
REMARK   10  A    between atoms: C_23  and  C_25
REMARK   11  A    between atoms: C_24  and  C_26
REMARK                            x       y       z     vdW  Elec       q    Type
REMARK                         _______ _______ _______ _____ _____    ______ ____
ROOT
ATOM      7  C   UNL     1      -4.168 -10.231  10.334  0.00  0.00    -0.027 C 
ATOM      8  C   UNL     1      -5.356  -9.700  11.204  0.00  0.00    +0.028 C 
ATOM      9  C   UNL     1      -5.430 -10.463  12.575  0.00  0.00    +0.012 C 
ATOM     10  C   UNL     1      -6.680  -9.660  10.388  0.00  0.00    +0.122 C 
ATOM     11  C   UNL     1      -4.054  -9.384   9.045  0.00  0.00    +0.007 C 
ATOM     12  C   UNL     1      -2.851 -10.065  11.124  0.00  0.00    +0.009 C 
ATOM     13  C   UNL     1      -6.531  -8.901   9.049  0.00  0.00    +0.029 C 
ATOM     14  C   UNL     1      -4.075 -10.352  13.327  0.00  0.00    +0.076 C 
ATOM     15  C   UNL     1      -5.336  -9.376   8.223  0.00  0.00    +0.007 C 
ATOM     16  C   UNL     1      -2.873 -10.763  12.477  0.00  0.00    +0.023 C 
ATOM     17  C   UNL     1      -4.343 -11.719   9.938  0.00  0.00    +0.011 C 
ATOM     19  C   UNL     1      -6.560  -9.969  13.494  0.00  0.00    +0.010 C 
ENDROOT
BRANCH  14   5
ATOM      4  O   UNL     1      -2.367  -9.984  15.615  0.00  0.00    -0.275 OA
ATOM      5  N   UNL     1      -4.069 -11.141  14.541  0.00  0.00    -0.312 N 
ATOM     22  C   UNL     1      -3.203 -10.884  15.592  0.00  0.00    +0.218 C 
ATOM     35  H   UNL     1      -4.685 -11.948  14.581  0.00  0.00    +0.149 HD
BRANCH  22  23
ATOM     23  C   UNL     1      -3.417 -11.857  16.735  0.00  0.00    +0.130 C 
BRANCH  23  25
ATOM     25  C   UNL     1      -4.480 -11.412  17.706  0.00  0.00    -0.039 A 
ATOM     27  C   UNL     1      -5.497 -10.558  17.283  0.00  0.00    +0.004 A 
ATOM     28  C   UNL     1      -4.445 -11.855  19.028  0.00  0.00    +0.004 A 
ATOM     30  C   UNL     1      -6.481 -10.145  18.182  0.00  0.00    +0.000 A 
ATOM     31  C   UNL     1      -5.429 -11.443  19.928  0.00  0.00    +0.000 A 
ATOM     32  C   UNL     1      -6.447 -10.589  19.505  0.00  0.00    +0.000 A 
ENDBRANCH  23  25
ENDBRANCH  22  23
ENDBRANCH  14   5
BRANCH  10   2
ATOM      2  O   UNL     1      -7.682  -8.973  11.137  0.00  0.00    -0.391 OA
ATOM     36  H   UNL     1      -7.406  -8.957  12.069  0.00  0.00    +0.210 HD
ENDBRANCH  10   2
BRANCH  13  18
ATOM     18  C   UNL     1      -7.806  -8.985   8.202  0.00  0.00    +0.077 C 
ATOM     20  C   UNL     1      -7.632 -10.018   7.094  0.00  0.00    +0.017 C 
BRANCH  18  21
ATOM      3  O   UNL     1      -7.887  -7.290   6.473  0.00  0.00    -0.276 OA
ATOM      6  N   UNL     1      -8.761  -6.786   8.563  0.00  0.00    -0.310 N 
ATOM     21  C   UNL     1      -8.144  -7.611   7.632  0.00  0.00    +0.216 C 
ATOM     37  H   UNL     1      -8.912  -7.126   9.508  0.00  0.00    +0.149 HD
BRANCH   6  24
ATOM     24  C   UNL     1      -9.174  -5.436   8.257  0.00  0.00    +0.146 C 
BRANCH  24  26
ATOM      1  S   UNL     1     -11.484  -6.243   9.571  0.00  0.00    -0.100 S 
ATOM     26  C   UNL     1     -10.399  -5.036   9.026  0.00  0.00    +0.007 A 
ATOM     29  C   UNL     1     -10.813  -3.771   9.381  0.00  0.00    +0.013 A 
ATOM     33  C   UNL     1     -12.036  -3.793  10.111  0.00  0.00    +0.008 A 
ATOM     34  C   UNL     1     -12.512  -5.074  10.286  0.00  0.00    +0.045 A 
ENDBRANCH  24  26
ENDBRANCH   6  24
ENDBRANCH  18  21
ENDBRANCH  13  18
TORSDOF 8
ENDMDL
MODEL 3
REMARK VINA RESULT:      -7.1      3.261     10.591
REMARK  Name = 45361529
REMARK  11 active torsions:
REMARK  status: ('A' for Active; 'I' for Inactive)
REMARK    1  A    between atoms: O_2  and  C_10
REMARK    2  A    between atoms: N_5  and  C_14
REMARK    3  A    between atoms: N_6  and  C_24
REMARK    4  A    between atoms: C_7  and  C_17
REMARK    5  A    between atoms: C_9  and  C_19
REMARK    6  A    between atoms: C_13  and  C_18
REMARK    7  A    between atoms: C_18  and  C_20
REMARK    8  A    between atoms: C_18  and  C_21
REMARK    9  A    between atoms: C_22  and  C_23
REMARK   10  A    between atoms: C_23  and  C_25
REMARK   11  A    between atoms: C_24  and  C_26
REMARK                            x       y       z     vdW  Elec       q    Type
REMARK                         _______ _______ _______ _____ _____    ______ ____
ROOT
ATOM      7  C   UNL     1     -17.547   4.612  21.710  0.00  0.00    -0.027 C 
ATOM      8  C   UNL     1     -16.250   4.369  22.553  0.00  0.00    +0.028 C 
ATOM      9  C   UNL     1     -16.606   3.830  23.984  0.00  0.00    +0.012 C 
ATOM     10  C   UNL     1     -15.314   5.612  22.519  0.00  0.00    +0.122 C 
ATOM     11  C   UNL     1     -17.157   5.032  20.274  0.00  0.00    +0.007 C 
ATOM     12  C   UNL     1     -18.341   3.290  21.615  0.00  0.00    +0.009 C 
ATOM     13  C   UNL     1     -15.013   6.091  21.080  0.00  0.00    +0.029 C 
ATOM     14  C   UNL     1     -17.469   2.542  23.875  0.00  0.00    +0.076 C 
ATOM     15  C   UNL     1     -16.274   6.272  20.236  0.00  0.00    +0.007 C 
ATOM     16  C   UNL     1     -18.693   2.705  22.975  0.00  0.00    +0.023 C 
ATOM     17  C   UNL     1     -18.454   5.711  22.321  0.00  0.00    +0.011 C 
ATOM     19  C   UNL     1     -15.374   3.541  24.857  0.00  0.00    +0.010 C 
ENDROOT
BRANCH  14   5
ATOM      4  O   UNL     1     -17.209  -0.118  24.945  0.00  0.00    -0.275 OA
ATOM      5  N   UNL     1     -17.913   2.083  25.175  0.00  0.00    -0.312 N 
ATOM     22  C   UNL     1     -17.742   0.775  25.601  0.00  0.00    +0.218 C 
ATOM     35  H   UNL     1     -18.422   2.740  25.758  0.00  0.00    +0.149 HD
BRANCH  22  23
ATOM     23  C   UNL     1     -18.292   0.572  26.999  0.00  0.00    +0.130 C 
BRANCH  23  25
ATOM     25  C   UNL     1     -17.551   1.354  28.052  0.00  0.00    -0.039 A 
ATOM     27  C   UNL     1     -16.247   0.996  28.395  0.00  0.00    +0.004 A 
ATOM     28  C   UNL     1     -18.168   2.433  28.683  0.00  0.00    +0.004 A 
ATOM     30  C   UNL     1     -15.560   1.719  29.371  0.00  0.00    +0.000 A 
ATOM     31  C   UNL     1     -17.482   3.157  29.658  0.00  0.00    +0.000 A 
ATOM     32  C   UNL     1     -16.178   2.800  30.002  0.00  0.00    +0.000 A 
ENDBRANCH  23  25
ENDBRANCH  22  23
ENDBRANCH  14   5
BRANCH  10   2
ATOM      2  O   UNL     1     -14.058   5.279  23.110  0.00  0.00    -0.391 OA
ATOM     36  H   UNL     1     -14.173   5.258  24.074  0.00  0.00    +0.210 HD
ENDBRANCH  10   2
BRANCH  13  18
ATOM     18  C   UNL     1     -14.199   7.390  21.072  0.00  0.00    +0.077 C 
ATOM     20  C   UNL     1     -14.908   8.448  20.232  0.00  0.00    +0.017 C 
BRANCH  18  21
ATOM      3  O   UNL     1     -11.945   6.515  21.208  0.00  0.00    -0.276 OA
ATOM      6  N   UNL     1     -12.588   7.629  19.277  0.00  0.00    -0.310 N 
ATOM     21  C   UNL     1     -12.791   7.119  20.552  0.00  0.00    +0.216 C 
ATOM     37  H   UNL     1     -13.336   8.139  18.818  0.00  0.00    +0.149 HD
BRANCH   6  24
ATOM     24  C   UNL     1     -11.331   7.499  18.576  0.00  0.00    +0.146 C 
BRANCH  24  26
ATOM      1  S   UNL     1     -10.621   9.045  16.381  0.00  0.00    -0.100 S 
ATOM     26  C   UNL     1     -10.834   8.820  18.065  0.00  0.00    +0.007 A 
ATOM     29  C   UNL     1     -10.501   9.947  18.783  0.00  0.00    +0.013 A 
ATOM     33  C   UNL     1     -10.065  11.010  17.940  0.00  0.00    +0.008 A 
ATOM     34  C   UNL     1     -10.082  10.655  16.609  0.00  0.00    +0.045 A 
ENDBRANCH  24  26
ENDBRANCH   6  24
ENDBRANCH  18  21
ENDBRANCH  13  18
TORSDOF 8
ENDMDL
MODEL 4
REMARK VINA RESULT:      -6.9     27.742     31.729
REMARK  Name = 45361529
REMARK  11 active torsions:
REMARK  status: ('A' for Active; 'I' for Inactive)
REMARK    1  A    between atoms: O_2  and  C_10
REMARK    2  A    between atoms: N_5  and  C_14
REMARK    3  A    between atoms: N_6  and  C_24
REMARK    4  A    between atoms: C_7  and  C_17
REMARK    5  A    between atoms: C_9  and  C_19
REMARK    6  A    between atoms: C_13  and  C_18
REMARK    7  A    between atoms: C_18  and  C_20
REMARK    8  A    between atoms: C_18  and  C_21
REMARK    9  A    between atoms: C_22  and  C_23
REMARK   10  A    between atoms: C_23  and  C_25
REMARK   11  A    between atoms: C_24  and  C_26
REMARK                            x       y       z     vdW  Elec       q    Type
REMARK                         _______ _______ _______ _____ _____    ______ ____
ROOT
ATOM      7  C   UNL     1       9.612   6.683   6.310  0.00  0.00    -0.027 C 
ATOM      8  C   UNL     1      10.400   7.507   5.239  0.00  0.00    +0.028 C 
ATOM      9  C   UNL     1      11.464   6.608   4.512  0.00  0.00    +0.012 C 
ATOM     10  C   UNL     1      10.945   8.836   5.838  0.00  0.00    +0.122 C 
ATOM     11  C   UNL     1       8.499   7.565   6.924  0.00  0.00    +0.007 C 
ATOM     12  C   UNL     1       8.931   5.480   5.619  0.00  0.00    +0.009 C 
ATOM     13  C   UNL     1       9.846   9.665   6.543  0.00  0.00    +0.029 C 
ATOM     14  C   UNL     1      10.778   5.363   3.886  0.00  0.00    +0.076 C 
ATOM     15  C   UNL     1       9.034   8.848   7.547  0.00  0.00    +0.007 C 
ATOM     16  C   UNL     1       9.911   4.584   4.875  0.00  0.00    +0.023 C 
ATOM     17  C   UNL     1      10.525   6.167   7.451  0.00  0.00    +0.011 C 
ATOM     19  C   UNL     1      12.257   7.350   3.424  0.00  0.00    +0.010 C 
ENDROOT
BRANCH  14   5
ATOM      4  O   UNL     1      10.584   4.028   1.342  0.00  0.00    -0.275 OA
ATOM      5  N   UNL     1      11.744   4.452   3.308  0.00  0.00    -0.312 N 
ATOM     22  C   UNL     1      11.559   3.857   2.071  0.00  0.00    +0.218 C 
ATOM     35  H   UNL     1      12.552   4.203   3.871  0.00  0.00    +0.149 HD
BRANCH  22  23
ATOM     23  C   UNL     1      12.725   2.958   1.709  0.00  0.00    +0.130 C 
BRANCH  23  25
ATOM     25  C   UNL     1      13.639   3.554   0.670  0.00  0.00    -0.039 A 
ATOM     27  C   UNL     1      13.255   3.564  -0.671  0.00  0.00    +0.004 A 
ATOM     28  C   UNL     1      14.867   4.093   1.049  0.00  0.00    +0.004 A 
ATOM     30  C   UNL     1      14.101   4.115  -1.634  0.00  0.00    +0.000 A 
ATOM     31  C   UNL     1      15.713   4.645   0.086  0.00  0.00    +0.000 A 
ATOM     32  C   UNL     1      15.330   4.656  -1.255  0.00  0.00    +0.000 A 
ENDBRANCH  23  25
ENDBRANCH  22  23
ENDBRANCH  14   5
BRANCH  10   2
ATOM      2  O   UNL     1      11.465   9.655   4.790  0.00  0.00    -0.391 OA
ATOM     36  H   UNL     1      11.117  10.555   4.908  0.00  0.00    +0.210 HD
ENDBRANCH  10   2
BRANCH  13  18
ATOM     18  C   UNL     1      10.425  10.903   7.238  0.00  0.00    +0.077 C 
ATOM     20  C   UNL     1      11.254  10.485   8.448  0.00  0.00    +0.017 C 
BRANCH  18  21
ATOM      3  O   UNL     1       8.546  12.372   6.814  0.00  0.00    -0.276 OA
ATOM      6  N   UNL     1       9.231  12.051   9.007  0.00  0.00    -0.310 N 
ATOM     21  C   UNL     1       9.298  11.851   7.636  0.00  0.00    +0.216 C 
ATOM     37  H   UNL     1       9.911  11.600   9.612  0.00  0.00    +0.149 HD
BRANCH   6  24
ATOM     24  C   UNL     1       8.247  12.911   9.623  0.00  0.00    +0.146 C 
BRANCH  24  26
ATOM      1  S   UNL     1       8.379  14.675  11.765  0.00  0.00    -0.100 S 
ATOM     26  C   UNL     1       8.511  13.108  11.088  0.00  0.00    +0.007 A 
ATOM     29  C   UNL     1       8.865  12.167  12.029  0.00  0.00    +0.013 A 
ATOM     33  C   UNL     1       9.030  12.740  13.323  0.00  0.00    +0.008 A 
ATOM     34  C   UNL     1       8.796  14.097  13.322  0.00  0.00    +0.045 A 
ENDBRANCH  24  26
ENDBRANCH   6  24
ENDBRANCH  18  21
ENDBRANCH  13  18
TORSDOF 8
ENDMDL
MODEL 5
REMARK VINA RESULT:      -6.9     20.028     21.516
REMARK  Name = 45361529
REMARK  11 active torsions:
REMARK  status: ('A' for Active; 'I' for Inactive)
REMARK    1  A    between atoms: O_2  and  C_10
REMARK    2  A    between atoms: N_5  and  C_14
REMARK    3  A    between atoms: N_6  and  C_24
REMARK    4  A    between atoms: C_7  and  C_17
REMARK    5  A    between atoms: C_9  and  C_19
REMARK    6  A    between atoms: C_13  and  C_18
REMARK    7  A    between atoms: C_18  and  C_20
REMARK    8  A    between atoms: C_18  and  C_21
REMARK    9  A    between atoms: C_22  and  C_23
REMARK   10  A    between atoms: C_23  and  C_25
REMARK   11  A    between atoms: C_24  and  C_26
REMARK                            x       y       z     vdW  Elec       q    Type
REMARK                         _______ _______ _______ _____ _____    ______ ____
ROOT
ATOM      7  C   UNL     1      -3.406 -10.706  10.843  0.00  0.00    -0.027 C 
ATOM      8  C   UNL     1      -4.702 -10.366  11.650  0.00  0.00    +0.028 C 
ATOM      9  C   UNL     1      -5.507  -9.210  10.955  0.00  0.00    +0.012 C 
ATOM     10  C   UNL     1      -4.387 -10.148  13.159  0.00  0.00    +0.122 C 
ATOM     11  C   UNL     1      -2.699 -11.921  11.490  0.00  0.00    +0.007 C 
ATOM     12  C   UNL     1      -3.799 -11.104   9.402  0.00  0.00    +0.009 C 
ATOM     13  C   UNL     1      -3.588 -11.320  13.774  0.00  0.00    +0.029 C 
ATOM     14  C   UNL     1      -5.831  -9.589   9.483  0.00  0.00    +0.076 C 
ATOM     15  C   UNL     1      -2.353 -11.695  12.956  0.00  0.00    +0.007 C 
ATOM     16  C   UNL     1      -4.605 -10.030   8.685  0.00  0.00    +0.023 C 
ATOM     17  C   UNL     1      -2.409  -9.520  10.792  0.00  0.00    +0.011 C 
ATOM     19  C   UNL     1      -6.811  -8.843  11.682  0.00  0.00    +0.010 C 
ENDROOT
BRANCH  14   5
ATOM      4  O   UNL     1      -8.305  -9.701   8.016  0.00  0.00    -0.275 OA
ATOM      5  N   UNL     1      -6.471  -8.499   8.777  0.00  0.00    -0.312 N 
ATOM     22  C   UNL     1      -7.667  -8.653   8.096  0.00  0.00    +0.218 C 
ATOM     35  H   UNL     1      -5.979  -7.611   8.737  0.00  0.00    +0.149 HD
BRANCH  22  23
ATOM     23  C   UNL     1      -8.111  -7.353   7.454  0.00  0.00    +0.130 C 
BRANCH  23  25
ATOM     25  C   UNL     1      -8.468  -7.497   5.998  0.00  0.00    -0.039 A 
ATOM     27  C   UNL     1      -9.724  -7.093   5.546  0.00  0.00    +0.004 A 
ATOM     28  C   UNL     1      -7.544  -8.036   5.103  0.00  0.00    +0.004 A 
ATOM     30  C   UNL     1     -10.056  -7.227   4.197  0.00  0.00    +0.000 A 
ATOM     31  C   UNL     1      -7.875  -8.170   3.755  0.00  0.00    +0.000 A 
ATOM     32  C   UNL     1      -9.131  -7.765   3.302  0.00  0.00    +0.000 A 
ENDBRANCH  23  25
ENDBRANCH  22  23
ENDBRANCH  14   5
BRANCH  10   2
ATOM      2  O   UNL     1      -5.608 -10.056  13.893  0.00  0.00    -0.391 OA
ATOM     36  H   UNL     1      -6.309 -10.476  13.368  0.00  0.00    +0.210 HD
ENDBRANCH  10   2
BRANCH  13  18
ATOM     18  C   UNL     1      -3.175 -11.029  15.222  0.00  0.00    +0.077 C 
ATOM     20  C   UNL     1      -1.660 -11.125  15.364  0.00  0.00    +0.017 C 
BRANCH  18  21
ATOM      3  O   UNL     1      -4.434 -13.021  15.783  0.00  0.00    -0.276 OA
ATOM      6  N   UNL     1      -3.838 -11.567  17.490  0.00  0.00    -0.310 N 
ATOM     21  C   UNL     1      -3.885 -11.990  16.170  0.00  0.00    +0.216 C 
ATOM     37  H   UNL     1      -3.384 -10.687  17.717  0.00  0.00    +0.149 HD
BRANCH   6  24
ATOM     24  C   UNL     1      -4.443 -12.311  18.570  0.00  0.00    +0.146 C 
BRANCH  24  26
ATOM      1  S   UNL     1      -7.101 -13.003  18.159  0.00  0.00    -0.100 S 
ATOM     26  C   UNL     1      -5.889 -11.953  18.758  0.00  0.00    +0.007 A 
ATOM     29  C   UNL     1      -6.425 -10.844  19.375  0.00  0.00    +0.013 A 
ATOM     33  C   UNL     1      -7.849 -10.855  19.355  0.00  0.00    +0.008 A 
ATOM     34  C   UNL     1      -8.349 -11.974  18.724  0.00  0.00    +0.045 A 
ENDBRANCH  24  26
ENDBRANCH   6  24
ENDBRANCH  18  21
ENDBRANCH  13  18
TORSDOF 8
ENDMDL
MODEL 6
REMARK VINA RESULT:      -6.8     29.714     33.396
REMARK  Name = 45361529
REMARK  11 active torsions:
REMARK  status: ('A' for Active; 'I' for Inactive)
REMARK    1  A    between atoms: O_2  and  C_10
REMARK    2  A    between atoms: N_5  and  C_14
REMARK    3  A    between atoms: N_6  and  C_24
REMARK    4  A    between atoms: C_7  and  C_17
REMARK    5  A    between atoms: C_9  and  C_19
REMARK    6  A    between atoms: C_13  and  C_18
REMARK    7  A    between atoms: C_18  and  C_20
REMARK    8  A    between atoms: C_18  and  C_21
REMARK    9  A    between atoms: C_22  and  C_23
REMARK   10  A    between atoms: C_23  and  C_25
REMARK   11  A    between atoms: C_24  and  C_26
REMARK                            x       y       z     vdW  Elec       q    Type
REMARK                         _______ _______ _______ _____ _____    ______ ____
ROOT
ATOM      7  C   UNL     1       9.568   6.937   6.742  0.00  0.00    -0.027 C 
ATOM      8  C   UNL     1      10.734   7.598   5.936  0.00  0.00    +0.028 C 
ATOM      9  C   UNL     1      11.588   6.510   5.193  0.00  0.00    +0.012 C 
ATOM     10  C   UNL     1      11.541   8.591   6.822  0.00  0.00    +0.122 C 
ATOM     11  C   UNL     1       8.682   8.040   7.367  0.00  0.00    +0.007 C 
ATOM     12  C   UNL     1       8.686   6.118   5.773  0.00  0.00    +0.009 C 
ATOM     13  C   UNL     1      10.637   9.628   7.528  0.00  0.00    +0.029 C 
ATOM     14  C   UNL     1      10.679   5.644   4.278  0.00  0.00    +0.076 C 
ATOM     15  C   UNL     1       9.461   8.990   8.267  0.00  0.00    +0.007 C 
ATOM     16  C   UNL     1       9.465   5.062   5.003  0.00  0.00    +0.023 C 
ATOM     17  C   UNL     1      10.080   6.010   7.874  0.00  0.00    +0.011 C 
ATOM     19  C   UNL     1      12.737   7.095   4.355  0.00  0.00    +0.010 C 
ENDROOT
BRANCH  14   5
ATOM      4  O   UNL     1      10.377   4.655   1.591  0.00  0.00    -0.275 OA
ATOM      5  N   UNL     1      11.413   4.556   3.666  0.00  0.00    -0.312 N 
ATOM     22  C   UNL     1      11.194   4.152   2.359  0.00  0.00    +0.218 C 
ATOM     35  H   UNL     1      12.064   4.040   4.250  0.00  0.00    +0.149 HD
BRANCH  22  23
ATOM     23  C   UNL     1      12.101   2.999   1.976  0.00  0.00    +0.130 C 
BRANCH  23  25
ATOM     25  C   UNL     1      13.207   3.398   1.034  0.00  0.00    -0.039 A 
ATOM     27  C   UNL     1      12.944   3.543  -0.327  0.00  0.00    +0.004 A 
ATOM     28  C   UNL     1      14.494   3.620   1.524  0.00  0.00    +0.004 A 
ATOM     30  C   UNL     1      13.968   3.912  -1.201  0.00  0.00    +0.000 A 
ATOM     31  C   UNL     1      15.518   3.989   0.652  0.00  0.00    +0.000 A 
ATOM     32  C   UNL     1      15.255   4.135  -0.710  0.00  0.00    +0.000 A 
ENDBRANCH  23  25
ENDBRANCH  22  23
ENDBRANCH  14   5
BRANCH  10   2
ATOM      2  O   UNL     1      12.449   9.330   6.005  0.00  0.00    -0.391 OA
ATOM     36  H   UNL     1      13.132   8.719   5.683  0.00  0.00    +0.210 HD
ENDBRANCH  10   2
BRANCH  13  18
ATOM     18  C   UNL     1      11.432  10.512   8.496  0.00  0.00    +0.077 C 
ATOM     20  C   UNL     1      10.485  11.217   9.461  0.00  0.00    +0.017 C 
BRANCH  18  21
ATOM      3  O   UNL     1      11.786  12.328   6.932  0.00  0.00    -0.276 OA
ATOM      6  N   UNL     1      13.631  11.393   7.984  0.00  0.00    -0.310 N 
ATOM     21  C   UNL     1      12.276  11.513   7.713  0.00  0.00    +0.216 C 
ATOM     37  H   UNL     1      13.950  10.673   8.625  0.00  0.00    +0.149 HD
BRANCH   6  24
ATOM     24  C   UNL     1      14.629  12.231   7.361  0.00  0.00    +0.146 C 
BRANCH  24  26
ATOM      1  S   UNL     1      17.397  12.019   7.283  0.00  0.00    -0.100 S 
ATOM     26  C   UNL     1      15.827  11.443   6.917  0.00  0.00    +0.007 A 
ATOM     29  C   UNL     1      15.862  10.257   6.217  0.00  0.00    +0.013 A 
ATOM     33  C   UNL     1      17.196   9.815   5.979  0.00  0.00    +0.008 A 
ATOM     34  C   UNL     1      18.130  10.681   6.505  0.00  0.00    +0.045 A 
ENDBRANCH  24  26
ENDBRANCH   6  24
ENDBRANCH  18  21
ENDBRANCH  13  18
TORSDOF 8
ENDMDL
MODEL 7
REMARK VINA RESULT:      -6.8     19.179     20.269
REMARK  Name = 45361529
REMARK  11 active torsions:
REMARK  status: ('A' for Active; 'I' for Inactive)
REMARK    1  A    between atoms: O_2  and  C_10
REMARK    2  A    between atoms: N_5  and  C_14
REMARK    3  A    between atoms: N_6  and  C_24
REMARK    4  A    between atoms: C_7  and  C_17
REMARK    5  A    between atoms: C_9  and  C_19
REMARK    6  A    between atoms: C_13  and  C_18
REMARK    7  A    between atoms: C_18  and  C_20
REMARK    8  A    between atoms: C_18  and  C_21
REMARK    9  A    between atoms: C_22  and  C_23
REMARK   10  A    between atoms: C_23  and  C_25
REMARK   11  A    between atoms: C_24  and  C_26
REMARK                            x       y       z     vdW  Elec       q    Type
REMARK                         _______ _______ _______ _____ _____    ______ ____
ROOT
ATOM      7  C   UNL     1      -5.768 -10.817  17.543  0.00  0.00    -0.027 C 
ATOM      8  C   UNL     1      -6.307 -12.227  17.128  0.00  0.00    +0.028 C 
ATOM      9  C   UNL     1      -5.989 -12.526  15.620  0.00  0.00    +0.012 C 
ATOM     10  C   UNL     1      -7.795 -12.408  17.546  0.00  0.00    +0.122 C 
ATOM     11  C   UNL     1      -5.996 -10.603  19.058  0.00  0.00    +0.007 C 
ATOM     12  C   UNL     1      -4.245 -10.764  17.285  0.00  0.00    +0.009 C 
ATOM     13  C   UNL     1      -8.036 -12.089  19.040  0.00  0.00    +0.029 C 
ATOM     14  C   UNL     1      -4.463 -12.396  15.356  0.00  0.00    +0.076 C 
ATOM     15  C   UNL     1      -7.458 -10.740  19.464  0.00  0.00    +0.007 C 
ATOM     16  C   UNL     1      -3.873 -11.072  15.842  0.00  0.00    +0.023 C 
ATOM     17  C   UNL     1      -6.459  -9.667  16.768  0.00  0.00    +0.011 C 
ATOM     19  C   UNL     1      -6.466 -13.911  15.153  0.00  0.00    +0.010 C 
ENDROOT
BRANCH  14   5
ATOM      4  O   UNL     1      -2.156 -13.709  14.242  0.00  0.00    -0.275 OA
ATOM      5  N   UNL     1      -4.147 -12.551  13.951  0.00  0.00    -0.312 N 
ATOM     22  C   UNL     1      -3.005 -13.202  13.512  0.00  0.00    +0.218 C 
ATOM     35  H   UNL     1      -4.763 -12.105  13.278  0.00  0.00    +0.149 HD
BRANCH  22  23
ATOM     23  C   UNL     1      -2.928 -13.224  11.999  0.00  0.00    +0.130 C 
BRANCH  23  25
ATOM     25  C   UNL     1      -2.987 -11.853  11.378  0.00  0.00    -0.039 A 
ATOM     27  C   UNL     1      -3.933 -11.575  10.392  0.00  0.00    +0.004 A 
ATOM     28  C   UNL     1      -2.094 -10.863  11.788  0.00  0.00    +0.004 A 
ATOM     30  C   UNL     1      -3.988 -10.305   9.816  0.00  0.00    +0.000 A 
ATOM     31  C   UNL     1      -2.149  -9.593  11.213  0.00  0.00    +0.000 A 
ATOM     32  C   UNL     1      -3.095  -9.314  10.228  0.00  0.00    +0.000 A 
ENDBRANCH  23  25
ENDBRANCH  22  23
ENDBRANCH  14   5
BRANCH  10   2
ATOM      2  O   UNL     1      -8.185 -13.767  17.351  0.00  0.00    -0.391 OA
ATOM     36  H   UNL     1      -8.889 -13.787  16.681  0.00  0.00    +0.210 HD
ENDBRANCH  10   2
BRANCH  13  18
ATOM     18  C   UNL     1      -9.525 -12.145  19.401  0.00  0.00    +0.077 C 
ATOM     20  C   UNL     1      -9.961 -10.829  20.036  0.00  0.00    +0.017 C 
BRANCH  18  21
ATOM      3  O   UNL     1      -9.089 -14.335  20.341  0.00  0.00    -0.276 OA
ATOM      6  N   UNL     1     -10.899 -13.124  21.141  0.00  0.00    -0.310 N 
ATOM     21  C   UNL     1      -9.792 -13.325  20.331  0.00  0.00    +0.216 C 
ATOM     37  H   UNL     1     -11.438 -12.268  21.048  0.00  0.00    +0.149 HD
BRANCH   6  24
ATOM     24  C   UNL     1     -11.351 -14.103  22.103  0.00  0.00    +0.146 C 
BRANCH  24  26
ATOM      1  S   UNL     1     -13.602 -12.481  22.231  0.00  0.00    -0.100 S 
ATOM     26  C   UNL     1     -12.503 -13.596  22.922  0.00  0.00    +0.007 A 
ATOM     29  C   UNL     1     -12.832 -13.908  24.223  0.00  0.00    +0.013 A 
ATOM     33  C   UNL     1     -14.002 -13.222  24.658  0.00  0.00    +0.008 A 
ATOM     34  C   UNL     1     -14.523 -12.411  23.673  0.00  0.00    +0.045 A 
ENDBRANCH  24  26
ENDBRANCH   6  24
ENDBRANCH  18  21
ENDBRANCH  13  18
TORSDOF 8
ENDMDL
MODEL 8
REMARK VINA RESULT:      -6.8     19.497     21.019
REMARK  Name = 45361529
REMARK  11 active torsions:
REMARK  status: ('A' for Active; 'I' for Inactive)
REMARK    1  A    between atoms: O_2  and  C_10
REMARK    2  A    between atoms: N_5  and  C_14
REMARK    3  A    between atoms: N_6  and  C_24
REMARK    4  A    between atoms: C_7  and  C_17
REMARK    5  A    between atoms: C_9  and  C_19
REMARK    6  A    between atoms: C_13  and  C_18
REMARK    7  A    between atoms: C_18  and  C_20
REMARK    8  A    between atoms: C_18  and  C_21
REMARK    9  A    between atoms: C_22  and  C_23
REMARK   10  A    between atoms: C_23  and  C_25
REMARK   11  A    between atoms: C_24  and  C_26
REMARK                            x       y       z     vdW  Elec       q    Type
REMARK                         _______ _______ _______ _____ _____    ______ ____
ROOT
ATOM      7  C   UNL     1      -3.745 -10.698  10.491  0.00  0.00    -0.027 C 
ATOM      8  C   UNL     1      -5.100 -10.327  11.179  0.00  0.00    +0.028 C 
ATOM      9  C   UNL     1      -5.849  -9.206  10.373  0.00  0.00    +0.012 C 
ATOM     10  C   UNL     1      -4.903 -10.040  12.696  0.00  0.00    +0.122 C 
ATOM     11  C   UNL     1      -3.091 -11.880  11.244  0.00  0.00    +0.007 C 
ATOM     12  C   UNL     1      -4.025 -11.161   9.043  0.00  0.00    +0.009 C 
ATOM     13  C   UNL     1      -4.154 -11.180  13.424  0.00  0.00    +0.029 C 
ATOM     14  C   UNL     1      -6.058  -9.652   8.899  0.00  0.00    +0.076 C 
ATOM     15  C   UNL     1      -2.859 -11.588  12.721  0.00  0.00    +0.007 C 
ATOM     16  C   UNL     1      -4.774 -10.124   8.218  0.00  0.00    +0.023 C 
ATOM     17  C   UNL     1      -2.748  -9.512  10.464  0.00  0.00    +0.011 C 
ATOM     19  C   UNL     1      -7.206  -8.812  10.980  0.00  0.00    +0.010 C 
ENDROOT
BRANCH  14   5
ATOM      4  O   UNL     1      -8.227  -9.910   7.024  0.00  0.00    -0.275 OA
ATOM      5  N   UNL     1      -6.642  -8.597   8.097  0.00  0.00    -0.312 N 
ATOM     22  C   UNL     1      -7.689  -8.822   7.218  0.00  0.00    +0.218 C 
ATOM     35  H   UNL     1      -6.214  -7.677   8.147  0.00  0.00    +0.149 HD
BRANCH  22  23
ATOM     23  C   UNL     1      -8.105  -7.545   6.515  0.00  0.00    +0.130 C 
BRANCH  23  25
ATOM     25  C   UNL     1      -9.190  -6.792   7.239  0.00  0.00    -0.039 A 
ATOM     27  C   UNL     1      -8.854  -5.787   8.146  0.00  0.00    +0.004 A 
ATOM     28  C   UNL     1     -10.529  -7.100   7.004  0.00  0.00    +0.004 A 
ATOM     30  C   UNL     1      -9.858  -5.089   8.817  0.00  0.00    +0.000 A 
ATOM     31  C   UNL     1     -11.534  -6.402   7.675  0.00  0.00    +0.000 A 
ATOM     32  C   UNL     1     -11.198  -5.397   8.581  0.00  0.00    +0.000 A 
ENDBRANCH  23  25
ENDBRANCH  22  23
ENDBRANCH  14   5
BRANCH  10   2
ATOM      2  O   UNL     1      -6.177  -9.920  13.329  0.00  0.00    -0.391 OA
ATOM     36  H   UNL     1      -6.034  -9.625  14.244  0.00  0.00    +0.210 HD
ENDBRANCH  10   2
BRANCH  13  18
ATOM     18  C   UNL     1      -3.854 -10.823  14.884  0.00  0.00    +0.077 C 
ATOM     20  C   UNL     1      -2.351 -10.658  15.086  0.00  0.00    +0.017 C 
BRANCH  18  21
ATOM      3  O   UNL     1      -4.766 -13.005  15.410  0.00  0.00    -0.276 OA
ATOM      6  N   UNL     1      -4.511 -11.466  17.127  0.00  0.00    -0.310 N 
ATOM     21  C   UNL     1      -4.425 -11.893  15.810  0.00  0.00    +0.216 C 
ATOM     37  H   UNL     1      -4.229 -10.519  17.365  0.00  0.00    +0.149 HD
BRANCH   6  24
ATOM     24  C   UNL     1      -5.023 -12.303  18.187  0.00  0.00    +0.146 C 
BRANCH  24  26
ATOM      1  S   UNL     1      -7.080 -10.444  18.023  0.00  0.00    -0.100 S 
ATOM     26  C   UNL     1      -6.423 -11.925  18.575  0.00  0.00    +0.007 A 
ATOM     29  C   UNL     1      -7.316 -12.628  19.353  0.00  0.00    +0.013 A 
ATOM     33  C   UNL     1      -8.556 -11.941  19.498  0.00  0.00    +0.008 A 
ATOM     34  C   UNL     1      -8.564 -10.739  18.825  0.00  0.00    +0.045 A 
ENDBRANCH  24  26
ENDBRANCH   6  24
ENDBRANCH  18  21
ENDBRANCH  13  18
TORSDOF 8
ENDMDL
MODEL 9
REMARK VINA RESULT:      -6.6      3.100      5.043
REMARK  Name = 45361529
REMARK  11 active torsions:
REMARK  status: ('A' for Active; 'I' for Inactive)
REMARK    1  A    between atoms: O_2  and  C_10
REMARK    2  A    between atoms: N_5  and  C_14
REMARK    3  A    between atoms: N_6  and  C_24
REMARK    4  A    between atoms: C_7  and  C_17
REMARK    5  A    between atoms: C_9  and  C_19
REMARK    6  A    between atoms: C_13  and  C_18
REMARK    7  A    between atoms: C_18  and  C_20
REMARK    8  A    between atoms: C_18  and  C_21
REMARK    9  A    between atoms: C_22  and  C_23
REMARK   10  A    between atoms: C_23  and  C_25
REMARK   11  A    between atoms: C_24  and  C_26
REMARK                            x       y       z     vdW  Elec       q    Type
REMARK                         _______ _______ _______ _____ _____    ______ ____
ROOT
ATOM      7  C   UNL     1     -12.586   7.498  20.660  0.00  0.00    -0.027 C 
ATOM      8  C   UNL     1     -13.717   7.392  19.583  0.00  0.00    +0.028 C 
ATOM      9  C   UNL     1     -13.621   8.574  18.552  0.00  0.00    +0.012 C 
ATOM     10  C   UNL     1     -15.111   7.195  20.246  0.00  0.00    +0.122 C 
ATOM     11  C   UNL     1     -12.640   6.262  21.588  0.00  0.00    +0.007 C 
ATOM     12  C   UNL     1     -11.213   7.495  19.951  0.00  0.00    +0.009 C 
ATOM     13  C   UNL     1     -15.130   6.022  21.253  0.00  0.00    +0.029 C 
ATOM     14  C   UNL     1     -12.211   8.606  17.901  0.00  0.00    +0.076 C 
ATOM     15  C   UNL     1     -13.991   6.089  22.270  0.00  0.00    +0.007 C 
ATOM     16  C   UNL     1     -11.070   8.604  18.919  0.00  0.00    +0.023 C 
ATOM     17  C   UNL     1     -12.711   8.777  21.527  0.00  0.00    +0.011 C 
ATOM     19  C   UNL     1     -14.688   8.515  17.447  0.00  0.00    +0.010 C 
ENDROOT
BRANCH  14   5
ATOM      4  O   UNL     1     -10.459   8.809  15.626  0.00  0.00    -0.275 OA
ATOM      5  N   UNL     1     -12.047   9.752  17.031  0.00  0.00    -0.312 N 
ATOM     22  C   UNL     1     -11.173   9.753  15.956  0.00  0.00    +0.218 C 
ATOM     35  H   UNL     1     -12.554  10.600  17.270  0.00  0.00    +0.149 HD
BRANCH  22  23
ATOM     23  C   UNL     1     -11.208  11.075  15.216  0.00  0.00    +0.130 C 
BRANCH  23  25
ATOM     25  C   UNL     1     -10.621  12.217  16.005  0.00  0.00    -0.039 A 
ATOM     27  C   UNL     1     -11.428  13.288  16.385  0.00  0.00    +0.004 A 
ATOM     28  C   UNL     1      -9.271  12.201  16.354  0.00  0.00    +0.004 A 
ATOM     30  C   UNL     1     -10.885  14.346  17.115  0.00  0.00    +0.000 A 
ATOM     31  C   UNL     1      -8.728  13.259  17.085  0.00  0.00    +0.000 A 
ATOM     32  C   UNL     1      -9.535  14.330  17.465  0.00  0.00    +0.000 A 
ENDBRANCH  23  25
ENDBRANCH  22  23
ENDBRANCH  14   5
BRANCH  10   2
ATOM      2  O   UNL     1     -16.078   6.887  19.242  0.00  0.00    -0.391 OA
ATOM     36  H   UNL     1     -16.031   7.574  18.556  0.00  0.00    +0.210 HD
ENDBRANCH  10   2
BRANCH  13  18
ATOM     18  C   UNL     1     -16.471   5.926  21.990  0.00  0.00    +0.077 C 
ATOM     20  C   UNL     1     -16.352   6.547  23.378  0.00  0.00    +0.017 C 
BRANCH  18  21
ATOM      3  O   UNL     1     -17.402   3.871  21.110  0.00  0.00    -0.276 OA
ATOM      6  N   UNL     1     -16.723   3.921  23.328  0.00  0.00    -0.310 N 
ATOM     21  C   UNL     1     -16.920   4.470  22.069  0.00  0.00    +0.216 C 
ATOM     37  H   UNL     1     -16.341   4.498  24.071  0.00  0.00    +0.149 HD
BRANCH   6  24
ATOM     24  C   UNL     1     -17.074   2.556  23.647  0.00  0.00    +0.146 C 
BRANCH  24  26
ATOM      1  S   UNL     1     -16.515   3.511  26.194  0.00  0.00    -0.100 S 
ATOM     26  C   UNL     1     -16.835   2.239  25.095  0.00  0.00    +0.007 A 
ATOM     29  C   UNL     1     -16.834   1.008  25.713  0.00  0.00    +0.013 A 
ATOM     33  C   UNL     1     -16.566   1.111  27.109  0.00  0.00    +0.008 A 
ATOM     34  C   UNL     1     -16.373   2.416  27.504  0.00  0.00    +0.045 A 
ENDBRANCH  24  26
ENDBRANCH   6  24
ENDBRANCH  18  21
ENDBRANCH  13  18
TORSDOF 8
ENDMDL
MODEL 10
REMARK VINA RESULT:      -6.6     28.797     32.248
REMARK  Name = 45361529
REMARK  11 active torsions:
REMARK  status: ('A' for Active; 'I' for Inactive)
REMARK    1  A    between atoms: O_2  and  C_10
REMARK    2  A    between atoms: N_5  and  C_14
REMARK    3  A    between atoms: N_6  and  C_24
REMARK    4  A    between atoms: C_7  and  C_17
REMARK    5  A    between atoms: C_9  and  C_19
REMARK    6  A    between atoms: C_13  and  C_18
REMARK    7  A    between atoms: C_18  and  C_20
REMARK    8  A    between atoms: C_18  and  C_21
REMARK    9  A    between atoms: C_22  and  C_23
REMARK   10  A    between atoms: C_23  and  C_25
REMARK   11  A    between atoms: C_24  and  C_26
REMARK                            x       y       z     vdW  Elec       q    Type
REMARK                         _______ _______ _______ _____ _____    ______ ____
ROOT
ATOM      7  C   UNL     1       9.762   6.555   6.421  0.00  0.00    -0.027 C 
ATOM      8  C   UNL     1      10.380   7.478   5.319  0.00  0.00    +0.028 C 
ATOM      9  C   UNL     1      11.466   6.707   4.487  0.00  0.00    +0.012 C 
ATOM     10  C   UNL     1      10.839   8.840   5.916  0.00  0.00    +0.122 C 
ATOM     11  C   UNL     1       8.621   7.307   7.145  0.00  0.00    +0.007 C 
ATOM     12  C   UNL     1       9.149   5.307   5.747  0.00  0.00    +0.009 C 
ATOM     13  C   UNL     1       9.724   9.539   6.728  0.00  0.00    +0.029 C 
ATOM     14  C   UNL     1      10.857   5.414   3.876  0.00  0.00    +0.076 C 
ATOM     15  C   UNL     1       9.076   8.622   7.765  0.00  0.00    +0.007 C 
ATOM     16  C   UNL     1      10.150   4.530   4.903  0.00  0.00    +0.023 C 
ATOM     17  C   UNL     1      10.808   6.105   7.474  0.00  0.00    +0.011 C 
ATOM     19  C   UNL     1      12.094   7.549   3.364  0.00  0.00    +0.010 C 
ENDROOT
BRANCH  14   5
ATOM      4  O   UNL     1      10.499   3.878   1.468  0.00  0.00    -0.275 OA
ATOM      5  N   UNL     1      11.858   4.618   3.198  0.00  0.00    -0.312 N 
ATOM     22  C   UNL     1      11.587   3.909   2.038  0.00  0.00    +0.218 C 
ATOM     35  H   UNL     1      12.771   4.536   3.637  0.00  0.00    +0.149 HD
BRANCH  22  23
ATOM     23  C   UNL     1      12.815   3.171   1.541  0.00  0.00    +0.130 C 
BRANCH  23  25
ATOM     25  C   UNL     1      13.279   3.631   0.184  0.00  0.00    -0.039 A 
ATOM     27  C   UNL     1      14.308   4.567   0.081  0.00  0.00    +0.004 A 
ATOM     28  C   UNL     1      12.680   3.122  -0.967  0.00  0.00    +0.004 A 
ATOM     30  C   UNL     1      14.738   4.994  -1.176  0.00  0.00    +0.000 A 
ATOM     31  C   UNL     1      13.111   3.548  -2.224  0.00  0.00    +0.000 A 
ATOM     32  C   UNL     1      14.139   4.483  -2.329  0.00  0.00    +0.000 A 
ENDBRANCH  23  25
ENDBRANCH  22  23
ENDBRANCH  14   5
BRANCH  10   2
ATOM      2  O   UNL     1      11.192   9.731   4.858  0.00  0.00    -0.391 OA
ATOM     36  H   UNL     1      11.157   9.236   4.022  0.00  0.00    +0.210 HD
ENDBRANCH  10   2
BRANCH  13  18
ATOM     18  C   UNL     1      10.232  10.812   7.416  0.00  0.00    +0.077 C 
ATOM     20  C   UNL     1      10.241  10.623   8.929  0.00  0.00    +0.017 C 
BRANCH  18  21
ATOM      3  O   UNL     1       9.194  12.976   7.741  0.00  0.00    -0.276 OA
ATOM      6  N   UNL     1       8.822  11.856   5.743  0.00  0.00    -0.310 N 
ATOM     21  C   UNL     1       9.371  12.003   7.009  0.00  0.00    +0.216 C 
ATOM     37  H   UNL     1       9.001  11.005   5.217  0.00  0.00    +0.149 HD
BRANCH   6  24
ATOM     24  C   UNL     1       7.968  12.853   5.142  0.00  0.00    +0.146 C 
BRANCH  24  26
ATOM      1  S   UNL     1       5.517  13.269   3.904  0.00  0.00    -0.100 S 
ATOM     26  C   UNL     1       6.736  12.247   4.536  0.00  0.00    +0.007 A 
ATOM     29  C   UNL     1       6.413  10.914   4.402  0.00  0.00    +0.013 A 
ATOM     33  C   UNL     1       5.149  10.730   3.772  0.00  0.00    +0.008 A 
ATOM     34  C   UNL     1       4.552  11.929   3.448  0.00  0.00    +0.045 A 
ENDBRANCH  24  26
ENDBRANCH   6  24
ENDBRANCH  18  21
ENDBRANCH  13  18
TORSDOF 8
ENDMDL
