MODEL 1
REMARK VINA RESULT:      -8.6      0.000      0.000
REMARK  Name = 40777250
REMARK  7 active torsions:
REMARK  status: ('A' for Active; 'I' for Inactive)
REMARK    1  A    between atoms: N_4  and  C_16
REMARK    2  A    between atoms: N_7  and  C_26
REMARK    3  A    between atoms: C_10  and  C_17
REMARK    4  A    between atoms: C_11  and  C_16
REMARK    5  A    between atoms: C_19  and  C_22
REMARK    6  A    between atoms: C_20  and  C_23
REMARK    7  A    between atoms: C_32  and  C_35
REMARK                            x       y       z     vdW  Elec       q    Type
REMARK                         _______ _______ _______ _____ _____    ______ ____
ROOT
ATOM      3  N   UNL     1      12.107  11.578  25.116  0.00  0.00    -0.297 NA
ATOM      9  C   UNL     1      11.083  12.135  22.786  0.00  0.00    +0.002 C 
ATOM     10  C   UNL     1      10.909  10.625  23.110  0.00  0.00    +0.055 C 
ATOM     11  C   UNL     1      13.086  12.342  24.299  0.00  0.00    +0.074 C 
ATOM     12  C   UNL     1      12.580  12.501  22.849  0.00  0.00    +0.024 C 
ATOM     13  C   UNL     1      10.377  12.915  23.916  0.00  0.00    +0.019 C 
ATOM     14  C   UNL     1      11.716  10.334  24.408  0.00  0.00    +0.094 C 
ATOM     15  C   UNL     1      10.896  12.418  25.276  0.00  0.00    +0.085 C 
ENDROOT
BRANCH  10  17
ATOM      5  N   UNL     1      10.973   8.318  22.297  0.00  0.00    -0.237 NA
ATOM      6  N   UNL     1      11.715   7.761  20.074  0.00  0.00    -0.232 NA
ATOM     17  C   UNL     1      11.203   9.616  22.009  0.00  0.00    +0.050 A 
ATOM     18  C   UNL     1      11.682  10.057  20.792  0.00  0.00    +0.052 A 
ATOM     19  C   UNL     1      11.922   9.075  19.853  0.00  0.00    +0.075 A 
ATOM     20  C   UNL     1      11.246   7.457  21.299  0.00  0.00    +0.127 A 
ATOM     23  C   UNL     1      11.007   6.012  21.581  0.00  0.00    +0.088 C 
BRANCH  19  22
ATOM      1  F   UNL     1      13.867  10.350  14.789  0.00  0.00    -0.205 F 
ATOM     22  C   UNL     1      12.425   9.406  18.541  0.00  0.00    +0.001 A 
ATOM     24  C   UNL     1      11.825   8.862  17.406  0.00  0.00    +0.013 A 
ATOM     25  C   UNL     1      13.514  10.269  18.409  0.00  0.00    +0.013 A 
ATOM     27  C   UNL     1      12.311   9.181  16.139  0.00  0.00    +0.039 A 
ATOM     28  C   UNL     1      14.000  10.587  17.141  0.00  0.00    +0.039 A 
ATOM     29  C   UNL     1      13.399  10.044  16.006  0.00  0.00    +0.123 A 
ENDBRANCH  19  22
ENDBRANCH  10  17
BRANCH  11  16
ATOM     16  C   UNL     1      14.489  11.731  24.348  0.00  0.00    +0.124 C 
BRANCH  16   4
ATOM      2  O   UNL     1      16.049  10.758  22.153  0.00  0.00    -0.253 OA
ATOM      4  N   UNL     1      14.486  10.402  23.820  0.00  0.00    -0.298 N 
ATOM      7  N   UNL     1      15.069   8.645  22.443  0.00  0.00    -0.269 N 
ATOM     21  C   UNL     1      15.283   9.994  22.735  0.00  0.00    +0.304 C 
ATOM     36  H   UNL     1      13.872   9.717  24.249  0.00  0.00    +0.150 HD
ATOM     37  H   UNL     1      14.395   8.154  23.025  0.00  0.00    +0.156 HD
BRANCH   7  26
ATOM     26  C   UNL     1      15.678   7.869  21.429  0.00  0.00    +0.036 A 
ATOM     30  C   UNL     1      17.035   7.560  21.507  0.00  0.00    +0.042 A 
ATOM     31  C   UNL     1      14.919   7.412  20.350  0.00  0.00    +0.023 A 
ATOM     32  C   UNL     1      17.635   6.794  20.506  0.00  0.00    +0.054 A 
ATOM     33  C   UNL     1      15.519   6.646  19.351  0.00  0.00    +0.003 A 
ATOM     34  C   UNL     1      16.876   6.337  19.429  0.00  0.00    +0.019 A 
BRANCH  32  35
ATOM      8  N   UNL     1      20.155   6.219  20.652  0.00  0.00    -0.191 NA
ATOM     35  C   UNL     1      19.025   6.476  20.587  0.00  0.00    +0.099 C 
ENDBRANCH  32  35
ENDBRANCH   7  26
ENDBRANCH  16   4
ENDBRANCH  11  16
TORSDOF 6
ENDMDL
MODEL 2
REMARK VINA RESULT:      -8.0     27.867     30.988
REMARK  Name = 40777250
REMARK  7 active torsions:
REMARK  status: ('A' for Active; 'I' for Inactive)
REMARK    1  A    between atoms: N_4  and  C_16
REMARK    2  A    between atoms: N_7  and  C_26
REMARK    3  A    between atoms: C_10  and  C_17
REMARK    4  A    between atoms: C_11  and  C_16
REMARK    5  A    between atoms: C_19  and  C_22
REMARK    6  A    between atoms: C_20  and  C_23
REMARK    7  A    between atoms: C_32  and  C_35
REMARK                            x       y       z     vdW  Elec       q    Type
REMARK                         _______ _______ _______ _____ _____    ______ ____
ROOT
ATOM      3  N   UNL     1     -18.433   3.008  26.268  0.00  0.00    -0.297 NA
ATOM      9  C   UNL     1     -17.148   0.745  26.383  0.00  0.00    +0.002 C 
ATOM     10  C   UNL     1     -17.413   1.294  27.812  0.00  0.00    +0.055 C 
ATOM     11  C   UNL     1     -17.255   3.044  25.361  0.00  0.00    +0.074 C 
ATOM     12  C   UNL     1     -16.368   1.798  25.568  0.00  0.00    +0.024 C 
ATOM     13  C   UNL     1     -18.527   0.579  25.708  0.00  0.00    +0.019 C 
ATOM     14  C   UNL     1     -17.995   2.728  27.658  0.00  0.00    +0.094 C 
ATOM     15  C   UNL     1     -19.311   1.898  25.828  0.00  0.00    +0.085 C 
ENDROOT
BRANCH  10  17
ATOM      5  N   UNL     1     -15.416   0.205  28.714  0.00  0.00    -0.237 NA
ATOM      6  N   UNL     1     -14.223   1.082  30.614  0.00  0.00    -0.232 NA
ATOM     17  C   UNL     1     -16.277   1.238  28.825  0.00  0.00    +0.050 A 
ATOM     18  C   UNL     1     -16.177   2.218  29.791  0.00  0.00    +0.052 A 
ATOM     19  C   UNL     1     -15.119   2.088  30.667  0.00  0.00    +0.075 A 
ATOM     20  C   UNL     1     -14.428   0.189  29.628  0.00  0.00    +0.127 A 
ATOM     23  C   UNL     1     -13.457  -0.940  29.539  0.00  0.00    +0.088 C 
BRANCH  19  22
ATOM      1  F   UNL     1     -14.294   5.792  34.748  0.00  0.00    -0.205 F 
ATOM     22  C   UNL     1     -14.905   3.048  31.724  0.00  0.00    +0.001 A 
ATOM     24  C   UNL     1     -14.782   2.615  33.044  0.00  0.00    +0.013 A 
ATOM     25  C   UNL     1     -14.821   4.408  31.425  0.00  0.00    +0.013 A 
ATOM     27  C   UNL     1     -14.575   3.542  34.065  0.00  0.00    +0.039 A 
ATOM     28  C   UNL     1     -14.615   5.335  32.447  0.00  0.00    +0.039 A 
ATOM     29  C   UNL     1     -14.492   4.902  33.767  0.00  0.00    +0.123 A 
ENDBRANCH  19  22
ENDBRANCH  10  17
BRANCH  11  16
ATOM     16  C   UNL     1     -16.455   4.342  25.496  0.00  0.00    +0.124 C 
BRANCH  16   4
ATOM      2  O   UNL     1     -16.078   6.352  23.491  0.00  0.00    -0.253 OA
ATOM      4  N   UNL     1     -15.404   4.397  24.528  0.00  0.00    -0.298 N 
ATOM      7  N   UNL     1     -14.162   5.209  22.761  0.00  0.00    -0.269 N 
ATOM     21  C   UNL     1     -15.282   5.420  23.570  0.00  0.00    +0.304 C 
ATOM     36  H   UNL     1     -14.710   3.655  24.530  0.00  0.00    +0.150 HD
ATOM     37  H   UNL     1     -13.605   4.382  22.960  0.00  0.00    +0.156 HD
BRANCH   7  26
ATOM     26  C   UNL     1     -13.701   6.011  21.690  0.00  0.00    +0.036 A 
ATOM     30  C   UNL     1     -14.615   6.614  20.827  0.00  0.00    +0.042 A 
ATOM     31  C   UNL     1     -12.332   6.199  21.499  0.00  0.00    +0.023 A 
ATOM     32  C   UNL     1     -14.160   7.406  19.771  0.00  0.00    +0.054 A 
ATOM     33  C   UNL     1     -11.878   6.991  20.445  0.00  0.00    +0.003 A 
ATOM     34  C   UNL     1     -12.791   7.594  19.581  0.00  0.00    +0.019 A 
BRANCH  32  35
ATOM      8  N   UNL     1     -15.856   8.526  18.167  0.00  0.00    -0.191 NA
ATOM     35  C   UNL     1     -15.096   8.024  18.887  0.00  0.00    +0.099 C 
ENDBRANCH  32  35
ENDBRANCH   7  26
ENDBRANCH  16   4
ENDBRANCH  11  16
TORSDOF 6
ENDMDL
MODEL 3
REMARK VINA RESULT:      -7.9      3.390      7.551
REMARK  Name = 40777250
REMARK  7 active torsions:
REMARK  status: ('A' for Active; 'I' for Inactive)
REMARK    1  A    between atoms: N_4  and  C_16
REMARK    2  A    between atoms: N_7  and  C_26
REMARK    3  A    between atoms: C_10  and  C_17
REMARK    4  A    between atoms: C_11  and  C_16
REMARK    5  A    between atoms: C_19  and  C_22
REMARK    6  A    between atoms: C_20  and  C_23
REMARK    7  A    between atoms: C_32  and  C_35
REMARK                            x       y       z     vdW  Elec       q    Type
REMARK                         _______ _______ _______ _____ _____    ______ ____
ROOT
ATOM      3  N   UNL     1      20.427   6.351  22.574  0.00  0.00    -0.297 NA
ATOM      9  C   UNL     1      21.588   8.437  21.533  0.00  0.00    +0.002 C 
ATOM     10  C   UNL     1      20.260   8.844  22.231  0.00  0.00    +0.055 C 
ATOM     11  C   UNL     1      20.795   6.076  21.161  0.00  0.00    +0.074 C 
ATOM     12  C   UNL     1      21.294   7.361  20.467  0.00  0.00    +0.024 C 
ATOM     13  C   UNL     1      22.473   7.777  22.612  0.00  0.00    +0.019 C 
ATOM     14  C   UNL     1      19.533   7.534  22.645  0.00  0.00    +0.094 C 
ATOM     15  C   UNL     1      21.672   6.667  23.314  0.00  0.00    +0.085 C 
ENDROOT
BRANCH  10  17
ATOM      5  N   UNL     1      19.924  10.823  20.832  0.00  0.00    -0.237 NA
ATOM      6  N   UNL     1      17.730  11.585  20.192  0.00  0.00    -0.232 NA
ATOM     17  C   UNL     1      19.337   9.813  21.507  0.00  0.00    +0.050 A 
ATOM     18  C   UNL     1      17.970   9.627  21.570  0.00  0.00    +0.052 A 
ATOM     19  C   UNL     1      17.209  10.552  20.886  0.00  0.00    +0.075 A 
ATOM     20  C   UNL     1      19.075  11.659  20.207  0.00  0.00    +0.127 A 
ATOM     23  C   UNL     1      19.687  12.790  19.452  0.00  0.00    +0.088 C 
BRANCH  19  22
ATOM      1  F   UNL     1      11.646  10.230  20.841  0.00  0.00    -0.205 F 
ATOM     22  C   UNL     1      15.768  10.469  20.874  0.00  0.00    +0.001 A 
ATOM     24  C   UNL     1      15.092   9.934  21.970  0.00  0.00    +0.013 A 
ATOM     25  C   UNL     1      15.051  10.924  19.767  0.00  0.00    +0.013 A 
ATOM     27  C   UNL     1      13.699   9.852  21.959  0.00  0.00    +0.039 A 
ATOM     28  C   UNL     1      13.659  10.843  19.756  0.00  0.00    +0.039 A 
ATOM     29  C   UNL     1      12.983  10.308  20.852  0.00  0.00    +0.123 A 
ENDBRANCH  19  22
ENDBRANCH  10  17
BRANCH  11  16
ATOM     16  C   UNL     1      19.658   5.412  20.380  0.00  0.00    +0.124 C 
BRANCH  16   4
ATOM      2  O   UNL     1      17.400   5.449  18.618  0.00  0.00    -0.253 OA
ATOM      4  N   UNL     1      18.425   6.108  20.585  0.00  0.00    -0.298 N 
ATOM      7  N   UNL     1      16.287   6.850  20.137  0.00  0.00    -0.269 N 
ATOM     21  C   UNL     1      17.355   6.079  19.672  0.00  0.00    +0.304 C 
ATOM     36  H   UNL     1      18.318   6.655  21.433  0.00  0.00    +0.150 HD
ATOM     37  H   UNL     1      16.414   7.311  21.035  0.00  0.00    +0.156 HD
BRANCH   7  26
ATOM     26  C   UNL     1      15.038   7.071  19.510  0.00  0.00    +0.036 A 
ATOM     30  C   UNL     1      14.987   7.623  18.230  0.00  0.00    +0.042 A 
ATOM     31  C   UNL     1      13.856   6.735  20.172  0.00  0.00    +0.023 A 
ATOM     32  C   UNL     1      13.754   7.840  17.613  0.00  0.00    +0.054 A 
ATOM     33  C   UNL     1      12.625   6.951  19.554  0.00  0.00    +0.003 A 
ATOM     34  C   UNL     1      12.574   7.503  18.275  0.00  0.00    +0.019 A 
BRANCH  32  35
ATOM      8  N   UNL     1      13.660   8.862  15.236  0.00  0.00    -0.191 NA
ATOM     35  C   UNL     1      13.702   8.404  16.302  0.00  0.00    +0.099 C 
ENDBRANCH  32  35
ENDBRANCH   7  26
ENDBRANCH  16   4
ENDBRANCH  11  16
TORSDOF 6
ENDMDL
MODEL 4
REMARK VINA RESULT:      -7.8     25.984     29.994
REMARK  Name = 40777250
REMARK  7 active torsions:
REMARK  status: ('A' for Active; 'I' for Inactive)
REMARK    1  A    between atoms: N_4  and  C_16
REMARK    2  A    between atoms: N_7  and  C_26
REMARK    3  A    between atoms: C_10  and  C_17
REMARK    4  A    between atoms: C_11  and  C_16
REMARK    5  A    between atoms: C_19  and  C_22
REMARK    6  A    between atoms: C_20  and  C_23
REMARK    7  A    between atoms: C_32  and  C_35
REMARK                            x       y       z     vdW  Elec       q    Type
REMARK                         _______ _______ _______ _____ _____    ______ ____
ROOT
ATOM      3  N   UNL     1      -5.412 -11.085  10.040  0.00  0.00    -0.297 NA
ATOM      9  C   UNL     1      -3.889  -9.273  11.127  0.00  0.00    +0.002 C 
ATOM     10  C   UNL     1      -3.572 -10.675  11.717  0.00  0.00    +0.055 C 
ATOM     11  C   UNL     1      -6.238  -9.941  10.509  0.00  0.00    +0.074 C 
ATOM     12  C   UNL     1      -5.385  -8.956  11.338  0.00  0.00    +0.024 C 
ATOM     13  C   UNL     1      -3.656  -9.368   9.604  0.00  0.00    +0.019 C 
ATOM     14  C   UNL     1      -4.647 -11.659  11.175  0.00  0.00    +0.094 C 
ATOM     15  C   UNL     1      -4.443 -10.566   9.045  0.00  0.00    +0.085 C 
ENDROOT
BRANCH  10  17
ATOM      5  N   UNL     1      -2.204 -10.380  13.724  0.00  0.00    -0.237 NA
ATOM      6  N   UNL     1      -2.994 -10.989  15.916  0.00  0.00    -0.232 NA
ATOM     17  C   UNL     1      -3.386 -10.795  13.223  0.00  0.00    +0.050 A 
ATOM     18  C   UNL     1      -4.407 -11.312  13.995  0.00  0.00    +0.052 A 
ATOM     19  C   UNL     1      -4.152 -11.386  15.350  0.00  0.00    +0.075 A 
ATOM     20  C   UNL     1      -2.077 -10.504  15.058  0.00  0.00    +0.127 A 
ATOM     23  C   UNL     1      -0.783 -10.057  15.648  0.00  0.00    +0.088 C 
BRANCH  19  22
ATOM      1  F   UNL     1      -7.955 -13.407  18.886  0.00  0.00    -0.205 F 
ATOM     22  C   UNL     1      -5.137 -11.909  16.266  0.00  0.00    +0.001 A 
ATOM     24  C   UNL     1      -4.938 -11.801  17.641  0.00  0.00    +0.013 A 
ATOM     25  C   UNL     1      -6.290 -12.523  15.774  0.00  0.00    +0.013 A 
ATOM     27  C   UNL     1      -5.889 -12.306  18.527  0.00  0.00    +0.039 A 
ATOM     28  C   UNL     1      -7.241 -13.029  16.660  0.00  0.00    +0.039 A 
ATOM     29  C   UNL     1      -7.041 -12.921  18.036  0.00  0.00    +0.123 A 
ENDBRANCH  19  22
ENDBRANCH  10  17
BRANCH  11  16
ATOM     16  C   UNL     1      -7.483 -10.397  11.273  0.00  0.00    +0.124 C 
BRANCH  16   4
ATOM      2  O   UNL     1      -9.660 -10.529  13.130  0.00  0.00    -0.253 OA
ATOM      4  N   UNL     1      -7.547  -9.778  12.561  0.00  0.00    -0.298 N 
ATOM      7  N   UNL     1      -8.432  -9.179  14.606  0.00  0.00    -0.269 N 
ATOM     21  C   UNL     1      -8.654  -9.887  13.423  0.00  0.00    +0.304 C 
ATOM     36  H   UNL     1      -6.752  -9.226  12.868  0.00  0.00    +0.150 HD
ATOM     37  H   UNL     1      -7.540  -8.699  14.690  0.00  0.00    +0.156 HD
BRANCH   7  26
ATOM     26  C   UNL     1      -9.300  -9.047  15.715  0.00  0.00    +0.036 A 
ATOM     30  C   UNL     1      -9.075  -9.794  16.871  0.00  0.00    +0.042 A 
ATOM     31  C   UNL     1     -10.382  -8.167  15.653  0.00  0.00    +0.023 A 
ATOM     32  C   UNL     1      -9.932  -9.663  17.965  0.00  0.00    +0.054 A 
ATOM     33  C   UNL     1     -11.237  -8.036  16.746  0.00  0.00    +0.003 A 
ATOM     34  C   UNL     1     -11.013  -8.783  17.901  0.00  0.00    +0.019 A 
BRANCH  32  35
ATOM      8  N   UNL     1      -9.516 -11.048  20.112  0.00  0.00    -0.191 NA
ATOM     35  C   UNL     1      -9.702 -10.427  19.149  0.00  0.00    +0.099 C 
ENDBRANCH  32  35
ENDBRANCH   7  26
ENDBRANCH  16   4
ENDBRANCH  11  16
TORSDOF 6
ENDMDL
MODEL 5
REMARK VINA RESULT:      -7.7      3.664      6.385
REMARK  Name = 40777250
REMARK  7 active torsions:
REMARK  status: ('A' for Active; 'I' for Inactive)
REMARK    1  A    between atoms: N_4  and  C_16
REMARK    2  A    between atoms: N_7  and  C_26
REMARK    3  A    between atoms: C_10  and  C_17
REMARK    4  A    between atoms: C_11  and  C_16
REMARK    5  A    between atoms: C_19  and  C_22
REMARK    6  A    between atoms: C_20  and  C_23
REMARK    7  A    between atoms: C_32  and  C_35
REMARK                            x       y       z     vdW  Elec       q    Type
REMARK                         _______ _______ _______ _____ _____    ______ ____
ROOT
ATOM      3  N   UNL     1      11.436   7.391  19.958  0.00  0.00    -0.297 NA
ATOM      9  C   UNL     1      13.488   8.674  20.922  0.00  0.00    +0.002 C 
ATOM     10  C   UNL     1      12.185   9.493  21.135  0.00  0.00    +0.055 C 
ATOM     11  C   UNL     1      12.523   7.446  18.946  0.00  0.00    +0.074 C 
ATOM     12  C   UNL     1      13.662   8.375  19.418  0.00  0.00    +0.024 C 
ATOM     13  C   UNL     1      13.283   7.319  21.633  0.00  0.00    +0.019 C 
ATOM     14  C   UNL     1      11.049   8.766  20.362  0.00  0.00    +0.094 C 
ATOM     15  C   UNL     1      11.964   6.690  21.153  0.00  0.00    +0.085 C 
ENDROOT
BRANCH  10  17
ATOM      5  N   UNL     1      11.381  11.766  21.557  0.00  0.00    -0.237 NA
ATOM      6  N   UNL     1      12.233  13.672  20.356  0.00  0.00    -0.232 NA
ATOM     17  C   UNL     1      12.219  10.986  20.841  0.00  0.00    +0.050 A 
ATOM     18  C   UNL     1      13.081  11.471  19.879  0.00  0.00    +0.052 A 
ATOM     19  C   UNL     1      13.046  12.836  19.677  0.00  0.00    +0.075 A 
ATOM     20  C   UNL     1      11.439  13.079  21.267  0.00  0.00    +0.127 A 
ATOM     23  C   UNL     1      10.526  13.972  22.036  0.00  0.00    +0.088 C 
BRANCH  19  22
ATOM      1  F   UNL     1      16.334  15.270  15.894  0.00  0.00    -0.205 F 
ATOM     22  C   UNL     1      13.898  13.467  18.697  0.00  0.00    +0.001 A 
ATOM     24  C   UNL     1      13.346  14.310  17.733  0.00  0.00    +0.013 A 
ATOM     25  C   UNL     1      15.273  13.233  18.715  0.00  0.00    +0.013 A 
ATOM     27  C   UNL     1      14.169  14.919  16.786  0.00  0.00    +0.039 A 
ATOM     28  C   UNL     1      16.095  13.842  17.768  0.00  0.00    +0.039 A 
ATOM     29  C   UNL     1      15.544  14.685  16.804  0.00  0.00    +0.123 A 
ENDBRANCH  19  22
ENDBRANCH  10  17
BRANCH  11  16
ATOM     16  C   UNL     1      12.008   7.837  17.558  0.00  0.00    +0.124 C 
BRANCH  16   4
ATOM      2  O   UNL     1      13.776   8.606  15.440  0.00  0.00    -0.253 OA
ATOM      4  N   UNL     1      12.410   9.167  17.221  0.00  0.00    -0.298 N 
ATOM      7  N   UNL     1      13.494  10.849  16.072  0.00  0.00    -0.269 N 
ATOM     21  C   UNL     1      13.285   9.471  16.161  0.00  0.00    +0.304 C 
ATOM     36  H   UNL     1      12.047   9.934  17.778  0.00  0.00    +0.150 HD
ATOM     37  H   UNL     1      13.009  11.429  16.752  0.00  0.00    +0.156 HD
BRANCH   7  26
ATOM     26  C   UNL     1      14.303  11.546  15.144  0.00  0.00    +0.036 A 
ATOM     30  C   UNL     1      15.690  11.407  15.185  0.00  0.00    +0.042 A 
ATOM     31  C   UNL     1      13.713  12.371  14.185  0.00  0.00    +0.023 A 
ATOM     32  C   UNL     1      16.488  12.094  14.268  0.00  0.00    +0.054 A 
ATOM     33  C   UNL     1      14.510  13.056  13.269  0.00  0.00    +0.003 A 
ATOM     34  C   UNL     1      15.897  12.918  13.310  0.00  0.00    +0.019 A 
BRANCH  32  35
ATOM      8  N   UNL     1      19.063  11.835  14.342  0.00  0.00    -0.191 NA
ATOM     35  C   UNL     1      17.908  11.952  14.310  0.00  0.00    +0.099 C 
ENDBRANCH  32  35
ENDBRANCH   7  26
ENDBRANCH  16   4
ENDBRANCH  11  16
TORSDOF 6
ENDMDL
MODEL 6
REMARK VINA RESULT:      -7.7     27.926     30.497
REMARK  Name = 40777250
REMARK  7 active torsions:
REMARK  status: ('A' for Active; 'I' for Inactive)
REMARK    1  A    between atoms: N_4  and  C_16
REMARK    2  A    between atoms: N_7  and  C_26
REMARK    3  A    between atoms: C_10  and  C_17
REMARK    4  A    between atoms: C_11  and  C_16
REMARK    5  A    between atoms: C_19  and  C_22
REMARK    6  A    between atoms: C_20  and  C_23
REMARK    7  A    between atoms: C_32  and  C_35
REMARK                            x       y       z     vdW  Elec       q    Type
REMARK                         _______ _______ _______ _____ _____    ______ ____
ROOT
ATOM      3  N   UNL     1     -11.475  -6.852  14.401  0.00  0.00    -0.297 NA
ATOM      9  C   UNL     1     -12.664  -7.992  16.418  0.00  0.00    +0.002 C 
ATOM     10  C   UNL     1     -11.189  -7.658  16.774  0.00  0.00    +0.055 C 
ATOM     11  C   UNL     1     -12.162  -8.091  13.952  0.00  0.00    +0.074 C 
ATOM     12  C   UNL     1     -12.696  -8.888  15.162  0.00  0.00    +0.024 C 
ATOM     13  C   UNL     1     -13.343  -6.658  16.041  0.00  0.00    +0.019 C 
ATOM     14  C   UNL     1     -10.496  -7.172  15.469  0.00  0.00    +0.094 C 
ATOM     15  C   UNL     1     -12.500  -5.945  14.971  0.00  0.00    +0.085 C 
ENDROOT
BRANCH  10  17
ATOM      5  N   UNL     1     -11.014  -9.440  18.441  0.00  0.00    -0.237 NA
ATOM      6  N   UNL     1      -8.952 -10.617  18.850  0.00  0.00    -0.232 NA
ATOM     17  C   UNL     1     -10.370  -8.713  17.505  0.00  0.00    +0.050 A 
ATOM     18  C   UNL     1      -9.036  -8.878  17.190  0.00  0.00    +0.052 A 
ATOM     19  C   UNL     1      -8.371  -9.855  17.902  0.00  0.00    +0.075 A 
ATOM     20  C   UNL     1     -10.257 -10.361  19.066  0.00  0.00    +0.127 A 
ATOM     23  C   UNL     1     -10.933 -11.183  20.110  0.00  0.00    +0.088 C 
BRANCH  19  22
ATOM      1  F   UNL     1      -2.973 -10.899  16.998  0.00  0.00    -0.205 F 
ATOM     22  C   UNL     1      -6.972 -10.125  17.668  0.00  0.00    +0.001 A 
ATOM     24  C   UNL     1      -6.350  -9.635  16.520  0.00  0.00    +0.013 A 
ATOM     25  C   UNL     1      -6.243 -10.877  18.590  0.00  0.00    +0.013 A 
ATOM     27  C   UNL     1      -4.999  -9.896  16.294  0.00  0.00    +0.039 A 
ATOM     28  C   UNL     1      -4.892 -11.138  18.363  0.00  0.00    +0.039 A 
ATOM     29  C   UNL     1      -4.270 -10.648  17.216  0.00  0.00    +0.123 A 
ENDBRANCH  19  22
ENDBRANCH  10  17
BRANCH  11  16
ATOM     16  C   UNL     1     -11.278  -8.953  13.048  0.00  0.00    +0.124 C 
BRANCH  16   4
ATOM      2  O   UNL     1      -8.682  -9.794  13.919  0.00  0.00    -0.253 OA
ATOM      4  N   UNL     1     -10.950 -10.190  13.685  0.00  0.00    -0.298 N 
ATOM      7  N   UNL     1      -9.631 -11.802  14.680  0.00  0.00    -0.269 N 
ATOM     21  C   UNL     1      -9.646 -10.536  14.089  0.00  0.00    +0.304 C 
ATOM     36  H   UNL     1     -11.696 -10.857  13.854  0.00  0.00    +0.150 HD
ATOM     37  H   UNL     1     -10.522 -12.287  14.742  0.00  0.00    +0.156 HD
BRANCH   7  26
ATOM     26  C   UNL     1      -8.520 -12.498  15.211  0.00  0.00    +0.036 A 
ATOM     30  C   UNL     1      -7.295 -12.471  14.544  0.00  0.00    +0.042 A 
ATOM     31  C   UNL     1      -8.648 -13.210  16.404  0.00  0.00    +0.023 A 
ATOM     32  C   UNL     1      -6.199 -13.157  15.069  0.00  0.00    +0.054 A 
ATOM     33  C   UNL     1      -7.553 -13.896  16.929  0.00  0.00    +0.003 A 
ATOM     34  C   UNL     1      -6.329 -13.869  16.261  0.00  0.00    +0.019 A 
BRANCH  32  35
ATOM      8  N   UNL     1      -3.926 -13.108  13.830  0.00  0.00    -0.191 NA
ATOM     35  C   UNL     1      -4.945 -13.130  14.386  0.00  0.00    +0.099 C 
ENDBRANCH  32  35
ENDBRANCH   7  26
ENDBRANCH  16   4
ENDBRANCH  11  16
TORSDOF 6
ENDMDL
MODEL 7
REMARK VINA RESULT:      -7.7     27.583     30.142
REMARK  Name = 40777250
REMARK  7 active torsions:
REMARK  status: ('A' for Active; 'I' for Inactive)
REMARK    1  A    between atoms: N_4  and  C_16
REMARK    2  A    between atoms: N_7  and  C_26
REMARK    3  A    between atoms: C_10  and  C_17
REMARK    4  A    between atoms: C_11  and  C_16
REMARK    5  A    between atoms: C_19  and  C_22
REMARK    6  A    between atoms: C_20  and  C_23
REMARK    7  A    between atoms: C_32  and  C_35
REMARK                            x       y       z     vdW  Elec       q    Type
REMARK                         _______ _______ _______ _____ _____    ______ ____
ROOT
ATOM      3  N   UNL     1      -5.448  -9.234  10.397  0.00  0.00    -0.297 NA
ATOM      9  C   UNL     1      -6.815 -10.304   8.455  0.00  0.00    +0.002 C 
ATOM     10  C   UNL     1      -6.598  -8.787   8.196  0.00  0.00    +0.055 C 
ATOM     11  C   UNL     1      -6.580 -10.025  10.947  0.00  0.00    +0.074 C 
ATOM     12  C   UNL     1      -7.519 -10.494   9.815  0.00  0.00    +0.024 C 
ATOM     13  C   UNL     1      -5.413 -10.939   8.577  0.00  0.00    +0.019 C 
ATOM     14  C   UNL     1      -5.960  -8.185   9.480  0.00  0.00    +0.094 C 
ATOM     15  C   UNL     1      -4.590 -10.154   9.612  0.00  0.00    +0.085 C 
ENDROOT
BRANCH  10  17
ATOM      5  N   UNL     1      -8.061  -8.042   6.382  0.00  0.00    -0.237 NA
ATOM      6  N   UNL     1      -9.888  -6.516   6.751  0.00  0.00    -0.232 NA
ATOM     17  C   UNL     1      -7.781  -7.968   7.699  0.00  0.00    +0.050 A 
ATOM     18  C   UNL     1      -8.499  -7.198   8.593  0.00  0.00    +0.052 A 
ATOM     19  C   UNL     1      -9.553  -6.487   8.057  0.00  0.00    +0.075 A 
ATOM     20  C   UNL     1      -9.112  -7.303   5.981  0.00  0.00    +0.127 A 
ATOM     23  C   UNL     1      -9.451  -7.358   4.530  0.00  0.00    +0.088 C 
BRANCH  19  22
ATOM      1  F   UNL     1     -12.751  -3.232  11.255  0.00  0.00    -0.205 F 
ATOM     22  C   UNL     1     -10.381  -5.644   8.886  0.00  0.00    +0.001 A 
ATOM     24  C   UNL     1     -11.276  -6.217   9.788  0.00  0.00    +0.013 A 
ATOM     25  C   UNL     1     -10.286  -4.256   8.783  0.00  0.00    +0.013 A 
ATOM     27  C   UNL     1     -12.076  -5.403  10.589  0.00  0.00    +0.039 A 
ATOM     28  C   UNL     1     -11.087  -3.442   9.584  0.00  0.00    +0.039 A 
ATOM     29  C   UNL     1     -11.982  -4.014  10.486  0.00  0.00    +0.123 A 
ENDBRANCH  19  22
ENDBRANCH  10  17
BRANCH  11  16
ATOM     16  C   UNL     1      -7.340  -9.272  12.041  0.00  0.00    +0.124 C 
BRANCH  16   4
ATOM      2  O   UNL     1      -7.112 -11.123  14.215  0.00  0.00    -0.253 OA
ATOM      4  N   UNL     1      -6.533  -9.120  13.211  0.00  0.00    -0.298 N 
ATOM      7  N   UNL     1      -5.601  -9.657  15.253  0.00  0.00    -0.269 N 
ATOM     21  C   UNL     1      -6.469 -10.076  14.242  0.00  0.00    +0.304 C 
ATOM     36  H   UNL     1      -5.977  -8.276  13.305  0.00  0.00    +0.150 HD
ATOM     37  H   UNL     1      -5.146  -8.757  15.120  0.00  0.00    +0.156 HD
BRANCH   7  26
ATOM     26  C   UNL     1      -5.270 -10.335  16.450  0.00  0.00    +0.036 A 
ATOM     30  C   UNL     1      -6.278 -10.728  17.330  0.00  0.00    +0.042 A 
ATOM     31  C   UNL     1      -3.936 -10.612  16.749  0.00  0.00    +0.023 A 
ATOM     32  C   UNL     1      -5.951 -11.398  18.510  0.00  0.00    +0.054 A 
ATOM     33  C   UNL     1      -3.610 -11.282  17.928  0.00  0.00    +0.003 A 
ATOM     34  C   UNL     1      -4.617 -11.674  18.808  0.00  0.00    +0.019 A 
BRANCH  32  35
ATOM      8  N   UNL     1      -7.821 -12.128  20.145  0.00  0.00    -0.191 NA
ATOM     35  C   UNL     1      -6.983 -11.801  19.412  0.00  0.00    +0.099 C 
ENDBRANCH  32  35
ENDBRANCH   7  26
ENDBRANCH  16   4
ENDBRANCH  11  16
TORSDOF 6
ENDMDL
MODEL 8
REMARK VINA RESULT:      -7.5     14.551     18.959
REMARK  Name = 40777250
REMARK  7 active torsions:
REMARK  status: ('A' for Active; 'I' for Inactive)
REMARK    1  A    between atoms: N_4  and  C_16
REMARK    2  A    between atoms: N_7  and  C_26
REMARK    3  A    between atoms: C_10  and  C_17
REMARK    4  A    between atoms: C_11  and  C_16
REMARK    5  A    between atoms: C_19  and  C_22
REMARK    6  A    between atoms: C_20  and  C_23
REMARK    7  A    between atoms: C_32  and  C_35
REMARK                            x       y       z     vdW  Elec       q    Type
REMARK                         _______ _______ _______ _____ _____    ______ ____
ROOT
ATOM      3  N   UNL     1      13.558   5.554  -0.207  0.00  0.00    -0.297 NA
ATOM      9  C   UNL     1      12.416   3.680   1.197  0.00  0.00    +0.002 C 
ATOM     10  C   UNL     1      11.450   4.883   1.006  0.00  0.00    +0.055 C 
ATOM     11  C   UNL     1      14.455   5.129   0.900  0.00  0.00    +0.074 C 
ATOM     12  C   UNL     1      13.718   4.173   1.862  0.00  0.00    +0.024 C 
ATOM     13  C   UNL     1      12.788   3.181  -0.216  0.00  0.00    +0.019 C 
ATOM     14  C   UNL     1      12.264   6.030   0.342  0.00  0.00    +0.094 C 
ATOM     15  C   UNL     1      13.291   4.368  -1.056  0.00  0.00    +0.085 C 
ENDROOT
BRANCH  10  17
ATOM      5  N   UNL     1      10.690   4.583   3.312  0.00  0.00    -0.237 NA
ATOM      6  N   UNL     1       9.243   6.170   4.403  0.00  0.00    -0.232 NA
ATOM     17  C   UNL     1      10.654   5.363   2.211  0.00  0.00    +0.050 A 
ATOM     18  C   UNL     1       9.944   6.543   2.132  0.00  0.00    +0.052 A 
ATOM     19  C   UNL     1       9.250   6.901   3.270  0.00  0.00    +0.075 A 
ATOM     20  C   UNL     1       9.973   5.040   4.356  0.00  0.00    +0.127 A 
ATOM     23  C   UNL     1       9.987   4.204   5.590  0.00  0.00    +0.088 C 
BRANCH  19  22
ATOM      1  F   UNL     1       6.226  11.578   3.445  0.00  0.00    -0.205 F 
ATOM     22  C   UNL     1       8.467   8.113   3.315  0.00  0.00    +0.001 A 
ATOM     24  C   UNL     1       7.998   8.595   4.537  0.00  0.00    +0.013 A 
ATOM     25  C   UNL     1       8.179   8.802   2.137  0.00  0.00    +0.013 A 
ATOM     27  C   UNL     1       7.241   9.765   4.581  0.00  0.00    +0.039 A 
ATOM     28  C   UNL     1       7.422   9.972   2.181  0.00  0.00    +0.039 A 
ATOM     29  C   UNL     1       6.953  10.454   3.402  0.00  0.00    +0.123 A 
ENDBRANCH  19  22
ENDBRANCH  10  17
BRANCH  11  16
ATOM     16  C   UNL     1      15.070   6.319   1.640  0.00  0.00    +0.124 C 
BRANCH  16   4
ATOM      2  O   UNL     1      13.513   8.349   2.928  0.00  0.00    -0.253 OA
ATOM      4  N   UNL     1      14.655   6.338   3.009  0.00  0.00    -0.298 N 
ATOM      7  N   UNL     1      13.636   7.121   4.925  0.00  0.00    -0.269 N 
ATOM     21  C   UNL     1      13.887   7.373   3.574  0.00  0.00    +0.304 C 
ATOM     36  H   UNL     1      14.933   5.565   3.606  0.00  0.00    +0.150 HD
ATOM     37  H   UNL     1      14.021   6.262   5.308  0.00  0.00    +0.156 HD
BRANCH   7  26
ATOM     26  C   UNL     1      12.904   7.919   5.835  0.00  0.00    +0.036 A 
ATOM     30  C   UNL     1      11.659   7.489   6.296  0.00  0.00    +0.042 A 
ATOM     31  C   UNL     1      13.428   9.136   6.274  0.00  0.00    +0.023 A 
ATOM     32  C   UNL     1      10.938   8.277   7.194  0.00  0.00    +0.054 A 
ATOM     33  C   UNL     1      12.707   9.922   7.172  0.00  0.00    +0.003 A 
ATOM     34  C   UNL     1      11.463   9.493   7.632  0.00  0.00    +0.019 A 
BRANCH  32  35
ATOM      8  N   UNL     1       8.628   7.480   8.050  0.00  0.00    -0.191 NA
ATOM     35  C   UNL     1       9.664   7.837   7.667  0.00  0.00    +0.099 C 
ENDBRANCH  32  35
ENDBRANCH   7  26
ENDBRANCH  16   4
ENDBRANCH  11  16
TORSDOF 6
ENDMDL
MODEL 9
REMARK VINA RESULT:      -7.5     15.629     19.894
REMARK  Name = 40777250
REMARK  7 active torsions:
REMARK  status: ('A' for Active; 'I' for Inactive)
REMARK    1  A    between atoms: N_4  and  C_16
REMARK    2  A    between atoms: N_7  and  C_26
REMARK    3  A    between atoms: C_10  and  C_17
REMARK    4  A    between atoms: C_11  and  C_16
REMARK    5  A    between atoms: C_19  and  C_22
REMARK    6  A    between atoms: C_20  and  C_23
REMARK    7  A    between atoms: C_32  and  C_35
REMARK                            x       y       z     vdW  Elec       q    Type
REMARK                         _______ _______ _______ _____ _____    ______ ____
ROOT
ATOM      3  N   UNL     1      13.923   4.818  -1.149  0.00  0.00    -0.297 NA
ATOM      9  C   UNL     1      11.980   3.621   0.108  0.00  0.00    +0.002 C 
ATOM     10  C   UNL     1      11.526   5.021  -0.391  0.00  0.00    +0.055 C 
ATOM     11  C   UNL     1      14.404   4.306   0.161  0.00  0.00    +0.074 C 
ATOM     12  C   UNL     1      13.224   3.780   1.007  0.00  0.00    +0.024 C 
ATOM     13  C   UNL     1      12.421   2.827  -1.140  0.00  0.00    +0.019 C 
ATOM     14  C   UNL     1      12.784   5.747  -0.945  0.00  0.00    +0.094 C 
ATOM     15  C   UNL     1      13.438   3.660  -1.938  0.00  0.00    +0.085 C 
ENDROOT
BRANCH  10  17
ATOM      5  N   UNL     1      10.181   7.019   0.045  0.00  0.00    -0.237 NA
ATOM      6  N   UNL     1       9.284   7.512   2.225  0.00  0.00    -0.232 NA
ATOM     17  C   UNL     1      10.726   5.898   0.562  0.00  0.00    +0.050 A 
ATOM     18  C   UNL     1      10.595   5.523   1.884  0.00  0.00    +0.052 A 
ATOM     19  C   UNL     1       9.856   6.376   2.677  0.00  0.00    +0.075 A 
ATOM     20  C   UNL     1       9.484   7.768   0.919  0.00  0.00    +0.127 A 
ATOM     23  C   UNL     1       8.868   9.016   0.384  0.00  0.00    +0.088 C 
BRANCH  19  22
ATOM      1  F   UNL     1       9.045   5.300   8.084  0.00  0.00    -0.205 F 
ATOM     22  C   UNL     1       9.646   6.098   4.078  0.00  0.00    +0.001 A 
ATOM     24  C   UNL     1      10.222   4.969   4.658  0.00  0.00    +0.013 A 
ATOM     25  C   UNL     1       8.866   6.958   4.851  0.00  0.00    +0.013 A 
ATOM     27  C   UNL     1      10.020   4.699   6.012  0.00  0.00    +0.039 A 
ATOM     28  C   UNL     1       8.663   6.688   6.204  0.00  0.00    +0.039 A 
ATOM     29  C   UNL     1       9.240   5.559   6.785  0.00  0.00    +0.123 A 
ENDBRANCH  19  22
ENDBRANCH  10  17
BRANCH  11  16
ATOM     16  C   UNL     1      15.232   5.343   0.923  0.00  0.00    +0.124 C 
BRANCH  16   4
ATOM      2  O   UNL     1      13.728   7.589   1.870  0.00  0.00    -0.253 OA
ATOM      4  N   UNL     1      14.721   5.534   2.245  0.00  0.00    -0.298 N 
ATOM      7  N   UNL     1      13.620   6.577   3.985  0.00  0.00    -0.269 N 
ATOM     21  C   UNL     1      13.986   6.667   2.639  0.00  0.00    +0.304 C 
ATOM     36  H   UNL     1      14.900   4.814   2.938  0.00  0.00    +0.150 HD
ATOM     37  H   UNL     1      13.917   5.741   4.483  0.00  0.00    +0.156 HD
BRANCH   7  26
ATOM     26  C   UNL     1      12.880   7.510   4.747  0.00  0.00    +0.036 A 
ATOM     30  C   UNL     1      12.270   8.597   4.120  0.00  0.00    +0.042 A 
ATOM     31  C   UNL     1      12.757   7.342   6.127  0.00  0.00    +0.023 A 
ATOM     32  C   UNL     1      11.539   9.517   4.874  0.00  0.00    +0.054 A 
ATOM     33  C   UNL     1      12.026   8.261   6.879  0.00  0.00    +0.003 A 
ATOM     34  C   UNL     1      11.417   9.348   6.253  0.00  0.00    +0.019 A 
BRANCH  32  35
ATOM      8  N   UNL     1      10.407  11.533   3.710  0.00  0.00    -0.191 NA
ATOM     35  C   UNL     1      10.915  10.629   4.232  0.00  0.00    +0.099 C 
ENDBRANCH  32  35
ENDBRANCH   7  26
ENDBRANCH  16   4
ENDBRANCH  11  16
TORSDOF 6
ENDMDL
MODEL 10
REMARK VINA RESULT:      -7.4     25.869     29.657
REMARK  Name = 40777250
REMARK  7 active torsions:
REMARK  status: ('A' for Active; 'I' for Inactive)
REMARK    1  A    between atoms: N_4  and  C_16
REMARK    2  A    between atoms: N_7  and  C_26
REMARK    3  A    between atoms: C_10  and  C_17
REMARK    4  A    between atoms: C_11  and  C_16
REMARK    5  A    between atoms: C_19  and  C_22
REMARK    6  A    between atoms: C_20  and  C_23
REMARK    7  A    between atoms: C_32  and  C_35
REMARK                            x       y       z     vdW  Elec       q    Type
REMARK                         _______ _______ _______ _____ _____    ______ ____
ROOT
ATOM      3  N   UNL     1      -6.769 -11.051  18.563  0.00  0.00    -0.297 NA
ATOM      9  C   UNL     1      -6.398 -12.503  16.433  0.00  0.00    +0.002 C 
ATOM     10  C   UNL     1      -5.049 -11.913  16.931  0.00  0.00    +0.055 C 
ATOM     11  C   UNL     1      -7.730 -10.651  17.501  0.00  0.00    +0.074 C 
ATOM     12  C   UNL     1      -7.392 -11.352  16.168  0.00  0.00    +0.024 C 
ATOM     13  C   UNL     1      -6.973 -13.341  17.595  0.00  0.00    +0.019 C 
ATOM     14  C   UNL     1      -5.377 -10.906  18.070  0.00  0.00    +0.094 C 
ATOM     15  C   UNL     1      -7.003 -12.482  18.871  0.00  0.00    +0.085 C 
ENDROOT
BRANCH  10  17
ATOM      5  N   UNL     1      -2.832 -11.092  16.303  0.00  0.00    -0.237 NA
ATOM      6  N   UNL     1      -2.346 -10.272  14.090  0.00  0.00    -0.232 NA
ATOM     17  C   UNL     1      -4.097 -11.326  15.898  0.00  0.00    +0.050 A 
ATOM     18  C   UNL     1      -4.555 -11.062  14.623  0.00  0.00    +0.052 A 
ATOM     19  C   UNL     1      -3.625 -10.531  13.752  0.00  0.00    +0.075 A 
ATOM     20  C   UNL     1      -2.021 -10.573  15.362  0.00  0.00    +0.127 A 
ATOM     23  C   UNL     1      -0.614 -10.298  15.773  0.00  0.00    +0.088 C 
BRANCH  19  22
ATOM      1  F   UNL     1      -4.990  -9.290   8.494  0.00  0.00    -0.205 F 
ATOM     22  C   UNL     1      -3.979 -10.209  12.390  0.00  0.00    +0.001 A 
ATOM     24  C   UNL     1      -5.270  -9.778  12.088  0.00  0.00    +0.013 A 
ATOM     25  C   UNL     1      -3.029 -10.330  11.376  0.00  0.00    +0.013 A 
ATOM     27  C   UNL     1      -5.612  -9.467  10.773  0.00  0.00    +0.039 A 
ATOM     28  C   UNL     1      -3.371 -10.020  10.060  0.00  0.00    +0.039 A 
ATOM     29  C   UNL     1      -4.662  -9.588   9.758  0.00  0.00    +0.123 A 
ENDBRANCH  19  22
ENDBRANCH  10  17
BRANCH  11  16
ATOM     16  C   UNL     1      -7.819  -9.132  17.339  0.00  0.00    +0.124 C 
BRANCH  16   4
ATOM      2  O   UNL     1     -10.336  -7.772  17.492  0.00  0.00    -0.253 OA
ATOM      4  N   UNL     1      -8.672  -8.786  16.244  0.00  0.00    -0.298 N 
ATOM      7  N   UNL     1     -10.509  -7.912  15.155  0.00  0.00    -0.269 N 
ATOM     21  C   UNL     1      -9.899  -8.114  16.396  0.00  0.00    +0.304 C 
ATOM     36  H   UNL     1      -8.377  -9.041  15.307  0.00  0.00    +0.150 HD
ATOM     37  H   UNL     1     -10.011  -8.259  14.340  0.00  0.00    +0.156 HD
BRANCH   7  26
ATOM     26  C   UNL     1     -11.745  -7.277  14.889  0.00  0.00    +0.036 A 
ATOM     30  C   UNL     1     -11.774  -6.076  14.181  0.00  0.00    +0.042 A 
ATOM     31  C   UNL     1     -12.935  -7.854  15.333  0.00  0.00    +0.023 A 
ATOM     32  C   UNL     1     -12.994  -5.450  13.918  0.00  0.00    +0.054 A 
ATOM     33  C   UNL     1     -14.154  -7.229  15.070  0.00  0.00    +0.003 A 
ATOM     34  C   UNL     1     -14.183  -6.028  14.363  0.00  0.00    +0.019 A 
BRANCH  32  35
ATOM      8  N   UNL     1     -13.050  -3.221  12.603  0.00  0.00    -0.191 NA
ATOM     35  C   UNL     1     -13.024  -4.220  13.192  0.00  0.00    +0.099 C 
ENDBRANCH  32  35
ENDBRANCH   7  26
ENDBRANCH  16   4
ENDBRANCH  11  16
TORSDOF 6
ENDMDL
