MODEL 1
REMARK VINA RESULT:      -7.0      0.000      0.000
REMARK  Name = 75367646
REMARK  6 active torsions:
REMARK  status: ('A' for Active; 'I' for Inactive)
REMARK    1  A    between atoms: O_5  and  C_11
REMARK    2  A    between atoms: O_5  and  C_19
REMARK    3  A    between atoms: N_8  and  C_21
REMARK    4  A    between atoms: C_16  and  C_17
REMARK    5  A    between atoms: C_20  and  C_23
REMARK    6  A    between atoms: C_25  and  C_27
REMARK                            x       y       z     vdW  Elec       q    Type
REMARK                         _______ _______ _______ _____ _____    ______ ____
ROOT
ATOM      4  O   UNL     1       8.567   8.724   2.545  0.00  0.00    -0.375 OA
ATOM      6  O   UNL     1       9.349   9.560   7.426  0.00  0.00    -0.268 OA
ATOM      7  N   UNL     1       8.667   8.318   5.558  0.00  0.00    -0.291 N 
ATOM     11  C   UNL     1       9.623   6.844   3.822  0.00  0.00    +0.218 C 
ATOM     12  C   UNL     1       8.530   7.022   4.874  0.00  0.00    +0.155 C 
ATOM     13  C   UNL     1       8.249   9.500   4.801  0.00  0.00    +0.136 C 
ATOM     14  C   UNL     1       9.306   7.510   2.480  0.00  0.00    +0.206 C 
ATOM     15  C   UNL     1       9.031   9.669   3.502  0.00  0.00    +0.179 C 
ATOM     16  C   UNL     1       9.195   8.486   6.845  0.00  0.00    +0.265 C 
ENDROOT
BRANCH  16  17
ATOM      8  N   UNL     1      10.842   6.705   7.517  0.00  0.00    -0.262 N 
ATOM      9  N   UNL     1      10.970   5.615   8.294  0.00  0.00    -0.176 NA
ATOM     17  C   UNL     1       9.611   7.289   7.585  0.00  0.00    +0.123 A 
ATOM     18  C   UNL     1       8.884   6.528   8.467  0.00  0.00    +0.057 A 
ATOM     20  C   UNL     1       9.771   5.513   8.872  0.00  0.00    +0.061 A 
ATOM     21  C   UNL     1      11.965   7.139   6.719  0.00  0.00    +0.173 C 
ATOM     23  C   UNL     1       9.506   4.417   9.819  0.00  0.00    +0.067 C 
ENDBRANCH  16  17
BRANCH  11   5
ATOM      5  O   UNL     1       9.831   5.448   3.607  0.00  0.00    -0.469 OA
BRANCH   5  19
ATOM     10  N   UNL     1      12.001   6.004   3.009  0.00  0.00    -0.221 NA
ATOM     19  C   UNL     1      11.003   5.092   3.000  0.00  0.00    +0.215 A 
ATOM     22  C   UNL     1      11.104   3.838   2.417  0.00  0.00    +0.068 A 
ATOM     24  C   UNL     1      12.305   3.500   1.806  0.00  0.00    +0.019 A 
ATOM     25  C   UNL     1      13.356   4.411   1.796  0.00  0.00    +0.073 A 
ATOM     26  C   UNL     1      13.154   5.639   2.405  0.00  0.00    +0.127 A 
BRANCH  25  27
ATOM      1  F   UNL     1      15.449   3.258   1.900  0.00  0.00    -0.166 F 
ATOM      2  F   UNL     1      14.524   3.441  -0.052  0.00  0.00    -0.166 F 
ATOM      3  F   UNL     1      15.415   5.184   0.893  0.00  0.00    -0.166 F 
ATOM     27  C   UNL     1      14.654   4.079   1.150  0.00  0.00    +0.419 C 
ENDBRANCH  25  27
ENDBRANCH   5  19
ENDBRANCH  11   5
TORSDOF 4
ENDMDL
MODEL 2
REMARK VINA RESULT:      -6.5     24.369     26.323
REMARK  Name = 75367646
REMARK  6 active torsions:
REMARK  status: ('A' for Active; 'I' for Inactive)
REMARK    1  A    between atoms: O_5  and  C_11
REMARK    2  A    between atoms: O_5  and  C_19
REMARK    3  A    between atoms: N_8  and  C_21
REMARK    4  A    between atoms: C_16  and  C_17
REMARK    5  A    between atoms: C_20  and  C_23
REMARK    6  A    between atoms: C_25  and  C_27
REMARK                            x       y       z     vdW  Elec       q    Type
REMARK                         _______ _______ _______ _____ _____    ______ ____
ROOT
ATOM      4  O   UNL     1      -7.714 -10.190  10.488  0.00  0.00    -0.375 OA
ATOM      6  O   UNL     1      -3.239 -12.411  10.917  0.00  0.00    -0.268 OA
ATOM      7  N   UNL     1      -4.835 -10.739  11.307  0.00  0.00    -0.291 N 
ATOM     11  C   UNL     1      -6.746 -10.266  12.799  0.00  0.00    +0.218 C 
ATOM     12  C   UNL     1      -5.440  -9.742  12.206  0.00  0.00    +0.155 C 
ATOM     13  C   UNL     1      -5.466 -10.897   9.994  0.00  0.00    +0.136 C 
ATOM     14  C   UNL     1      -7.960 -10.079  11.885  0.00  0.00    +0.206 C 
ATOM     15  C   UNL     1      -6.931 -11.311  10.096  0.00  0.00    +0.179 C 
ATOM     16  C   UNL     1      -3.742 -11.550  11.637  0.00  0.00    +0.265 C 
ENDROOT
BRANCH  16  17
ATOM      8  N   UNL     1      -3.401 -12.130  14.063  0.00  0.00    -0.262 N 
ATOM      9  N   UNL     1      -2.702 -11.769  15.154  0.00  0.00    -0.176 NA
ATOM     17  C   UNL     1      -3.127 -11.378  12.959  0.00  0.00    +0.123 A 
ATOM     18  C   UNL     1      -2.183 -10.462  13.354  0.00  0.00    +0.057 A 
ATOM     20  C   UNL     1      -1.959 -10.750  14.714  0.00  0.00    +0.061 A 
ATOM     21  C   UNL     1      -4.336 -13.227  14.155  0.00  0.00    +0.173 C 
ATOM     23  C   UNL     1      -1.035 -10.068  15.635  0.00  0.00    +0.067 C 
ENDBRANCH  16  17
BRANCH  11   5
ATOM      5  O   UNL     1      -6.990  -9.596  14.035  0.00  0.00    -0.469 OA
BRANCH   5  19
ATOM     10  N   UNL     1      -7.198 -11.398  15.479  0.00  0.00    -0.221 NA
ATOM     19  C   UNL     1      -6.577 -10.238  15.169  0.00  0.00    +0.215 A 
ATOM     22  C   UNL     1      -5.563  -9.675  15.928  0.00  0.00    +0.068 A 
ATOM     24  C   UNL     1      -5.160 -10.346  17.076  0.00  0.00    +0.019 A 
ATOM     25  C   UNL     1      -5.775 -11.543  17.428  0.00  0.00    +0.073 A 
ATOM     26  C   UNL     1      -6.779 -12.022  16.604  0.00  0.00    +0.127 A 
BRANCH  25  27
ATOM      1  F   UNL     1      -4.544 -11.573  19.479  0.00  0.00    -0.166 F 
ATOM      2  F   UNL     1      -6.416 -12.667  19.439  0.00  0.00    -0.166 F 
ATOM      3  F   UNL     1      -4.688 -13.437  18.369  0.00  0.00    -0.166 F 
ATOM     27  C   UNL     1      -5.366 -12.285  18.651  0.00  0.00    +0.419 C 
ENDBRANCH  25  27
ENDBRANCH   5  19
ENDBRANCH  11   5
TORSDOF 4
ENDMDL
MODEL 3
REMARK VINA RESULT:      -6.4      1.431      1.869
REMARK  Name = 75367646
REMARK  6 active torsions:
REMARK  status: ('A' for Active; 'I' for Inactive)
REMARK    1  A    between atoms: O_5  and  C_11
REMARK    2  A    between atoms: O_5  and  C_19
REMARK    3  A    between atoms: N_8  and  C_21
REMARK    4  A    between atoms: C_16  and  C_17
REMARK    5  A    between atoms: C_20  and  C_23
REMARK    6  A    between atoms: C_25  and  C_27
REMARK                            x       y       z     vdW  Elec       q    Type
REMARK                         _______ _______ _______ _____ _____    ______ ____
ROOT
ATOM      4  O   UNL     1       8.493  10.688   3.741  0.00  0.00    -0.375 OA
ATOM      6  O   UNL     1      10.649   9.749   8.169  0.00  0.00    -0.268 OA
ATOM      7  N   UNL     1       9.135   9.388   6.415  0.00  0.00    -0.291 N 
ATOM     11  C   UNL     1       9.035   8.285   4.208  0.00  0.00    +0.218 C 
ATOM     12  C   UNL     1       8.367   8.460   5.570  0.00  0.00    +0.155 C 
ATOM     13  C   UNL     1       9.026  10.811   6.085  0.00  0.00    +0.136 C 
ATOM     14  C   UNL     1       8.686   9.386   3.201  0.00  0.00    +0.206 C 
ATOM     15  C   UNL     1       9.486  11.118   4.664  0.00  0.00    +0.179 C 
ATOM     16  C   UNL     1       9.973   8.997   7.468  0.00  0.00    +0.265 C 
ENDROOT
BRANCH  16  17
ATOM      8  N   UNL     1      11.052   6.726   7.343  0.00  0.00    -0.262 N 
ATOM      9  N   UNL     1      10.913   5.459   7.770  0.00  0.00    -0.176 NA
ATOM     17  C   UNL     1      10.071   7.566   7.781  0.00  0.00    +0.123 A 
ATOM     18  C   UNL     1       9.232   6.795   8.547  0.00  0.00    +0.057 A 
ATOM     20  C   UNL     1       9.800   5.507   8.506  0.00  0.00    +0.061 A 
ATOM     21  C   UNL     1      12.173   7.068   6.499  0.00  0.00    +0.173 C 
ATOM     23  C   UNL     1       9.303   4.287   9.162  0.00  0.00    +0.067 C 
ENDBRANCH  16  17
BRANCH  11   5
ATOM      5  O   UNL     1       8.648   7.023   3.665  0.00  0.00    -0.469 OA
BRANCH   5  19
ATOM     10  N   UNL     1      10.129   6.548   1.945  0.00  0.00    -0.221 NA
ATOM     19  C   UNL     1       9.653   6.237   3.172  0.00  0.00    +0.215 A 
ATOM     22  C   UNL     1      10.120   5.183   3.941  0.00  0.00    +0.068 A 
ATOM     24  C   UNL     1      11.141   4.399   3.419  0.00  0.00    +0.019 A 
ATOM     25  C   UNL     1      11.658   4.687   2.160  0.00  0.00    +0.073 A 
ATOM     26  C   UNL     1      11.122   5.762   1.470  0.00  0.00    +0.127 A 
BRANCH  25  27
ATOM      1  F   UNL     1      12.744   3.835   0.207  0.00  0.00    -0.166 F 
ATOM      2  F   UNL     1      14.004   4.298   1.909  0.00  0.00    -0.166 F 
ATOM      3  F   UNL     1      12.701   2.559   1.966  0.00  0.00    -0.166 F 
ATOM     27  C   UNL     1      12.752   3.866   1.573  0.00  0.00    +0.419 C 
ENDBRANCH  25  27
ENDBRANCH   5  19
ENDBRANCH  11   5
TORSDOF 4
ENDMDL
MODEL 4
REMARK VINA RESULT:      -6.4     23.594     25.620
REMARK  Name = 75367646
REMARK  6 active torsions:
REMARK  status: ('A' for Active; 'I' for Inactive)
REMARK    1  A    between atoms: O_5  and  C_11
REMARK    2  A    between atoms: O_5  and  C_19
REMARK    3  A    between atoms: N_8  and  C_21
REMARK    4  A    between atoms: C_16  and  C_17
REMARK    5  A    between atoms: C_20  and  C_23
REMARK    6  A    between atoms: C_25  and  C_27
REMARK                            x       y       z     vdW  Elec       q    Type
REMARK                         _______ _______ _______ _____ _____    ______ ____
ROOT
ATOM      4  O   UNL     1      -9.443  -9.230  16.387  0.00  0.00    -0.375 OA
ATOM      6  O   UNL     1      -4.668 -10.268  17.509  0.00  0.00    -0.268 OA
ATOM      7  N   UNL     1      -6.742 -10.627  16.476  0.00  0.00    -0.291 N 
ATOM     11  C   UNL     1      -7.994  -9.927  14.465  0.00  0.00    +0.218 C 
ATOM     12  C   UNL     1      -7.522 -11.100  15.322  0.00  0.00    +0.155 C 
ATOM     13  C   UNL     1      -7.503 -10.023  17.573  0.00  0.00    +0.136 C 
ATOM     14  C   UNL     1      -9.276  -9.264  14.975  0.00  0.00    +0.206 C 
ATOM     15  C   UNL     1      -8.304  -8.804  17.125  0.00  0.00    +0.179 C 
ATOM     16  C   UNL     1      -5.345 -10.685  16.570  0.00  0.00    +0.265 C 
ENDROOT
BRANCH  16  17
ATOM      8  N   UNL     1      -4.383 -12.626  15.288  0.00  0.00    -0.262 N 
ATOM      9  N   UNL     1      -3.670 -12.924  14.188  0.00  0.00    -0.176 NA
ATOM     17  C   UNL     1      -4.601 -11.291  15.460  0.00  0.00    +0.123 A 
ATOM     18  C   UNL     1      -3.988 -10.672  14.398  0.00  0.00    +0.057 A 
ATOM     20  C   UNL     1      -3.432 -11.725  13.648  0.00  0.00    +0.061 A 
ATOM     21  C   UNL     1      -4.832 -13.695  16.149  0.00  0.00    +0.173 C 
ATOM     23  C   UNL     1      -2.659 -11.627  12.399  0.00  0.00    +0.067 C 
ENDBRANCH  16  17
BRANCH  11   5
ATOM      5  O   UNL     1      -8.211 -10.389  13.132  0.00  0.00    -0.469 OA
BRANCH   5  19
ATOM     10  N   UNL     1      -6.868 -11.229  11.438  0.00  0.00    -0.221 NA
ATOM     19  C   UNL     1      -7.191 -10.191  12.244  0.00  0.00    +0.215 A 
ATOM     22  C   UNL     1      -6.552  -8.961  12.217  0.00  0.00    +0.068 A 
ATOM     24  C   UNL     1      -5.519  -8.784  11.305  0.00  0.00    +0.019 A 
ATOM     25  C   UNL     1      -5.158  -9.828  10.459  0.00  0.00    +0.073 A 
ATOM     26  C   UNL     1      -5.858 -11.019  10.565  0.00  0.00    +0.127 A 
BRANCH  25  27
ATOM      1  F   UNL     1      -3.707 -10.834   8.845  0.00  0.00    -0.166 F 
ATOM      2  F   UNL     1      -4.343  -8.797   8.461  0.00  0.00    -0.166 F 
ATOM      3  F   UNL     1      -2.903  -9.204  10.038  0.00  0.00    -0.166 F 
ATOM     27  C   UNL     1      -4.056  -9.670   9.472  0.00  0.00    +0.419 C 
ENDBRANCH  25  27
ENDBRANCH   5  19
ENDBRANCH  11   5
TORSDOF 4
ENDMDL
MODEL 5
REMARK VINA RESULT:      -6.2      3.863      6.968
REMARK  Name = 75367646
REMARK  6 active torsions:
REMARK  status: ('A' for Active; 'I' for Inactive)
REMARK    1  A    between atoms: O_5  and  C_11
REMARK    2  A    between atoms: O_5  and  C_19
REMARK    3  A    between atoms: N_8  and  C_21
REMARK    4  A    between atoms: C_16  and  C_17
REMARK    5  A    between atoms: C_20  and  C_23
REMARK    6  A    between atoms: C_25  and  C_27
REMARK                            x       y       z     vdW  Elec       q    Type
REMARK                         _______ _______ _______ _____ _____    ______ ____
ROOT
ATOM      4  O   UNL     1       8.789   7.957  -2.019  0.00  0.00    -0.375 OA
ATOM      6  O   UNL     1      10.678   3.313  -1.962  0.00  0.00    -0.268 OA
ATOM      7  N   UNL     1      10.712   5.633  -1.626  0.00  0.00    -0.291 N 
ATOM     11  C   UNL     1      10.029   7.305   0.059  0.00  0.00    +0.218 C 
ATOM     12  C   UNL     1      11.153   6.798  -0.842  0.00  0.00    +0.155 C 
ATOM     13  C   UNL     1       9.819   5.909  -2.754  0.00  0.00    +0.136 C 
ATOM     14  C   UNL     1       9.043   8.238  -0.648  0.00  0.00    +0.206 C 
ATOM     15  C   UNL     1       8.526   6.592  -2.321  0.00  0.00    +0.179 C 
ATOM     16  C   UNL     1      11.058   4.305  -1.342  0.00  0.00    +0.265 C 
ENDROOT
BRANCH  16  17
ATOM      8  N   UNL     1      11.556   3.886   1.089  0.00  0.00    -0.262 N 
ATOM      9  N   UNL     1      12.571   3.664   1.943  0.00  0.00    -0.176 NA
ATOM     17  C   UNL     1      11.951   4.050  -0.206  0.00  0.00    +0.123 A 
ATOM     18  C   UNL     1      13.319   3.927  -0.199  0.00  0.00    +0.057 A 
ATOM     20  C   UNL     1      13.645   3.690   1.150  0.00  0.00    +0.061 A 
ATOM     21  C   UNL     1      10.204   3.929   1.596  0.00  0.00    +0.173 C 
ATOM     23  C   UNL     1      14.984   3.481   1.725  0.00  0.00    +0.067 C 
ENDBRANCH  16  17
BRANCH  11   5
ATOM      5  O   UNL     1      10.604   7.994   1.168  0.00  0.00    -0.469 OA
BRANCH   5  19
ATOM     10  N   UNL     1      11.538   6.903   2.989  0.00  0.00    -0.221 NA
ATOM     19  C   UNL     1      10.437   7.420   2.398  0.00  0.00    +0.215 A 
ATOM     22  C   UNL     1       9.171   7.397   2.962  0.00  0.00    +0.068 A 
ATOM     24  C   UNL     1       9.026   6.807   4.212  0.00  0.00    +0.019 A 
ATOM     25  C   UNL     1      10.136   6.265   4.852  0.00  0.00    +0.073 A 
ATOM     26  C   UNL     1      11.358   6.338   4.204  0.00  0.00    +0.127 A 
BRANCH  25  27
ATOM      1  F   UNL     1       9.959   4.262   6.147  0.00  0.00    -0.166 F 
ATOM      2  F   UNL     1      11.052   5.912   7.033  0.00  0.00    -0.166 F 
ATOM      3  F   UNL     1       8.887   6.014   6.860  0.00  0.00    -0.166 F 
ATOM     27  C   UNL     1      10.014   5.627   6.191  0.00  0.00    +0.419 C 
ENDBRANCH  25  27
ENDBRANCH   5  19
ENDBRANCH  11   5
TORSDOF 4
ENDMDL
MODEL 6
REMARK VINA RESULT:      -6.1     24.117     26.275
REMARK  Name = 75367646
REMARK  6 active torsions:
REMARK  status: ('A' for Active; 'I' for Inactive)
REMARK    1  A    between atoms: O_5  and  C_11
REMARK    2  A    between atoms: O_5  and  C_19
REMARK    3  A    between atoms: N_8  and  C_21
REMARK    4  A    between atoms: C_16  and  C_17
REMARK    5  A    between atoms: C_20  and  C_23
REMARK    6  A    between atoms: C_25  and  C_27
REMARK                            x       y       z     vdW  Elec       q    Type
REMARK                         _______ _______ _______ _____ _____    ______ ____
ROOT
ATOM      4  O   UNL     1     -10.944 -10.486  13.514  0.00  0.00    -0.375 OA
ATOM      6  O   UNL     1      -8.499  -8.269  17.288  0.00  0.00    -0.268 OA
ATOM      7  N   UNL     1      -9.105 -10.058  15.900  0.00  0.00    -0.291 N 
ATOM     11  C   UNL     1      -8.506 -11.034  13.712  0.00  0.00    +0.218 C 
ATOM     12  C   UNL     1      -8.746 -11.300  15.196  0.00  0.00    +0.155 C 
ATOM     13  C   UNL     1     -10.465  -9.558  15.683  0.00  0.00    +0.136 C 
ATOM     14  C   UNL     1      -9.786 -11.008  12.872  0.00  0.00    +0.206 C 
ATOM     15  C   UNL     1     -10.752  -9.263  14.214  0.00  0.00    +0.179 C 
ATOM     16  C   UNL     1      -8.233  -9.325  16.715  0.00  0.00    +0.265 C 
ENDROOT
BRANCH  16  17
ATOM      8  N   UNL     1      -6.468 -10.613  17.965  0.00  0.00    -0.262 N 
ATOM      9  N   UNL     1      -5.169 -10.955  17.917  0.00  0.00    -0.176 NA
ATOM     17  C   UNL     1      -6.874  -9.841  16.917  0.00  0.00    +0.123 A 
ATOM     18  C   UNL     1      -5.764  -9.667  16.128  0.00  0.00    +0.057 A 
ATOM     20  C   UNL     1      -4.744 -10.375  16.792  0.00  0.00    +0.061 A 
ATOM     21  C   UNL     1      -7.278 -11.070  19.070  0.00  0.00    +0.173 C 
ATOM     23  C   UNL     1      -3.339 -10.521  16.379  0.00  0.00    +0.067 C 
ENDBRANCH  16  17
BRANCH  11   5
ATOM      5  O   UNL     1      -7.637 -12.044  13.198  0.00  0.00    -0.469 OA
BRANCH   5  19
ATOM     10  N   UNL     1      -5.390 -12.592  13.362  0.00  0.00    -0.221 NA
ATOM     19  C   UNL     1      -6.331 -11.687  13.009  0.00  0.00    +0.215 A 
ATOM     22  C   UNL     1      -6.046 -10.440  12.477  0.00  0.00    +0.068 A 
ATOM     24  C   UNL     1      -4.711 -10.100  12.295  0.00  0.00    +0.019 A 
ATOM     25  C   UNL     1      -3.714 -11.005  12.645  0.00  0.00    +0.073 A 
ATOM     26  C   UNL     1      -4.103 -12.226  13.170  0.00  0.00    +0.127 A 
BRANCH  25  27
ATOM      1  F   UNL     1      -1.752  -9.917  13.474  0.00  0.00    -0.166 F 
ATOM      2  F   UNL     1      -1.462 -11.767  12.382  0.00  0.00    -0.166 F 
ATOM      3  F   UNL     1      -2.039  -9.960  11.319  0.00  0.00    -0.166 F 
ATOM     27  C   UNL     1      -2.275 -10.672  12.462  0.00  0.00    +0.419 C 
ENDBRANCH  25  27
ENDBRANCH   5  19
ENDBRANCH  11   5
TORSDOF 4
ENDMDL
MODEL 7
REMARK VINA RESULT:      -6.1     25.180     27.355
REMARK  Name = 75367646
REMARK  6 active torsions:
REMARK  status: ('A' for Active; 'I' for Inactive)
REMARK    1  A    between atoms: O_5  and  C_11
REMARK    2  A    between atoms: O_5  and  C_19
REMARK    3  A    between atoms: N_8  and  C_21
REMARK    4  A    between atoms: C_16  and  C_17
REMARK    5  A    between atoms: C_20  and  C_23
REMARK    6  A    between atoms: C_25  and  C_27
REMARK                            x       y       z     vdW  Elec       q    Type
REMARK                         _______ _______ _______ _____ _____    ______ ____
ROOT
ATOM      4  O   UNL     1     -10.655 -10.174  13.157  0.00  0.00    -0.375 OA
ATOM      6  O   UNL     1      -9.815  -8.196  17.687  0.00  0.00    -0.268 OA
ATOM      7  N   UNL     1      -9.968  -9.924  16.110  0.00  0.00    -0.291 N 
ATOM     11  C   UNL     1      -8.609 -10.996  14.349  0.00  0.00    +0.218 C 
ATOM     12  C   UNL     1      -9.484 -11.210  15.581  0.00  0.00    +0.155 C 
ATOM     13  C   UNL     1     -11.043  -9.274  15.356  0.00  0.00    +0.136 C 
ATOM     14  C   UNL     1      -9.400 -10.835  13.048  0.00  0.00    +0.206 C 
ATOM     15  C   UNL     1     -10.644  -8.970  13.915  0.00  0.00    +0.179 C 
ATOM     16  C   UNL     1      -9.450  -9.284  17.244  0.00  0.00    +0.265 C 
ENDROOT
BRANCH  16  17
ATOM      8  N   UNL     1      -8.530 -10.688  19.119  0.00  0.00    -0.262 N 
ATOM      9  N   UNL     1      -7.382 -11.193  19.604  0.00  0.00    -0.176 NA
ATOM     17  C   UNL     1      -8.372  -9.951  17.983  0.00  0.00    +0.123 A 
ATOM     18  C   UNL     1      -7.027  -9.975  17.704  0.00  0.00    +0.057 A 
ATOM     20  C   UNL     1      -6.468 -10.755  18.734  0.00  0.00    +0.061 A 
ATOM     21  C   UNL     1      -9.768 -10.957  19.813  0.00  0.00    +0.173 C 
ATOM     23  C   UNL     1      -5.050 -11.106  18.924  0.00  0.00    +0.067 C 
ENDBRANCH  16  17
BRANCH  11   5
ATOM      5  O   UNL     1      -7.722 -12.107  14.216  0.00  0.00    -0.469 OA
BRANCH   5  19
ATOM     10  N   UNL     1      -5.857 -10.738  14.059  0.00  0.00    -0.221 NA
ATOM     19  C   UNL     1      -6.410 -11.881  14.526  0.00  0.00    +0.215 A 
ATOM     22  C   UNL     1      -5.728 -12.818  15.286  0.00  0.00    +0.068 A 
ATOM     24  C   UNL     1      -4.395 -12.565  15.588  0.00  0.00    +0.019 A 
ATOM     25  C   UNL     1      -3.792 -11.400  15.126  0.00  0.00    +0.073 A 
ATOM     26  C   UNL     1      -4.559 -10.527  14.373  0.00  0.00    +0.127 A 
BRANCH  25  27
ATOM      1  F   UNL     1      -2.113 -10.929  16.764  0.00  0.00    -0.166 F 
ATOM      2  F   UNL     1      -1.501 -12.080  15.031  0.00  0.00    -0.166 F 
ATOM      3  F   UNL     1      -1.925  -9.957  14.829  0.00  0.00    -0.166 F 
ATOM     27  C   UNL     1      -2.366 -11.101  15.432  0.00  0.00    +0.419 C 
ENDBRANCH  25  27
ENDBRANCH   5  19
ENDBRANCH  11   5
TORSDOF 4
ENDMDL
MODEL 8
REMARK VINA RESULT:      -6.1     26.214     29.052
REMARK  Name = 75367646
REMARK  6 active torsions:
REMARK  status: ('A' for Active; 'I' for Inactive)
REMARK    1  A    between atoms: O_5  and  C_11
REMARK    2  A    between atoms: O_5  and  C_19
REMARK    3  A    between atoms: N_8  and  C_21
REMARK    4  A    between atoms: C_16  and  C_17
REMARK    5  A    between atoms: C_20  and  C_23
REMARK    6  A    between atoms: C_25  and  C_27
REMARK                            x       y       z     vdW  Elec       q    Type
REMARK                         _______ _______ _______ _____ _____    ______ ____
ROOT
ATOM      4  O   UNL     1      -9.271 -13.654  20.432  0.00  0.00    -0.375 OA
ATOM      6  O   UNL     1     -12.432 -11.902  16.956  0.00  0.00    -0.268 OA
ATOM      7  N   UNL     1     -10.932 -11.738  18.751  0.00  0.00    -0.291 N 
ATOM     11  C   UNL     1      -8.502 -11.627  19.174  0.00  0.00    +0.218 C 
ATOM     12  C   UNL     1      -9.868 -11.006  19.456  0.00  0.00    +0.155 C 
ATOM     13  C   UNL     1     -11.313 -13.035  19.316  0.00  0.00    +0.136 C 
ATOM     14  C   UNL     1      -8.172 -12.828  20.064  0.00  0.00    +0.206 C 
ATOM     15  C   UNL     1     -10.144 -14.014  19.368  0.00  0.00    +0.179 C 
ATOM     16  C   UNL     1     -11.563 -11.295  17.581  0.00  0.00    +0.265 C 
ENDROOT
BRANCH  16  17
ATOM      8  N   UNL     1     -10.185  -9.794  16.103  0.00  0.00    -0.262 N 
ATOM      9  N   UNL     1     -10.015  -8.504  15.763  0.00  0.00    -0.176 NA
ATOM     17  C   UNL     1     -11.165  -9.994  17.030  0.00  0.00    +0.123 A 
ATOM     18  C   UNL     1     -11.671  -8.749  17.316  0.00  0.00    +0.057 A 
ATOM     20  C   UNL     1     -10.925  -7.872  16.507  0.00  0.00    +0.061 A 
ATOM     21  C   UNL     1      -9.356 -10.803  15.486  0.00  0.00    +0.173 C 
ATOM     23  C   UNL     1     -11.055  -6.408  16.416  0.00  0.00    +0.067 C 
ENDBRANCH  16  17
BRANCH  11   5
ATOM      5  O   UNL     1      -7.497 -10.629  19.354  0.00  0.00    -0.469 OA
BRANCH   5  19
ATOM     10  N   UNL     1      -6.547  -9.958  17.348  0.00  0.00    -0.221 NA
ATOM     19  C   UNL     1      -6.436 -10.669  18.492  0.00  0.00    +0.215 A 
ATOM     22  C   UNL     1      -5.324 -11.423  18.831  0.00  0.00    +0.068 A 
ATOM     24  C   UNL     1      -4.258 -11.448  17.939  0.00  0.00    +0.019 A 
ATOM     25  C   UNL     1      -4.335 -10.728  16.751  0.00  0.00    +0.073 A 
ATOM     26  C   UNL     1      -5.491 -10.006  16.505  0.00  0.00    +0.127 A 
BRANCH  25  27
ATOM      1  F   UNL     1      -2.163  -9.935  16.138  0.00  0.00    -0.166 F 
ATOM      2  F   UNL     1      -2.662 -11.970  15.578  0.00  0.00    -0.166 F 
ATOM      3  F   UNL     1      -3.586 -10.301  14.535  0.00  0.00    -0.166 F 
ATOM     27  C   UNL     1      -3.212 -10.735  15.776  0.00  0.00    +0.419 C 
ENDBRANCH  25  27
ENDBRANCH   5  19
ENDBRANCH  11   5
TORSDOF 4
ENDMDL
MODEL 9
REMARK VINA RESULT:      -6.0      4.352      7.112
REMARK  Name = 75367646
REMARK  6 active torsions:
REMARK  status: ('A' for Active; 'I' for Inactive)
REMARK    1  A    between atoms: O_5  and  C_11
REMARK    2  A    between atoms: O_5  and  C_19
REMARK    3  A    between atoms: N_8  and  C_21
REMARK    4  A    between atoms: C_16  and  C_17
REMARK    5  A    between atoms: C_20  and  C_23
REMARK    6  A    between atoms: C_25  and  C_27
REMARK                            x       y       z     vdW  Elec       q    Type
REMARK                         _______ _______ _______ _____ _____    ______ ____
ROOT
ATOM      4  O   UNL     1      16.686   9.509   4.140  0.00  0.00    -0.375 OA
ATOM      6  O   UNL     1      14.864   7.044   0.173  0.00  0.00    -0.268 OA
ATOM      7  N   UNL     1      15.537   7.290   2.405  0.00  0.00    -0.291 N 
ATOM     11  C   UNL     1      14.653   8.107   4.562  0.00  0.00    +0.218 C 
ATOM     12  C   UNL     1      15.358   6.967   3.830  0.00  0.00    +0.155 C 
ATOM     13  C   UNL     1      16.588   8.259   2.084  0.00  0.00    +0.136 C 
ATOM     14  C   UNL     1      15.591   9.233   5.003  0.00  0.00    +0.206 C 
ATOM     15  C   UNL     1      16.363   9.609   2.758  0.00  0.00    +0.179 C 
ATOM     16  C   UNL     1      14.756   6.766   1.366  0.00  0.00    +0.265 C 
ENDROOT
BRANCH  16  17
ATOM      8  N   UNL     1      13.839   4.442   1.678  0.00  0.00    -0.262 N 
ATOM      9  N   UNL     1      12.726   3.779   2.037  0.00  0.00    -0.176 NA
ATOM     17  C   UNL     1      13.706   5.799   1.709  0.00  0.00    +0.123 A 
ATOM     18  C   UNL     1      12.417   6.040   2.117  0.00  0.00    +0.057 A 
ATOM     20  C   UNL     1      11.861   4.760   2.305  0.00  0.00    +0.061 A 
ATOM     21  C   UNL     1      15.019   3.695   1.308  0.00  0.00    +0.173 C 
ATOM     23  C   UNL     1      10.495   4.432   2.743  0.00  0.00    +0.067 C 
ENDBRANCH  16  17
BRANCH  11   5
ATOM      5  O   UNL     1      13.994   7.576   5.711  0.00  0.00    -0.469 OA
BRANCH   5  19
ATOM     10  N   UNL     1      12.073   6.474   6.400  0.00  0.00    -0.221 NA
ATOM     19  C   UNL     1      12.638   7.427   5.623  0.00  0.00    +0.215 A 
ATOM     22  C   UNL     1      11.926   8.243   4.758  0.00  0.00    +0.068 A 
ATOM     24  C   UNL     1      10.549   8.072   4.686  0.00  0.00    +0.019 A 
ATOM     25  C   UNL     1       9.932   7.103   5.470  0.00  0.00    +0.073 A 
ATOM     26  C   UNL     1      10.732   6.337   6.302  0.00  0.00    +0.127 A 
BRANCH  25  27
ATOM      1  F   UNL     1       8.091   5.579   5.368  0.00  0.00    -0.166 F 
ATOM      2  F   UNL     1       7.791   7.410   6.490  0.00  0.00    -0.166 F 
ATOM      3  F   UNL     1       7.884   7.472   4.319  0.00  0.00    -0.166 F 
ATOM     27  C   UNL     1       8.460   6.895   5.416  0.00  0.00    +0.419 C 
ENDBRANCH  25  27
ENDBRANCH   5  19
ENDBRANCH  11   5
TORSDOF 4
ENDMDL
MODEL 10
REMARK VINA RESULT:      -5.9     23.119     25.695
REMARK  Name = 75367646
REMARK  6 active torsions:
REMARK  status: ('A' for Active; 'I' for Inactive)
REMARK    1  A    between atoms: O_5  and  C_11
REMARK    2  A    between atoms: O_5  and  C_19
REMARK    3  A    between atoms: N_8  and  C_21
REMARK    4  A    between atoms: C_16  and  C_17
REMARK    5  A    between atoms: C_20  and  C_23
REMARK    6  A    between atoms: C_25  and  C_27
REMARK                            x       y       z     vdW  Elec       q    Type
REMARK                         _______ _______ _______ _____ _____    ______ ____
ROOT
ATOM      4  O   UNL     1      -7.504 -12.713  17.040  0.00  0.00    -0.375 OA
ATOM      6  O   UNL     1      -2.786 -11.093  16.540  0.00  0.00    -0.268 OA
ATOM      7  N   UNL     1      -4.688 -12.331  15.953  0.00  0.00    -0.291 N 
ATOM     11  C   UNL     1      -6.812 -12.056  14.722  0.00  0.00    +0.218 C 
ATOM     12  C   UNL     1      -5.560 -12.908  14.917  0.00  0.00    +0.155 C 
ATOM     13  C   UNL     1      -5.125 -12.504  17.341  0.00  0.00    +0.136 C 
ATOM     14  C   UNL     1      -7.926 -12.352  15.730  0.00  0.00    +0.206 C 
ATOM     15  C   UNL     1      -6.494 -11.885  17.604  0.00  0.00    +0.179 C 
ATOM     16  C   UNL     1      -3.514 -11.612  15.694  0.00  0.00    +0.265 C 
ENDROOT
BRANCH  16  17
ATOM      8  N   UNL     1      -2.410 -12.368  13.563  0.00  0.00    -0.262 N 
ATOM      9  N   UNL     1      -2.147 -11.974  12.305  0.00  0.00    -0.176 NA
ATOM     17  C   UNL     1      -3.096 -11.447  14.297  0.00  0.00    +0.123 A 
ATOM     18  C   UNL     1      -3.296 -10.375  13.462  0.00  0.00    +0.057 A 
ATOM     20  C   UNL     1      -2.691 -10.756  12.249  0.00  0.00    +0.061 A 
ATOM     21  C   UNL     1      -1.962 -13.669  14.003  0.00  0.00    +0.173 C 
ATOM     23  C   UNL     1      -2.612  -9.975  11.003  0.00  0.00    +0.067 C 
ENDBRANCH  16  17
BRANCH  11   5
ATOM      5  O   UNL     1      -7.313 -12.270  13.403  0.00  0.00    -0.469 OA
BRANCH   5  19
ATOM     10  N   UNL     1      -7.032 -10.058  12.767  0.00  0.00    -0.221 NA
ATOM     19  C   UNL     1      -6.928 -11.368  12.450  0.00  0.00    +0.215 A 
ATOM     22  C   UNL     1      -6.462 -11.837  11.231  0.00  0.00    +0.068 A 
ATOM     24  C   UNL     1      -6.078 -10.901  10.279  0.00  0.00    +0.019 A 
ATOM     25  C   UNL     1      -6.169  -9.544  10.569  0.00  0.00    +0.073 A 
ATOM     26  C   UNL     1      -6.648  -9.178  11.815  0.00  0.00    +0.127 A 
BRANCH  25  27
ATOM      1  F   UNL     1      -4.917  -7.567  10.068  0.00  0.00    -0.166 F 
ATOM      2  F   UNL     1      -5.117  -9.032   8.482  0.00  0.00    -0.166 F 
ATOM      3  F   UNL     1      -6.828  -7.824   9.065  0.00  0.00    -0.166 F 
ATOM     27  C   UNL     1      -5.765  -8.517   9.570  0.00  0.00    +0.419 C 
ENDBRANCH  25  27
ENDBRANCH   5  19
ENDBRANCH  11   5
TORSDOF 4
ENDMDL
