MODEL 1
REMARK VINA RESULT:      -7.9      0.000      0.000
REMARK  Name = 75536499
REMARK  6 active torsions:
REMARK  status: ('A' for Active; 'I' for Inactive)
REMARK    1  A    between atoms: O_4  and  C_10
REMARK    2  A    between atoms: N_6  and  C_8
REMARK    3  A    between atoms: N_6  and  C_9
REMARK    4  A    between atoms: N_7  and  C_18
REMARK    5  A    between atoms: C_13  and  C_18
REMARK    6  A    between atoms: C_19  and  C_20
REMARK                            x       y       z     vdW  Elec       q    Type
REMARK                         _______ _______ _______ _____ _____    ______ ____
ROOT
ATOM      3  O   UNL     1      -1.102   3.699  25.924  0.00  0.00    -0.371 OA
ATOM      9  C   UNL     1      -0.407   1.594  25.070  0.00  0.00    +0.111 C 
ATOM     10  C   UNL     1      -1.669   2.028  24.349  0.00  0.00    +0.164 C 
ATOM     13  C   UNL     1      -1.654   3.528  24.608  0.00  0.00    +0.165 C 
ATOM     14  C   UNL     1      -0.449   2.476  26.308  0.00  0.00    +0.181 C 
ENDROOT
BRANCH  10   4
ATOM      4  O   UNL     1      -1.639   1.731  22.967  0.00  0.00    -0.388 OA
ATOM     22  H   UNL     1      -0.723   1.825  22.654  0.00  0.00    +0.210 HD
ENDBRANCH  10   4
BRANCH   9   6
ATOM      6  N   UNL     1      -0.374   0.176  25.387  0.00  0.00    -0.306 NA
ATOM     21  H   UNL     1      -0.473   0.038  26.393  0.00  0.00    +0.123 HD
BRANCH   6   8
ATOM      1  F   UNL     1      -3.501  -3.150  25.837  0.00  0.00    -0.206 F 
ATOM      2  F   UNL     1      -4.513  -3.239  23.914  0.00  0.00    -0.206 F 
ATOM      8  C   UNL     1      -1.432  -0.540  24.678  0.00  0.00    +0.054 C 
ATOM     11  C   UNL     1      -1.081  -2.030  24.584  0.00  0.00    +0.024 C 
ATOM     12  C   UNL     1      -2.772  -0.330  25.394  0.00  0.00    +0.024 C 
ATOM     15  C   UNL     1      -2.200  -2.822  23.911  0.00  0.00    +0.077 C 
ATOM     16  C   UNL     1      -3.892  -1.121  24.722  0.00  0.00    +0.077 C 
ATOM     17  C   UNL     1      -3.536  -2.593  24.598  0.00  0.00    +0.249 C 
ENDBRANCH   6   8
ENDBRANCH   9   6
BRANCH  13  18
ATOM     18  C   UNL     1      -3.033   4.163  24.544  0.00  0.00    +0.138 C 
BRANCH  18   7
ATOM      5  O   UNL     1      -5.138   3.455  26.412  0.00  0.00    -0.276 OA
ATOM      7  N   UNL     1      -4.055   3.173  24.369  0.00  0.00    -0.313 N 
ATOM     19  C   UNL     1      -5.029   2.898  25.323  0.00  0.00    +0.210 C 
ATOM     20  C   UNL     1      -5.993   1.832  24.875  0.00  0.00    +0.109 C 
ATOM     23  H   UNL     1      -4.058   2.648  23.500  0.00  0.00    +0.149 HD
ENDBRANCH  18   7
ENDBRANCH  13  18
TORSDOF 5
ENDMDL
MODEL 2
REMARK VINA RESULT:      -7.1     16.437     18.750
REMARK  Name = 75536499
REMARK  6 active torsions:
REMARK  status: ('A' for Active; 'I' for Inactive)
REMARK    1  A    between atoms: O_4  and  C_10
REMARK    2  A    between atoms: N_6  and  C_8
REMARK    3  A    between atoms: N_6  and  C_9
REMARK    4  A    between atoms: N_7  and  C_18
REMARK    5  A    between atoms: C_13  and  C_18
REMARK    6  A    between atoms: C_19  and  C_20
REMARK                            x       y       z     vdW  Elec       q    Type
REMARK                         _______ _______ _______ _____ _____    ______ ____
ROOT
ATOM      3  O   UNL     1      10.669   7.184  21.108  0.00  0.00    -0.371 OA
ATOM      9  C   UNL     1      11.304   9.216  22.161  0.00  0.00    +0.111 C 
ATOM     10  C   UNL     1      12.498   8.653  21.414  0.00  0.00    +0.164 C 
ATOM     13  C   UNL     1      11.811   7.724  20.422  0.00  0.00    +0.165 C 
ATOM     14  C   UNL     1      10.411   7.991  22.271  0.00  0.00    +0.181 C 
ENDROOT
BRANCH  10   4
ATOM      4  O   UNL     1      13.256   9.652  20.761  0.00  0.00    -0.388 OA
ATOM     22  H   UNL     1      13.249  10.452  21.314  0.00  0.00    +0.210 HD
ENDBRANCH  10   4
BRANCH   9   6
ATOM      6  N   UNL     1      11.641   9.788  23.454  0.00  0.00    -0.306 NA
ATOM     21  H   UNL     1      12.645   9.961  23.511  0.00  0.00    +0.123 HD
BRANCH   6   8
ATOM      1  F   UNL     1      12.163  14.294  24.145  0.00  0.00    -0.206 F 
ATOM      2  F   UNL     1      10.143  15.072  24.346  0.00  0.00    -0.206 F 
ATOM      8  C   UNL     1      10.906  11.031  23.679  0.00  0.00    +0.054 C 
ATOM     11  C   UNL     1      11.291  11.625  25.040  0.00  0.00    +0.024 C 
ATOM     12  C   UNL     1      11.194  12.019  22.542  0.00  0.00    +0.024 C 
ATOM     15  C   UNL     1      10.595  12.963  25.278  0.00  0.00    +0.077 C 
ATOM     16  C   UNL     1      10.498  13.358  22.779  0.00  0.00    +0.077 C 
ATOM     17  C   UNL     1      10.853  13.935  24.139  0.00  0.00    +0.249 C 
ENDBRANCH   6   8
ENDBRANCH   9   6
BRANCH  13  18
ATOM     18  C   UNL     1      12.703   6.592  19.942  0.00  0.00    +0.138 C 
BRANCH  18   7
ATOM      5  O   UNL     1      15.448   6.754  19.012  0.00  0.00    -0.276 OA
ATOM      7  N   UNL     1      13.897   6.498  20.730  0.00  0.00    -0.313 N 
ATOM     19  C   UNL     1      15.178   6.587  20.198  0.00  0.00    +0.210 C 
ATOM     20  C   UNL     1      16.250   6.480  21.250  0.00  0.00    +0.109 C 
ATOM     23  H   UNL     1      13.790   6.356  21.731  0.00  0.00    +0.149 HD
ENDBRANCH  18   7
ENDBRANCH  13  18
TORSDOF 5
ENDMDL
MODEL 3
REMARK VINA RESULT:      -6.9     16.861     18.707
REMARK  Name = 75536499
REMARK  6 active torsions:
REMARK  status: ('A' for Active; 'I' for Inactive)
REMARK    1  A    between atoms: O_4  and  C_10
REMARK    2  A    between atoms: N_6  and  C_8
REMARK    3  A    between atoms: N_6  and  C_9
REMARK    4  A    between atoms: N_7  and  C_18
REMARK    5  A    between atoms: C_13  and  C_18
REMARK    6  A    between atoms: C_19  and  C_20
REMARK                            x       y       z     vdW  Elec       q    Type
REMARK                         _______ _______ _______ _____ _____    ______ ____
ROOT
ATOM      3  O   UNL     1      15.654   7.544  18.992  0.00  0.00    -0.371 OA
ATOM      9  C   UNL     1      14.111   6.801  20.639  0.00  0.00    +0.111 C 
ATOM     10  C   UNL     1      13.346   7.217  19.396  0.00  0.00    +0.164 C 
ATOM     13  C   UNL     1      14.439   7.138  18.339  0.00  0.00    +0.165 C 
ATOM     14  C   UNL     1      15.448   7.491  20.415  0.00  0.00    +0.181 C 
ENDROOT
BRANCH  10   4
ATOM      4  O   UNL     1      12.267   6.352  19.104  0.00  0.00    -0.388 OA
ATOM     22  H   UNL     1      12.591   5.436  19.139  0.00  0.00    +0.210 HD
ENDBRANCH  10   4
BRANCH   9   6
ATOM      6  N   UNL     1      13.470   7.201  21.881  0.00  0.00    -0.306 NA
ATOM     21  H   UNL     1      14.168   7.323  22.614  0.00  0.00    +0.123 HD
BRANCH   6   8
ATOM      1  F   UNL     1      11.443  10.636  24.149  0.00  0.00    -0.206 F 
ATOM      2  F   UNL     1      10.623  11.927  22.603  0.00  0.00    -0.206 F 
ATOM      8  C   UNL     1      12.715   8.439  21.700  0.00  0.00    +0.054 C 
ATOM     11  C   UNL     1      11.332   8.305  22.349  0.00  0.00    +0.024 C 
ATOM     12  C   UNL     1      13.496   9.617  22.296  0.00  0.00    +0.024 C 
ATOM     15  C   UNL     1      10.540   9.607  22.242  0.00  0.00    +0.077 C 
ATOM     16  C   UNL     1      12.705  10.919  22.188  0.00  0.00    +0.077 C 
ATOM     17  C   UNL     1      11.322  10.782  22.803  0.00  0.00    +0.249 C 
ENDBRANCH   6   8
ENDBRANCH   9   6
BRANCH  13  18
ATOM     18  C   UNL     1      14.180   8.032  17.139  0.00  0.00    +0.138 C 
BRANCH  18   7
ATOM      5  O   UNL     1      12.915   9.760  15.179  0.00  0.00    -0.276 OA
ATOM      7  N   UNL     1      12.775   8.234  16.932  0.00  0.00    -0.313 N 
ATOM     19  C   UNL     1      12.255   9.086  15.964  0.00  0.00    +0.210 C 
ATOM     20  C   UNL     1      10.750   9.091  15.948  0.00  0.00    +0.109 C 
ATOM     23  H   UNL     1      12.133   7.724  17.533  0.00  0.00    +0.149 HD
ENDBRANCH  18   7
ENDBRANCH  13  18
TORSDOF 5
ENDMDL
MODEL 4
REMARK VINA RESULT:      -6.9     16.586     18.365
REMARK  Name = 75536499
REMARK  6 active torsions:
REMARK  status: ('A' for Active; 'I' for Inactive)
REMARK    1  A    between atoms: O_4  and  C_10
REMARK    2  A    between atoms: N_6  and  C_8
REMARK    3  A    between atoms: N_6  and  C_9
REMARK    4  A    between atoms: N_7  and  C_18
REMARK    5  A    between atoms: C_13  and  C_18
REMARK    6  A    between atoms: C_19  and  C_20
REMARK                            x       y       z     vdW  Elec       q    Type
REMARK                         _______ _______ _______ _____ _____    ______ ____
ROOT
ATOM      3  O   UNL     1      10.381   7.530  22.200  0.00  0.00    -0.371 OA
ATOM      9  C   UNL     1      12.567   7.049  21.408  0.00  0.00    +0.111 C 
ATOM     10  C   UNL     1      12.489   8.517  21.780  0.00  0.00    +0.164 C 
ATOM     13  C   UNL     1      11.288   8.518  22.717  0.00  0.00    +0.165 C 
ATOM     14  C   UNL     1      11.095   6.692  21.275  0.00  0.00    +0.181 C 
ENDROOT
BRANCH  10   4
ATOM      4  O   UNL     1      13.659   8.981  22.423  0.00  0.00    -0.388 OA
ATOM     22  H   UNL     1      14.411   8.448  22.115  0.00  0.00    +0.210 HD
ENDBRANCH  10   4
BRANCH   9   6
ATOM      6  N   UNL     1      13.323   6.794  20.192  0.00  0.00    -0.306 NA
ATOM     21  H   UNL     1      12.985   5.945  19.740  0.00  0.00    +0.123 HD
BRANCH   6   8
ATOM      1  F   UNL     1      14.353   8.177  15.940  0.00  0.00    -0.206 F 
ATOM      2  F   UNL     1      13.601  10.214  15.811  0.00  0.00    -0.206 F 
ATOM      8  C   UNL     1      13.220   7.924  19.271  0.00  0.00    +0.054 C 
ATOM     11  C   UNL     1      14.623   8.395  18.867  0.00  0.00    +0.024 C 
ATOM     12  C   UNL     1      12.394   7.522  18.043  0.00  0.00    +0.024 C 
ATOM     15  C   UNL     1      14.554   9.531  17.848  0.00  0.00    +0.077 C 
ATOM     16  C   UNL     1      12.325   8.657  17.023  0.00  0.00    +0.077 C 
ATOM     17  C   UNL     1      13.712   9.148  16.642  0.00  0.00    +0.249 C 
ENDBRANCH   6   8
ENDBRANCH   9   6
BRANCH  13  18
ATOM     18  C   UNL     1      10.588   9.864  22.796  0.00  0.00    +0.138 C 
BRANCH  18   7
ATOM      5  O   UNL     1      10.924  11.045  25.427  0.00  0.00    -0.276 OA
ATOM      7  N   UNL     1      11.500  10.904  23.174  0.00  0.00    -0.313 N 
ATOM     19  C   UNL     1      11.593  11.412  24.465  0.00  0.00    +0.210 C 
ATOM     20  C   UNL     1      12.648  12.479  24.592  0.00  0.00    +0.109 C 
ATOM     23  H   UNL     1      12.105  11.286  22.452  0.00  0.00    +0.149 HD
ENDBRANCH  18   7
ENDBRANCH  13  18
TORSDOF 5
ENDMDL
MODEL 5
REMARK VINA RESULT:      -6.8     16.560     18.460
REMARK  Name = 75536499
REMARK  6 active torsions:
REMARK  status: ('A' for Active; 'I' for Inactive)
REMARK    1  A    between atoms: O_4  and  C_10
REMARK    2  A    between atoms: N_6  and  C_8
REMARK    3  A    between atoms: N_6  and  C_9
REMARK    4  A    between atoms: N_7  and  C_18
REMARK    5  A    between atoms: C_13  and  C_18
REMARK    6  A    between atoms: C_19  and  C_20
REMARK                            x       y       z     vdW  Elec       q    Type
REMARK                         _______ _______ _______ _____ _____    ______ ____
ROOT
ATOM      3  O   UNL     1      13.454   8.232  21.288  0.00  0.00    -0.371 OA
ATOM      9  C   UNL     1      11.450   8.919  22.361  0.00  0.00    +0.111 C 
ATOM     10  C   UNL     1      11.098   8.072  21.152  0.00  0.00    +0.164 C 
ATOM     13  C   UNL     1      12.403   7.318  20.933  0.00  0.00    +0.165 C 
ATOM     14  C   UNL     1      12.884   9.313  22.046  0.00  0.00    +0.181 C 
ENDROOT
BRANCH  10   4
ATOM      4  O   UNL     1      10.017   7.194  21.395  0.00  0.00    -0.388 OA
ATOM     22  H   UNL     1       9.794   6.745  20.563  0.00  0.00    +0.210 HD
ENDBRANCH  10   4
BRANCH   9   6
ATOM      6  N   UNL     1      10.575  10.066  22.545  0.00  0.00    -0.306 NA
ATOM     21  H   UNL     1       9.779   9.811  23.128  0.00  0.00    +0.123 HD
BRANCH   6   8
ATOM      1  F   UNL     1      10.023  14.007  24.828  0.00  0.00    -0.206 F 
ATOM      2  F   UNL     1      12.038  14.752  25.164  0.00  0.00    -0.206 F 
ATOM      8  C   UNL     1      11.302  11.180  23.150  0.00  0.00    +0.054 C 
ATOM     11  C   UNL     1      10.910  12.493  22.460  0.00  0.00    +0.024 C 
ATOM     12  C   UNL     1      11.010  11.235  24.655  0.00  0.00    +0.024 C 
ATOM     15  C   UNL     1      11.597  13.690  23.115  0.00  0.00    +0.077 C 
ATOM     16  C   UNL     1      11.697  12.432  25.310  0.00  0.00    +0.077 C 
ATOM     17  C   UNL     1      11.336  13.732  24.611  0.00  0.00    +0.249 C 
ENDBRANCH   6   8
ENDBRANCH   9   6
BRANCH  13  18
ATOM     18  C   UNL     1      12.593   6.849  19.501  0.00  0.00    +0.138 C 
BRANCH  18   7
ATOM      5  O   UNL     1      11.136   7.699  17.138  0.00  0.00    -0.276 OA
ATOM      7  N   UNL     1      12.907   7.944  18.630  0.00  0.00    -0.313 N 
ATOM     19  C   UNL     1      12.149   8.281  17.514  0.00  0.00    +0.210 C 
ATOM     20  C   UNL     1      12.688   9.487  16.792  0.00  0.00    +0.109 C 
ATOM     23  H   UNL     1      13.732   8.497  18.848  0.00  0.00    +0.149 HD
ENDBRANCH  18   7
ENDBRANCH  13  18
TORSDOF 5
ENDMDL
MODEL 6
REMARK VINA RESULT:      -6.8     17.211     19.005
REMARK  Name = 75536499
REMARK  6 active torsions:
REMARK  status: ('A' for Active; 'I' for Inactive)
REMARK    1  A    between atoms: O_4  and  C_10
REMARK    2  A    between atoms: N_6  and  C_8
REMARK    3  A    between atoms: N_6  and  C_9
REMARK    4  A    between atoms: N_7  and  C_18
REMARK    5  A    between atoms: C_13  and  C_18
REMARK    6  A    between atoms: C_19  and  C_20
REMARK                            x       y       z     vdW  Elec       q    Type
REMARK                         _______ _______ _______ _____ _____    ______ ____
ROOT
ATOM      3  O   UNL     1      10.777   8.314  20.827  0.00  0.00    -0.371 OA
ATOM      9  C   UNL     1      13.106   8.648  20.507  0.00  0.00    +0.111 C 
ATOM     10  C   UNL     1      12.659   9.423  21.732  0.00  0.00    +0.164 C 
ATOM     13  C   UNL     1      11.364   8.701  22.080  0.00  0.00    +0.165 C 
ATOM     14  C   UNL     1      11.781   8.409  19.802  0.00  0.00    +0.181 C 
ENDROOT
BRANCH  10   4
ATOM      4  O   UNL     1      13.597   9.363  22.789  0.00  0.00    -0.388 OA
ATOM     22  H   UNL     1      13.824   8.431  22.945  0.00  0.00    +0.210 HD
ENDBRANCH  10   4
BRANCH   9   6
ATOM      6  N   UNL     1      14.066   9.363  19.681  0.00  0.00    -0.306 NA
ATOM     21  H   UNL     1      14.255  10.282  20.078  0.00  0.00    +0.123 HD
BRANCH   6   8
ATOM      1  F   UNL     1      16.591   6.094  21.677  0.00  0.00    -0.206 F 
ATOM      2  F   UNL     1      18.342   5.876  20.406  0.00  0.00    -0.206 F 
ATOM      8  C   UNL     1      15.310   8.606  19.559  0.00  0.00    +0.054 C 
ATOM     11  C   UNL     1      16.203   8.873  20.777  0.00  0.00    +0.024 C 
ATOM     12  C   UNL     1      14.997   7.111  19.417  0.00  0.00    +0.024 C 
ATOM     15  C   UNL     1      17.483   8.042  20.718  0.00  0.00    +0.077 C 
ATOM     16  C   UNL     1      16.277   6.279  19.357  0.00  0.00    +0.077 C 
ATOM     17  C   UNL     1      17.180   6.562  20.546  0.00  0.00    +0.249 C 
ENDBRANCH   6   8
ENDBRANCH   9   6
BRANCH  13  18
ATOM     18  C   UNL     1      10.387   9.562  22.861  0.00  0.00    +0.138 C 
BRANCH  18   7
ATOM      5  O   UNL     1      10.908  10.999  25.329  0.00  0.00    -0.276 OA
ATOM      7  N   UNL     1      10.872  10.904  23.002  0.00  0.00    -0.313 N 
ATOM     19  C   UNL     1      11.094  11.516  24.231  0.00  0.00    +0.210 C 
ATOM     20  C   UNL     1      11.626  12.918  24.091  0.00  0.00    +0.109 C 
ATOM     23  H   UNL     1      11.058  11.430  22.152  0.00  0.00    +0.149 HD
ENDBRANCH  18   7
ENDBRANCH  13  18
TORSDOF 5
ENDMDL
MODEL 7
REMARK VINA RESULT:      -6.8     25.191     26.269
REMARK  Name = 75536499
REMARK  6 active torsions:
REMARK  status: ('A' for Active; 'I' for Inactive)
REMARK    1  A    between atoms: O_4  and  C_10
REMARK    2  A    between atoms: N_6  and  C_8
REMARK    3  A    between atoms: N_6  and  C_9
REMARK    4  A    between atoms: N_7  and  C_18
REMARK    5  A    between atoms: C_13  and  C_18
REMARK    6  A    between atoms: C_19  and  C_20
REMARK                            x       y       z     vdW  Elec       q    Type
REMARK                         _______ _______ _______ _____ _____    ______ ____
ROOT
ATOM      3  O   UNL     1      11.916   7.068   4.683  0.00  0.00    -0.371 OA
ATOM      9  C   UNL     1      10.777   5.328   3.536  0.00  0.00    +0.111 C 
ATOM     10  C   UNL     1      10.661   5.094   5.031  0.00  0.00    +0.164 C 
ATOM     13  C   UNL     1      10.943   6.491   5.569  0.00  0.00    +0.165 C 
ATOM     14  C   UNL     1      11.951   6.293   3.473  0.00  0.00    +0.181 C 
ENDROOT
BRANCH  10   4
ATOM      4  O   UNL     1       9.381   4.630   5.413  0.00  0.00    -0.388 OA
ATOM     22  H   UNL     1       9.213   3.787   4.961  0.00  0.00    +0.210 HD
ENDBRANCH  10   4
BRANCH   9   6
ATOM      6  N   UNL     1      11.001   4.113   2.770  0.00  0.00    -0.306 NA
ATOM     21  H   UNL     1      10.114   3.743   2.430  0.00  0.00    +0.123 HD
BRANCH   6   8
ATOM      1  F   UNL     1      12.631   2.298  -1.116  0.00  0.00    -0.206 F 
ATOM      2  F   UNL     1      13.992   3.797  -1.912  0.00  0.00    -0.206 F 
ATOM      8  C   UNL     1      11.901   4.366   1.647  0.00  0.00    +0.054 C 
ATOM     11  C   UNL     1      13.015   3.314   1.624  0.00  0.00    +0.024 C 
ATOM     12  C   UNL     1      11.107   4.362   0.334  0.00  0.00    +0.024 C 
ATOM     15  C   UNL     1      13.935   3.505   0.420  0.00  0.00    +0.077 C 
ATOM     16  C   UNL     1      12.025   4.554  -0.871  0.00  0.00    +0.077 C 
ATOM     17  C   UNL     1      13.150   3.532  -0.882  0.00  0.00    +0.249 C 
ENDBRANCH   6   8
ENDBRANCH   9   6
BRANCH  13  18
ATOM     18  C   UNL     1      11.479   6.490   6.990  0.00  0.00    +0.138 C 
BRANCH  18   7
ATOM      5  O   UNL     1       9.091   6.515   8.639  0.00  0.00    -0.276 OA
ATOM      7  N   UNL     1      10.936   5.404   7.752  0.00  0.00    -0.313 N 
ATOM     19  C   UNL     1       9.780   5.506   8.519  0.00  0.00    +0.210 C 
ATOM     20  C   UNL     1       9.420   4.211   9.197  0.00  0.00    +0.109 C 
ATOM     23  H   UNL     1      11.431   4.516   7.727  0.00  0.00    +0.149 HD
ENDBRANCH  18   7
ENDBRANCH  13  18
TORSDOF 5
ENDMDL
MODEL 8
REMARK VINA RESULT:      -6.5     17.787     19.461
REMARK  Name = 75536499
REMARK  6 active torsions:
REMARK  status: ('A' for Active; 'I' for Inactive)
REMARK    1  A    between atoms: O_4  and  C_10
REMARK    2  A    between atoms: N_6  and  C_8
REMARK    3  A    between atoms: N_6  and  C_9
REMARK    4  A    between atoms: N_7  and  C_18
REMARK    5  A    between atoms: C_13  and  C_18
REMARK    6  A    between atoms: C_19  and  C_20
REMARK                            x       y       z     vdW  Elec       q    Type
REMARK                         _______ _______ _______ _____ _____    ______ ____
ROOT
ATOM      3  O   UNL     1      14.963   9.909  17.352  0.00  0.00    -0.371 OA
ATOM      9  C   UNL     1      13.400   8.134  17.137  0.00  0.00    +0.111 C 
ATOM     10  C   UNL     1      12.885   9.341  16.376  0.00  0.00    +0.164 C 
ATOM     13  C   UNL     1      14.171  10.131  16.174  0.00  0.00    +0.165 C 
ATOM     14  C   UNL     1      14.430   8.773  18.055  0.00  0.00    +0.181 C 
ENDROOT
BRANCH  10   4
ATOM      4  O   UNL     1      12.279   8.995  15.146  0.00  0.00    -0.388 OA
ATOM     22  H   UNL     1      11.629   8.291  15.312  0.00  0.00    +0.210 HD
ENDBRANCH  10   4
BRANCH   9   6
ATOM      6  N   UNL     1      12.365   7.414  17.862  0.00  0.00    -0.306 NA
ATOM     21  H   UNL     1      12.544   6.411  17.826  0.00  0.00    +0.123 HD
BRANCH   6   8
ATOM      1  F   UNL     1       9.954   7.009  21.744  0.00  0.00    -0.206 F 
ATOM      2  F   UNL     1      10.978   8.280  23.181  0.00  0.00    -0.206 F 
ATOM      8  C   UNL     1      12.300   7.861  19.252  0.00  0.00    +0.054 C 
ATOM     11  C   UNL     1      10.985   8.612  19.496  0.00  0.00    +0.024 C 
ATOM     12  C   UNL     1      12.434   6.657  20.192  0.00  0.00    +0.024 C 
ATOM     15  C   UNL     1      10.850   9.032  20.958  0.00  0.00    +0.077 C 
ATOM     16  C   UNL     1      12.300   7.076  21.655  0.00  0.00    +0.077 C 
ATOM     17  C   UNL     1      11.012   7.847  21.896  0.00  0.00    +0.249 C 
ENDBRANCH   6   8
ENDBRANCH   9   6
BRANCH  13  18
ATOM     18  C   UNL     1      13.938  11.620  15.985  0.00  0.00    +0.138 C 
BRANCH  18   7
ATOM      5  O   UNL     1      15.154  12.562  13.523  0.00  0.00    -0.276 OA
ATOM      7  N   UNL     1      13.284  11.892  14.738  0.00  0.00    -0.313 N 
ATOM     19  C   UNL     1      13.949  12.343  13.603  0.00  0.00    +0.210 C 
ATOM     20  C   UNL     1      13.027  12.524  12.427  0.00  0.00    +0.109 C 
ATOM     23  H   UNL     1      12.279  11.746  14.692  0.00  0.00    +0.149 HD
ENDBRANCH  18   7
ENDBRANCH  13  18
TORSDOF 5
ENDMDL
MODEL 9
REMARK VINA RESULT:      -6.4     18.566     20.302
REMARK  Name = 75536499
REMARK  6 active torsions:
REMARK  status: ('A' for Active; 'I' for Inactive)
REMARK    1  A    between atoms: O_4  and  C_10
REMARK    2  A    between atoms: N_6  and  C_8
REMARK    3  A    between atoms: N_6  and  C_9
REMARK    4  A    between atoms: N_7  and  C_18
REMARK    5  A    between atoms: C_13  and  C_18
REMARK    6  A    between atoms: C_19  and  C_20
REMARK                            x       y       z     vdW  Elec       q    Type
REMARK                         _______ _______ _______ _____ _____    ______ ____
ROOT
ATOM      3  O   UNL     1      13.471   8.830  18.646  0.00  0.00    -0.371 OA
ATOM      9  C   UNL     1      14.823   7.624  20.182  0.00  0.00    +0.111 C 
ATOM     10  C   UNL     1      13.379   7.568  20.645  0.00  0.00    +0.164 C 
ATOM     13  C   UNL     1      12.644   7.888  19.349  0.00  0.00    +0.165 C 
ATOM     14  C   UNL     1      14.787   8.805  19.225  0.00  0.00    +0.181 C 
ENDROOT
BRANCH  10   4
ATOM      4  O   UNL     1      13.018   6.300  21.156  0.00  0.00    -0.388 OA
ATOM     22  H   UNL     1      12.165   6.044  20.765  0.00  0.00    +0.210 HD
ENDBRANCH  10   4
BRANCH   9   6
ATOM      6  N   UNL     1      15.776   7.802  21.265  0.00  0.00    -0.306 NA
ATOM     21  H   UNL     1      15.613   7.109  21.995  0.00  0.00    +0.123 HD
BRANCH   6   8
ATOM      1  F   UNL     1      19.944   6.198  22.316  0.00  0.00    -0.206 F 
ATOM      2  F   UNL     1      21.196   6.722  20.616  0.00  0.00    -0.206 F 
ATOM      8  C   UNL     1      17.148   7.694  20.772  0.00  0.00    +0.054 C 
ATOM     11  C   UNL     1      18.103   8.422  21.725  0.00  0.00    +0.024 C 
ATOM     12  C   UNL     1      17.532   6.216  20.624  0.00  0.00    +0.024 C 
ATOM     15  C   UNL     1      19.556   8.269  21.279  0.00  0.00    +0.077 C 
ATOM     16  C   UNL     1      18.984   6.061  20.177  0.00  0.00    +0.077 C 
ATOM     17  C   UNL     1      19.932   6.807  21.101  0.00  0.00    +0.249 C 
ENDBRANCH   6   8
ENDBRANCH   9   6
BRANCH  13  18
ATOM     18  C   UNL     1      11.265   8.484  19.573  0.00  0.00    +0.138 C 
BRANCH  18   7
ATOM      5  O   UNL     1      11.730  10.991  20.960  0.00  0.00    -0.276 OA
ATOM      7  N   UNL     1      11.037   8.767  20.960  0.00  0.00    -0.313 N 
ATOM     19  C   UNL     1      11.290  10.004  21.543  0.00  0.00    +0.210 C 
ATOM     20  C   UNL     1      10.940  10.035  23.007  0.00  0.00    +0.109 C 
ATOM     23  H   UNL     1      10.674   8.016  21.541  0.00  0.00    +0.149 HD
ENDBRANCH  18   7
ENDBRANCH  13  18
TORSDOF 5
ENDMDL
MODEL 10
REMARK VINA RESULT:      -6.4     19.848     21.526
REMARK  Name = 75536499
REMARK  6 active torsions:
REMARK  status: ('A' for Active; 'I' for Inactive)
REMARK    1  A    between atoms: O_4  and  C_10
REMARK    2  A    between atoms: N_6  and  C_8
REMARK    3  A    between atoms: N_6  and  C_9
REMARK    4  A    between atoms: N_7  and  C_18
REMARK    5  A    between atoms: C_13  and  C_18
REMARK    6  A    between atoms: C_19  and  C_20
REMARK                            x       y       z     vdW  Elec       q    Type
REMARK                         _______ _______ _______ _____ _____    ______ ____
ROOT
ATOM      3  O   UNL     1      15.233   8.928  20.009  0.00  0.00    -0.371 OA
ATOM      9  C   UNL     1      17.033   7.457  20.492  0.00  0.00    +0.111 C 
ATOM     10  C   UNL     1      15.935   6.680  19.790  0.00  0.00    +0.164 C 
ATOM     13  C   UNL     1      15.167   7.807  19.112  0.00  0.00    +0.165 C 
ATOM     14  C   UNL     1      16.276   8.685  20.969  0.00  0.00    +0.181 C 
ENDROOT
BRANCH  10   4
ATOM      4  O   UNL     1      16.439   5.748  18.853  0.00  0.00    -0.388 OA
ATOM     22  H   UNL     1      17.323   6.040  18.575  0.00  0.00    +0.210 HD
ENDBRANCH  10   4
BRANCH   9   6
ATOM      6  N   UNL     1      17.664   6.724  21.578  0.00  0.00    -0.306 NA
ATOM     21  H   UNL     1      17.327   5.762  21.595  0.00  0.00    +0.123 HD
BRANCH   6   8
ATOM      1  F   UNL     1      21.463   4.281  22.385  0.00  0.00    -0.206 F 
ATOM      2  F   UNL     1      23.096   5.519  21.655  0.00  0.00    -0.206 F 
ATOM      8  C   UNL     1      19.119   6.741  21.439  0.00  0.00    +0.054 C 
ATOM     11  C   UNL     1      19.775   6.657  22.823  0.00  0.00    +0.024 C 
ATOM     12  C   UNL     1      19.569   5.583  20.540  0.00  0.00    +0.024 C 
ATOM     15  C   UNL     1      21.297   6.600  22.712  0.00  0.00    +0.077 C 
ATOM     16  C   UNL     1      21.091   5.526  20.428  0.00  0.00    +0.077 C 
ATOM     17  C   UNL     1      21.748   5.473  21.798  0.00  0.00    +0.249 C 
ENDBRANCH   6   8
ENDBRANCH   9   6
BRANCH  13  18
ATOM     18  C   UNL     1      13.715   7.460  18.830  0.00  0.00    +0.138 C 
BRANCH  18   7
ATOM      5  O   UNL     1      10.955   8.348  18.702  0.00  0.00    -0.276 OA
ATOM      7  N   UNL     1      12.868   7.831  19.925  0.00  0.00    -0.313 N 
ATOM     19  C   UNL     1      11.550   8.247  19.771  0.00  0.00    +0.210 C 
ATOM     20  C   UNL     1      10.882   8.552  21.085  0.00  0.00    +0.109 C 
ATOM     23  H   UNL     1      13.262   7.786  20.861  0.00  0.00    +0.149 HD
ENDBRANCH  18   7
ENDBRANCH  13  18
TORSDOF 5
ENDMDL
