MODEL 1
REMARK VINA RESULT:      -6.8      0.000      0.000
REMARK  Name = 28962456
REMARK  11 active torsions:
REMARK  status: ('A' for Active; 'I' for Inactive)
REMARK    1  A    between atoms: O_1  and  C_9
REMARK    2  A    between atoms: N_4  and  C_13
REMARK    3  A    between atoms: N_5  and  C_23
REMARK    4  A    between atoms: C_6  and  C_16
REMARK    5  A    between atoms: C_8  and  C_18
REMARK    6  A    between atoms: C_11  and  C_17
REMARK    7  A    between atoms: C_17  and  C_19
REMARK    8  A    between atoms: C_17  and  C_20
REMARK    9  A    between atoms: C_21  and  C_22
REMARK   10  A    between atoms: C_23  and  C_24
REMARK   11  A    between atoms: C_23  and  C_25
REMARK                            x       y       z     vdW  Elec       q    Type
REMARK                         _______ _______ _______ _____ _____    ______ ____
ROOT
ATOM      6  C   UNL     1      12.346   8.197  21.316  0.00  0.00    -0.027 C 
ATOM      7  C   UNL     1      13.428   9.193  21.848  0.00  0.00    +0.028 C 
ATOM      8  C   UNL     1      12.836  10.641  21.987  0.00  0.00    +0.012 C 
ATOM      9  C   UNL     1      14.747   9.086  21.028  0.00  0.00    +0.122 C 
ATOM     10  C   UNL     1      12.929   6.763  21.300  0.00  0.00    +0.007 C 
ATOM     11  C   UNL     1      15.268   7.634  20.927  0.00  0.00    +0.029 C 
ATOM     12  C   UNL     1      11.137   8.203  22.281  0.00  0.00    +0.009 C 
ATOM     13  C   UNL     1      11.576  10.622  22.899  0.00  0.00    +0.076 C 
ATOM     14  C   UNL     1      14.196   6.646  20.464  0.00  0.00    +0.007 C 
ATOM     15  C   UNL     1      10.536   9.586  22.475  0.00  0.00    +0.023 C 
ATOM     16  C   UNL     1      11.861   8.554  19.888  0.00  0.00    +0.011 C 
ATOM     18  C   UNL     1      13.841  11.669  22.534  0.00  0.00    +0.010 C 
ENDROOT
BRANCH  13   4
ATOM      3  O   UNL     1      10.626  12.020  25.260  0.00  0.00    -0.276 OA
ATOM      4  N   UNL     1      10.935  11.920  22.955  0.00  0.00    -0.312 N 
ATOM     21  C   UNL     1      10.517  12.503  24.136  0.00  0.00    +0.210 C 
ATOM     22  C   UNL     1       9.907  13.862  23.913  0.00  0.00    +0.109 C 
ATOM     26  H   UNL     1      10.738  12.390  22.076  0.00  0.00    +0.149 HD
ENDBRANCH  13   4
BRANCH   9   1
ATOM      1  O   UNL     1      15.772   9.845  21.670  0.00  0.00    -0.391 OA
ATOM     27  H   UNL     1      15.378  10.676  21.988  0.00  0.00    +0.210 HD
ENDBRANCH   9   1
BRANCH  11  17
ATOM     17  C   UNL     1      16.491   7.531  20.007  0.00  0.00    +0.077 C 
ATOM     19  C   UNL     1      16.308   6.388  19.016  0.00  0.00    +0.017 C 
BRANCH  17  20
ATOM      2  O   UNL     1      17.946   7.942  21.899  0.00  0.00    -0.276 OA
ATOM      5  N   UNL     1      18.641   6.445  20.270  0.00  0.00    -0.313 N 
ATOM     20  C   UNL     1      17.755   7.347  20.841  0.00  0.00    +0.216 C 
ATOM     28  H   UNL     1      18.429   6.054  19.358  0.00  0.00    +0.149 HD
BRANCH   5  23
ATOM     23  C   UNL     1      19.910   6.107  20.874  0.00  0.00    +0.067 C 
ATOM     24  C   UNL     1      20.962   7.148  20.516  0.00  0.00    +0.027 C 
ATOM     25  C   UNL     1      20.347   4.711  20.451  0.00  0.00    +0.027 C 
ENDBRANCH   5  23
ENDBRANCH  17  20
ENDBRANCH  11  17
TORSDOF 5
ENDMDL
MODEL 2
REMARK VINA RESULT:      -6.4      4.126      8.371
REMARK  Name = 28962456
REMARK  11 active torsions:
REMARK  status: ('A' for Active; 'I' for Inactive)
REMARK    1  A    between atoms: O_1  and  C_9
REMARK    2  A    between atoms: N_4  and  C_13
REMARK    3  A    between atoms: N_5  and  C_23
REMARK    4  A    between atoms: C_6  and  C_16
REMARK    5  A    between atoms: C_8  and  C_18
REMARK    6  A    between atoms: C_11  and  C_17
REMARK    7  A    between atoms: C_17  and  C_19
REMARK    8  A    between atoms: C_17  and  C_20
REMARK    9  A    between atoms: C_21  and  C_22
REMARK   10  A    between atoms: C_23  and  C_24
REMARK   11  A    between atoms: C_23  and  C_25
REMARK                            x       y       z     vdW  Elec       q    Type
REMARK                         _______ _______ _______ _____ _____    ______ ____
ROOT
ATOM      6  C   UNL     1      11.752   9.147  21.136  0.00  0.00    -0.027 C 
ATOM      7  C   UNL     1      12.009  10.541  20.473  0.00  0.00    +0.028 C 
ATOM      8  C   UNL     1      13.107  10.434  19.354  0.00  0.00    +0.012 C 
ATOM      9  C   UNL     1      12.254  11.640  21.547  0.00  0.00    +0.122 C 
ATOM     10  C   UNL     1      10.589   9.266  22.150  0.00  0.00    +0.007 C 
ATOM     11  C   UNL     1      11.139  11.683  22.617  0.00  0.00    +0.029 C 
ATOM     12  C   UNL     1      11.322   8.141  20.043  0.00  0.00    +0.009 C 
ATOM     13  C   UNL     1      12.700   9.365  18.301  0.00  0.00    +0.076 C 
ATOM     14  C   UNL     1      10.843  10.312  23.226  0.00  0.00    +0.007 C 
ATOM     15  C   UNL     1      12.337   8.014  18.917  0.00  0.00    +0.023 C 
ATOM     16  C   UNL     1      13.001   8.600  21.872  0.00  0.00    +0.011 C 
ATOM     18  C   UNL     1      13.390  11.766  18.640  0.00  0.00    +0.010 C 
ENDROOT
BRANCH  13   4
ATOM      3  O   UNL     1      12.387   9.093  15.427  0.00  0.00    -0.276 OA
ATOM      4  N   UNL     1      13.743   9.156  17.318  0.00  0.00    -0.312 N 
ATOM     21  C   UNL     1      13.491   9.038  15.964  0.00  0.00    +0.210 C 
ATOM     22  C   UNL     1      14.753   8.853  15.166  0.00  0.00    +0.109 C 
ATOM     26  H   UNL     1      14.694   9.035  17.654  0.00  0.00    +0.149 HD
ENDBRANCH  13   4
BRANCH   9   1
ATOM      1  O   UNL     1      12.270  12.924  20.921  0.00  0.00    -0.391 OA
ATOM     27  H   UNL     1      11.525  12.964  20.296  0.00  0.00    +0.210 HD
ENDBRANCH   9   1
BRANCH  11  17
ATOM     17  C   UNL     1      11.465  12.681  23.737  0.00  0.00    +0.077 C 
ATOM     19  C   UNL     1      10.935  12.166  25.069  0.00  0.00    +0.017 C 
BRANCH  17  20
ATOM      2  O   UNL     1      11.371  15.100  23.809  0.00  0.00    -0.276 OA
ATOM      5  N   UNL     1       9.758  13.964  22.590  0.00  0.00    -0.313 N 
ATOM     20  C   UNL     1      10.882  14.050  23.398  0.00  0.00    +0.216 C 
ATOM     28  H   UNL     1       9.385  13.048  22.358  0.00  0.00    +0.149 HD
BRANCH   5  23
ATOM     23  C   UNL     1       9.029  15.127  22.138  0.00  0.00    +0.067 C 
ATOM     24  C   UNL     1       7.549  14.988  22.471  0.00  0.00    +0.027 C 
ATOM     25  C   UNL     1       9.242  15.344  20.646  0.00  0.00    +0.027 C 
ENDBRANCH   5  23
ENDBRANCH  17  20
ENDBRANCH  11  17
TORSDOF 5
ENDMDL
MODEL 3
REMARK VINA RESULT:      -6.1     27.340     28.716
REMARK  Name = 28962456
REMARK  11 active torsions:
REMARK  status: ('A' for Active; 'I' for Inactive)
REMARK    1  A    between atoms: O_1  and  C_9
REMARK    2  A    between atoms: N_4  and  C_13
REMARK    3  A    between atoms: N_5  and  C_23
REMARK    4  A    between atoms: C_6  and  C_16
REMARK    5  A    between atoms: C_8  and  C_18
REMARK    6  A    between atoms: C_11  and  C_17
REMARK    7  A    between atoms: C_17  and  C_19
REMARK    8  A    between atoms: C_17  and  C_20
REMARK    9  A    between atoms: C_21  and  C_22
REMARK   10  A    between atoms: C_23  and  C_24
REMARK   11  A    between atoms: C_23  and  C_25
REMARK                            x       y       z     vdW  Elec       q    Type
REMARK                         _______ _______ _______ _____ _____    ______ ____
ROOT
ATOM      6  C   UNL     1      -4.804 -11.020  16.938  0.00  0.00    -0.027 C 
ATOM      7  C   UNL     1      -5.614 -10.409  15.747  0.00  0.00    +0.028 C 
ATOM      8  C   UNL     1      -7.159 -10.534  15.998  0.00  0.00    +0.012 C 
ATOM      9  C   UNL     1      -5.112 -10.961  14.380  0.00  0.00    +0.122 C 
ATOM     10  C   UNL     1      -3.293 -10.779  16.711  0.00  0.00    +0.007 C 
ATOM     11  C   UNL     1      -3.584 -10.811  14.205  0.00  0.00    +0.029 C 
ATOM     12  C   UNL     1      -5.206 -10.297  18.244  0.00  0.00    +0.009 C 
ATOM     13  C   UNL     1      -7.540  -9.869  17.351  0.00  0.00    +0.076 C 
ATOM     14  C   UNL     1      -2.790 -11.354  15.393  0.00  0.00    +0.007 C 
ATOM     15  C   UNL     1      -6.699 -10.362  18.528  0.00  0.00    +0.023 C 
ATOM     16  C   UNL     1      -5.047 -12.542  17.102  0.00  0.00    +0.011 C 
ATOM     18  C   UNL     1      -8.018  -9.926  14.876  0.00  0.00    +0.010 C 
ENDROOT
BRANCH  13   4
ATOM      3  O   UNL     1      -9.627  -7.853  17.464  0.00  0.00    -0.276 OA
ATOM      4  N   UNL     1      -8.938 -10.067  17.672  0.00  0.00    -0.312 N 
ATOM     21  C   UNL     1      -9.859  -9.037  17.699  0.00  0.00    +0.210 C 
ATOM     22  C   UNL     1     -11.244  -9.522  18.035  0.00  0.00    +0.109 C 
ATOM     26  H   UNL     1      -9.235 -11.000  17.943  0.00  0.00    +0.149 HD
ENDBRANCH  13   4
BRANCH   9   1
ATOM      1  O   UNL     1      -5.720 -10.227  13.317  0.00  0.00    -0.391 OA
ATOM     27  H   UNL     1      -5.534  -9.283  13.457  0.00  0.00    +0.210 HD
ENDBRANCH   9   1
BRANCH  11  17
ATOM     17  C   UNL     1      -3.092 -11.478  12.914  0.00  0.00    +0.077 C 
ATOM     19  C   UNL     1      -1.833 -12.291  13.189  0.00  0.00    +0.017 C 
BRANCH  17  20
ATOM      2  O   UNL     1      -1.775  -9.832  11.721  0.00  0.00    -0.276 OA
ATOM      5  N   UNL     1      -3.960 -10.207  11.042  0.00  0.00    -0.313 N 
ATOM     20  C   UNL     1      -2.847 -10.420  11.842  0.00  0.00    +0.216 C 
ATOM     28  H   UNL     1      -4.826 -10.689  11.261  0.00  0.00    +0.149 HD
BRANCH   5  23
ATOM     23  C   UNL     1      -3.973  -9.250   9.959  0.00  0.00    +0.067 C 
ATOM     24  C   UNL     1      -4.832  -8.047  10.325  0.00  0.00    +0.027 C 
ATOM     25  C   UNL     1      -4.457  -9.905   8.673  0.00  0.00    +0.027 C 
ENDBRANCH   5  23
ENDBRANCH  17  20
ENDBRANCH  11  17
TORSDOF 5
ENDMDL
MODEL 4
REMARK VINA RESULT:      -6.1     27.246     29.285
REMARK  Name = 28962456
REMARK  11 active torsions:
REMARK  status: ('A' for Active; 'I' for Inactive)
REMARK    1  A    between atoms: O_1  and  C_9
REMARK    2  A    between atoms: N_4  and  C_13
REMARK    3  A    between atoms: N_5  and  C_23
REMARK    4  A    between atoms: C_6  and  C_16
REMARK    5  A    between atoms: C_8  and  C_18
REMARK    6  A    between atoms: C_11  and  C_17
REMARK    7  A    between atoms: C_17  and  C_19
REMARK    8  A    between atoms: C_17  and  C_20
REMARK    9  A    between atoms: C_21  and  C_22
REMARK   10  A    between atoms: C_23  and  C_24
REMARK   11  A    between atoms: C_23  and  C_25
REMARK                            x       y       z     vdW  Elec       q    Type
REMARK                         _______ _______ _______ _____ _____    ______ ____
ROOT
ATOM      6  C   UNL     1      -3.537 -10.693  10.699  0.00  0.00    -0.027 C 
ATOM      7  C   UNL     1      -4.832 -10.312  11.491  0.00  0.00    +0.028 C 
ATOM      8  C   UNL     1      -5.628  -9.179  10.750  0.00  0.00    +0.012 C 
ATOM      9  C   UNL     1      -4.517 -10.037  12.990  0.00  0.00    +0.122 C 
ATOM     10  C   UNL     1      -2.839 -11.885  11.395  0.00  0.00    +0.007 C 
ATOM     11  C   UNL     1      -3.726 -11.189  13.653  0.00  0.00    +0.029 C 
ATOM     12  C   UNL     1      -3.932 -11.145   9.274  0.00  0.00    +0.009 C 
ATOM     13  C   UNL     1      -5.954  -9.616   9.293  0.00  0.00    +0.076 C 
ATOM     14  C   UNL     1      -2.492 -11.604  12.851  0.00  0.00    +0.007 C 
ATOM     15  C   UNL     1      -4.730 -10.096   8.515  0.00  0.00    +0.023 C 
ATOM     16  C   UNL     1      -2.533  -9.516  10.602  0.00  0.00    +0.011 C 
ATOM     18  C   UNL     1      -6.931  -8.776  11.461  0.00  0.00    +0.010 C 
ENDROOT
BRANCH  13   4
ATOM      3  O   UNL     1      -8.224  -9.829   7.495  0.00  0.00    -0.276 OA
ATOM      4  N   UNL     1      -6.586  -8.550   8.543  0.00  0.00    -0.312 N 
ATOM     21  C   UNL     1      -7.668  -8.754   7.708  0.00  0.00    +0.210 C 
ATOM     22  C   UNL     1      -8.144  -7.476   7.072  0.00  0.00    +0.109 C 
ATOM     26  H   UNL     1      -6.173  -7.623   8.595  0.00  0.00    +0.149 HD
ENDBRANCH  13   4
BRANCH   9   1
ATOM      1  O   UNL     1      -5.738  -9.907  13.719  0.00  0.00    -0.391 OA
ATOM     27  H   UNL     1      -6.439 -10.354  13.214  0.00  0.00    +0.210 HD
ENDBRANCH   9   1
BRANCH  11  17
ATOM     17  C   UNL     1      -3.312 -10.842  15.088  0.00  0.00    +0.077 C 
ATOM     19  C   UNL     1      -1.845 -11.192  15.310  0.00  0.00    +0.017 C 
BRANCH  17  20
ATOM      2  O   UNL     1      -5.207 -12.205  15.733  0.00  0.00    -0.276 OA
ATOM      5  N   UNL     1      -3.784 -11.430  17.392  0.00  0.00    -0.313 N 
ATOM     20  C   UNL     1      -4.214 -11.570  16.080  0.00  0.00    +0.216 C 
ATOM     28  H   UNL     1      -2.991 -10.828  17.590  0.00  0.00    +0.149 HD
BRANCH   5  23
ATOM     23  C   UNL     1      -4.477 -12.028  18.510  0.00  0.00    +0.067 C 
ATOM     24  C   UNL     1      -5.560 -11.090  19.026  0.00  0.00    +0.027 C 
ATOM     25  C   UNL     1      -3.493 -12.396  19.612  0.00  0.00    +0.027 C 
ENDBRANCH   5  23
ENDBRANCH  17  20
ENDBRANCH  11  17
TORSDOF 5
ENDMDL
MODEL 5
REMARK VINA RESULT:      -6.0     27.595     30.420
REMARK  Name = 28962456
REMARK  11 active torsions:
REMARK  status: ('A' for Active; 'I' for Inactive)
REMARK    1  A    between atoms: O_1  and  C_9
REMARK    2  A    between atoms: N_4  and  C_13
REMARK    3  A    between atoms: N_5  and  C_23
REMARK    4  A    between atoms: C_6  and  C_16
REMARK    5  A    between atoms: C_8  and  C_18
REMARK    6  A    between atoms: C_11  and  C_17
REMARK    7  A    between atoms: C_17  and  C_19
REMARK    8  A    between atoms: C_17  and  C_20
REMARK    9  A    between atoms: C_21  and  C_22
REMARK   10  A    between atoms: C_23  and  C_24
REMARK   11  A    between atoms: C_23  and  C_25
REMARK                            x       y       z     vdW  Elec       q    Type
REMARK                         _______ _______ _______ _____ _____    ______ ____
ROOT
ATOM      6  C   UNL     1      -6.572 -11.426  18.984  0.00  0.00    -0.027 C 
ATOM      7  C   UNL     1      -6.932 -10.784  17.604  0.00  0.00    +0.028 C 
ATOM      8  C   UNL     1      -5.676 -10.092  16.963  0.00  0.00    +0.012 C 
ATOM      9  C   UNL     1      -8.204  -9.893  17.710  0.00  0.00    +0.122 C 
ATOM     10  C   UNL     1      -7.798 -12.194  19.531  0.00  0.00    +0.007 C 
ATOM     11  C   UNL     1      -9.397 -10.635  18.355  0.00  0.00    +0.029 C 
ATOM     12  C   UNL     1      -5.429 -12.448  18.782  0.00  0.00    +0.009 C 
ATOM     13  C   UNL     1      -4.508 -11.111  16.834  0.00  0.00    +0.076 C 
ATOM     14  C   UNL     1      -9.034 -11.315  19.675  0.00  0.00    +0.007 C 
ATOM     15  C   UNL     1      -4.191 -11.840  18.139  0.00  0.00    +0.023 C 
ATOM     16  C   UNL     1      -6.135 -10.372  20.033  0.00  0.00    +0.011 C 
ATOM     18  C   UNL     1      -5.953  -9.463  15.587  0.00  0.00    +0.010 C 
ENDROOT
BRANCH  13   4
ATOM      3  O   UNL     1      -2.603 -12.173  14.916  0.00  0.00    -0.276 OA
ATOM      4  N   UNL     1      -3.296 -10.479  16.356  0.00  0.00    -0.312 N 
ATOM     21  C   UNL     1      -2.449 -11.070  15.436  0.00  0.00    +0.210 C 
ATOM     22  C   UNL     1      -1.278 -10.188  15.093  0.00  0.00    +0.109 C 
ATOM     26  H   UNL     1      -3.033  -9.586  16.762  0.00  0.00    +0.149 HD
ENDBRANCH  13   4
BRANCH   9   1
ATOM      1  O   UNL     1      -8.624  -9.502  16.402  0.00  0.00    -0.391 OA
ATOM     27  H   UNL     1      -7.863  -9.099  15.949  0.00  0.00    +0.210 HD
ENDBRANCH   9   1
BRANCH  11  17
ATOM     17  C   UNL     1     -10.596  -9.704  18.571  0.00  0.00    +0.077 C 
ATOM     19  C   UNL     1     -11.620 -10.369  19.483  0.00  0.00    +0.017 C 
BRANCH  17  20
ATOM      2  O   UNL     1     -11.558 -10.165  16.396  0.00  0.00    -0.276 OA
ATOM      5  N   UNL     1     -11.326  -7.955  17.060  0.00  0.00    -0.313 N 
ATOM     20  C   UNL     1     -11.211  -9.328  17.226  0.00  0.00    +0.216 C 
ATOM     28  H   UNL     1     -10.949  -7.338  17.772  0.00  0.00    +0.149 HD
BRANCH   5  23
ATOM     23  C   UNL     1     -11.878  -7.356  15.867  0.00  0.00    +0.067 C 
ATOM     24  C   UNL     1     -11.218  -6.010  15.595  0.00  0.00    +0.027 C 
ATOM     25  C   UNL     1     -13.389  -7.215  15.989  0.00  0.00    +0.027 C 
ENDBRANCH   5  23
ENDBRANCH  17  20
ENDBRANCH  11  17
TORSDOF 5
ENDMDL
MODEL 6
REMARK VINA RESULT:      -5.9      2.533      3.733
REMARK  Name = 28962456
REMARK  11 active torsions:
REMARK  status: ('A' for Active; 'I' for Inactive)
REMARK    1  A    between atoms: O_1  and  C_9
REMARK    2  A    between atoms: N_4  and  C_13
REMARK    3  A    between atoms: N_5  and  C_23
REMARK    4  A    between atoms: C_6  and  C_16
REMARK    5  A    between atoms: C_8  and  C_18
REMARK    6  A    between atoms: C_11  and  C_17
REMARK    7  A    between atoms: C_17  and  C_19
REMARK    8  A    between atoms: C_17  and  C_20
REMARK    9  A    between atoms: C_21  and  C_22
REMARK   10  A    between atoms: C_23  and  C_24
REMARK   11  A    between atoms: C_23  and  C_25
REMARK                            x       y       z     vdW  Elec       q    Type
REMARK                         _______ _______ _______ _____ _____    ______ ____
ROOT
ATOM      6  C   UNL     1      11.482  11.188  22.908  0.00  0.00    -0.027 C 
ATOM      7  C   UNL     1      12.997  10.914  23.187  0.00  0.00    +0.028 C 
ATOM      8  C   UNL     1      13.641  12.097  23.995  0.00  0.00    +0.012 C 
ATOM      9  C   UNL     1      13.746  10.509  21.884  0.00  0.00    +0.122 C 
ATOM     10  C   UNL     1      10.855   9.956  22.213  0.00  0.00    +0.007 C 
ATOM     11  C   UNL     1      13.055   9.344  21.139  0.00  0.00    +0.029 C 
ATOM     12  C   UNL     1      10.751  11.391  24.256  0.00  0.00    +0.009 C 
ATOM     13  C   UNL     1      12.850  12.342  25.312  0.00  0.00    +0.076 C 
ATOM     14  C   UNL     1      11.561   9.582  20.917  0.00  0.00    +0.007 C 
ATOM     15  C   UNL     1      11.347  12.511  25.096  0.00  0.00    +0.023 C 
ATOM     16  C   UNL     1      11.258  12.433  22.013  0.00  0.00    +0.011 C 
ATOM     18  C   UNL     1      15.126  11.880  24.329  0.00  0.00    +0.010 C 
ENDROOT
BRANCH  13   4
ATOM      3  O   UNL     1      14.313  12.378  27.820  0.00  0.00    -0.276 OA
ATOM      4  N   UNL     1      13.344  13.501  26.026  0.00  0.00    -0.312 N 
ATOM     21  C   UNL     1      14.034  13.414  27.221  0.00  0.00    +0.210 C 
ATOM     22  C   UNL     1      14.454  14.765  27.734  0.00  0.00    +0.109 C 
ATOM     26  H   UNL     1      13.120  14.420  25.653  0.00  0.00    +0.149 HD
ENDBRANCH  13   4
BRANCH   9   1
ATOM      1  O   UNL     1      15.062  10.061  22.211  0.00  0.00    -0.391 OA
ATOM     27  H   UNL     1      15.172  10.124  23.175  0.00  0.00    +0.210 HD
ENDBRANCH   9   1
BRANCH  11  17
ATOM     17  C   UNL     1      13.731   9.049  19.794  0.00  0.00    +0.077 C 
ATOM     19  C   UNL     1      12.727   9.196  18.657  0.00  0.00    +0.017 C 
BRANCH  17  20
ATOM      2  O   UNL     1      13.697   6.638  19.567  0.00  0.00    -0.276 OA
ATOM      5  N   UNL     1      15.691   7.668  20.150  0.00  0.00    -0.313 N 
ATOM     20  C   UNL     1      14.344   7.652  19.817  0.00  0.00    +0.216 C 
ATOM     28  H   UNL     1      16.126   8.548  20.409  0.00  0.00    +0.149 HD
BRANCH   5  23
ATOM     23  C   UNL     1      16.489   6.466  20.238  0.00  0.00    +0.067 C 
ATOM     24  C   UNL     1      17.689   6.692  21.148  0.00  0.00    +0.027 C 
ATOM     25  C   UNL     1      16.924   6.011  18.852  0.00  0.00    +0.027 C 
ENDBRANCH   5  23
ENDBRANCH  17  20
ENDBRANCH  11  17
TORSDOF 5
ENDMDL
MODEL 7
REMARK VINA RESULT:      -5.9     27.695     29.669
REMARK  Name = 28962456
REMARK  11 active torsions:
REMARK  status: ('A' for Active; 'I' for Inactive)
REMARK    1  A    between atoms: O_1  and  C_9
REMARK    2  A    between atoms: N_4  and  C_13
REMARK    3  A    between atoms: N_5  and  C_23
REMARK    4  A    between atoms: C_6  and  C_16
REMARK    5  A    between atoms: C_8  and  C_18
REMARK    6  A    between atoms: C_11  and  C_17
REMARK    7  A    between atoms: C_17  and  C_19
REMARK    8  A    between atoms: C_17  and  C_20
REMARK    9  A    between atoms: C_21  and  C_22
REMARK   10  A    between atoms: C_23  and  C_24
REMARK   11  A    between atoms: C_23  and  C_25
REMARK                            x       y       z     vdW  Elec       q    Type
REMARK                         _______ _______ _______ _____ _____    ______ ____
ROOT
ATOM      6  C   UNL     1      -5.017 -11.217  17.977  0.00  0.00    -0.027 C 
ATOM      7  C   UNL     1      -5.761 -12.240  17.057  0.00  0.00    +0.028 C 
ATOM      8  C   UNL     1      -6.549 -13.294  17.914  0.00  0.00    +0.012 C 
ATOM      9  C   UNL     1      -4.804 -12.833  15.982  0.00  0.00    +0.122 C 
ATOM     10  C   UNL     1      -4.347 -10.130  17.103  0.00  0.00    +0.007 C 
ATOM     11  C   UNL     1      -4.058 -11.740  15.182  0.00  0.00    +0.029 C 
ATOM     12  C   UNL     1      -6.050 -10.516  18.890  0.00  0.00    +0.009 C 
ATOM     13  C   UNL     1      -7.530 -12.575  18.882  0.00  0.00    +0.076 C 
ATOM     14  C   UNL     1      -3.379 -10.704  16.078  0.00  0.00    +0.007 C 
ATOM     15  C   UNL     1      -6.863 -11.491  19.729  0.00  0.00    +0.023 C 
ATOM     16  C   UNL     1      -3.931 -11.889  18.855  0.00  0.00    +0.011 C 
ATOM     18  C   UNL     1      -7.329 -14.316  17.070  0.00  0.00    +0.010 C 
ENDROOT
BRANCH  13   4
ATOM      3  O   UNL     1     -10.163 -12.316  20.079  0.00  0.00    -0.276 OA
ATOM      4  N   UNL     1      -8.189 -13.510  19.771  0.00  0.00    -0.312 N 
ATOM     21  C   UNL     1      -9.451 -13.295  20.291  0.00  0.00    +0.210 C 
ATOM     22  C   UNL     1      -9.908 -14.434  21.163  0.00  0.00    +0.109 C 
ATOM     26  H   UNL     1      -7.669 -14.332  20.065  0.00  0.00    +0.149 HD
ENDBRANCH  13   4
BRANCH   9   1
ATOM      1  O   UNL     1      -5.559 -13.589  15.035  0.00  0.00    -0.391 OA
ATOM     27  H   UNL     1      -5.648 -14.496  15.375  0.00  0.00    +0.210 HD
ENDBRANCH   9   1
BRANCH  11  17
ATOM     17  C   UNL     1      -3.025 -12.344  14.223  0.00  0.00    +0.077 C 
ATOM     19  C   UNL     1      -1.635 -11.808  14.544  0.00  0.00    +0.017 C 
BRANCH  17  20
ATOM      2  O   UNL     1      -3.379 -12.887  11.889  0.00  0.00    -0.276 OA
ATOM      5  N   UNL     1      -3.812 -10.723  12.601  0.00  0.00    -0.313 N 
ATOM     20  C   UNL     1      -3.417 -12.041  12.779  0.00  0.00    +0.216 C 
ATOM     28  H   UNL     1      -3.744 -10.077  13.382  0.00  0.00    +0.149 HD
BRANCH   5  23
ATOM     23  C   UNL     1      -4.227 -10.198  11.321  0.00  0.00    +0.067 C 
ATOM     24  C   UNL     1      -3.038  -9.595  10.584  0.00  0.00    +0.027 C 
ATOM     25  C   UNL     1      -5.342  -9.176  11.499  0.00  0.00    +0.027 C 
ENDBRANCH   5  23
ENDBRANCH  17  20
ENDBRANCH  11  17
TORSDOF 5
ENDMDL
MODEL 8
REMARK VINA RESULT:      -5.9      3.938      7.753
REMARK  Name = 28962456
REMARK  11 active torsions:
REMARK  status: ('A' for Active; 'I' for Inactive)
REMARK    1  A    between atoms: O_1  and  C_9
REMARK    2  A    between atoms: N_4  and  C_13
REMARK    3  A    between atoms: N_5  and  C_23
REMARK    4  A    between atoms: C_6  and  C_16
REMARK    5  A    between atoms: C_8  and  C_18
REMARK    6  A    between atoms: C_11  and  C_17
REMARK    7  A    between atoms: C_17  and  C_19
REMARK    8  A    between atoms: C_17  and  C_20
REMARK    9  A    between atoms: C_21  and  C_22
REMARK   10  A    between atoms: C_23  and  C_24
REMARK   11  A    between atoms: C_23  and  C_25
REMARK                            x       y       z     vdW  Elec       q    Type
REMARK                         _______ _______ _______ _____ _____    ______ ____
ROOT
ATOM      6  C   UNL     1      12.335   8.990  18.007  0.00  0.00    -0.027 C 
ATOM      7  C   UNL     1      12.998  10.250  18.656  0.00  0.00    +0.028 C 
ATOM      8  C   UNL     1      14.380  10.567  17.980  0.00  0.00    +0.012 C 
ATOM      9  C   UNL     1      13.024  10.137  20.209  0.00  0.00    +0.122 C 
ATOM     10  C   UNL     1      10.930   8.775  18.617  0.00  0.00    +0.007 C 
ATOM     11  C   UNL     1      11.634   9.818  20.804  0.00  0.00    +0.029 C 
ATOM     12  C   UNL     1      12.157   9.240  16.491  0.00  0.00    +0.009 C 
ATOM     13  C   UNL     1      14.200  10.741  16.445  0.00  0.00    +0.076 C 
ATOM     14  C   UNL     1      10.956   8.624  20.132  0.00  0.00    +0.007 C 
ATOM     15  C   UNL     1      13.461   9.577  15.784  0.00  0.00    +0.023 C 
ATOM     16  C   UNL     1      13.172   7.703  18.218  0.00  0.00    +0.011 C 
ATOM     18  C   UNL     1      15.075  11.813  18.552  0.00  0.00    +0.010 C 
ENDROOT
BRANCH  13   4
ATOM      3  O   UNL     1      14.869  12.724  14.432  0.00  0.00    -0.276 OA
ATOM      4  N   UNL     1      15.470  10.918  15.773  0.00  0.00    -0.312 N 
ATOM     21  C   UNL     1      15.691  11.898  14.823  0.00  0.00    +0.210 C 
ATOM     22  C   UNL     1      17.104  11.877  14.303  0.00  0.00    +0.109 C 
ATOM     26  H   UNL     1      16.211  10.252  15.974  0.00  0.00    +0.149 HD
ENDBRANCH  13   4
BRANCH   9   1
ATOM      1  O   UNL     1      13.434  11.384  20.771  0.00  0.00    -0.391 OA
ATOM     27  H   UNL     1      12.847  11.585  21.520  0.00  0.00    +0.210 HD
ENDBRANCH   9   1
BRANCH  11  17
ATOM     17  C   UNL     1      11.705   9.581  22.318  0.00  0.00    +0.077 C 
ATOM     19  C   UNL     1      10.919   8.329  22.691  0.00  0.00    +0.017 C 
BRANCH  17  20
ATOM      2  O   UNL     1      10.898  10.788  24.257  0.00  0.00    -0.276 OA
ATOM      5  N   UNL     1      11.073  11.919  22.240  0.00  0.00    -0.313 N 
ATOM     20  C   UNL     1      11.184  10.807  23.062  0.00  0.00    +0.216 C 
ATOM     28  H   UNL     1      11.266  11.821  21.248  0.00  0.00    +0.149 HD
BRANCH   5  23
ATOM     23  C   UNL     1      10.599  13.198  22.715  0.00  0.00    +0.067 C 
ATOM     24  C   UNL     1      10.120  14.054  21.550  0.00  0.00    +0.027 C 
ATOM     25  C   UNL     1      11.685  13.908  23.512  0.00  0.00    +0.027 C 
ENDBRANCH   5  23
ENDBRANCH  17  20
ENDBRANCH  11  17
TORSDOF 5
ENDMDL
MODEL 9
REMARK VINA RESULT:      -5.8     16.107     17.713
REMARK  Name = 28962456
REMARK  11 active torsions:
REMARK  status: ('A' for Active; 'I' for Inactive)
REMARK    1  A    between atoms: O_1  and  C_9
REMARK    2  A    between atoms: N_4  and  C_13
REMARK    3  A    between atoms: N_5  and  C_23
REMARK    4  A    between atoms: C_6  and  C_16
REMARK    5  A    between atoms: C_8  and  C_18
REMARK    6  A    between atoms: C_11  and  C_17
REMARK    7  A    between atoms: C_17  and  C_19
REMARK    8  A    between atoms: C_17  and  C_20
REMARK    9  A    between atoms: C_21  and  C_22
REMARK   10  A    between atoms: C_23  and  C_24
REMARK   11  A    between atoms: C_23  and  C_25
REMARK                            x       y       z     vdW  Elec       q    Type
REMARK                         _______ _______ _______ _____ _____    ______ ____
ROOT
ATOM      6  C   UNL     1       9.475   6.152   5.914  0.00  0.00    -0.027 C 
ATOM      7  C   UNL     1      10.340   7.352   5.403  0.00  0.00    +0.028 C 
ATOM      8  C   UNL     1       9.821   8.710   5.998  0.00  0.00    +0.012 C 
ATOM      9  C   UNL     1      10.495   7.317   3.854  0.00  0.00    +0.122 C 
ATOM     10  C   UNL     1      10.082   4.824   5.401  0.00  0.00    +0.007 C 
ATOM     11  C   UNL     1      11.003   5.950   3.339  0.00  0.00    +0.029 C 
ATOM     12  C   UNL     1       9.518   6.123   7.460  0.00  0.00    +0.009 C 
ATOM     13  C   UNL     1       9.796   8.641   7.551  0.00  0.00    +0.076 C 
ATOM     14  C   UNL     1      10.198   4.770   3.884  0.00  0.00    +0.007 C 
ATOM     15  C   UNL     1       9.049   7.424   8.094  0.00  0.00    +0.023 C 
ATOM     16  C   UNL     1       8.001   6.240   5.445  0.00  0.00    +0.011 C 
ATOM     18  C   UNL     1      10.645   9.931   5.558  0.00  0.00    +0.010 C 
ENDROOT
BRANCH  13   4
ATOM      3  O   UNL     1      11.137  10.669   9.141  0.00  0.00    -0.276 OA
ATOM      4  N   UNL     1       9.212   9.833   8.131  0.00  0.00    -0.312 N 
ATOM     21  C   UNL     1       9.939  10.743   8.876  0.00  0.00    +0.210 C 
ATOM     22  C   UNL     1       9.096  11.902   9.337  0.00  0.00    +0.109 C 
ATOM     26  H   UNL     1       8.211   9.970   8.028  0.00  0.00    +0.149 HD
ENDBRANCH  13   4
BRANCH   9   1
ATOM      1  O   UNL     1      11.457   8.290   3.449  0.00  0.00    -0.391 OA
ATOM     27  H   UNL     1      11.626   8.880   4.203  0.00  0.00    +0.210 HD
ENDBRANCH   9   1
BRANCH  11  17
ATOM     17  C   UNL     1      11.022   5.893   1.806  0.00  0.00    +0.077 C 
ATOM     19  C   UNL     1      10.291   4.648   1.318  0.00  0.00    +0.017 C 
BRANCH  17  20
ATOM      2  O   UNL     1      13.075   6.971   1.106  0.00  0.00    -0.276 OA
ATOM      5  N   UNL     1      12.982   4.653   1.101  0.00  0.00    -0.313 N 
ATOM     20  C   UNL     1      12.463   5.924   1.304  0.00  0.00    +0.216 C 
ATOM     28  H   UNL     1      12.378   3.847   1.225  0.00  0.00    +0.149 HD
BRANCH   5  23
ATOM     23  C   UNL     1      14.327   4.425   0.625  0.00  0.00    +0.067 C 
ATOM     24  C   UNL     1      14.302   3.911  -0.809  0.00  0.00    +0.027 C 
ATOM     25  C   UNL     1      15.063   3.461   1.545  0.00  0.00    +0.027 C 
ENDBRANCH   5  23
ENDBRANCH  17  20
ENDBRANCH  11  17
TORSDOF 5
ENDMDL
MODEL 10
REMARK VINA RESULT:      -5.7     28.213     30.894
REMARK  Name = 28962456
REMARK  11 active torsions:
REMARK  status: ('A' for Active; 'I' for Inactive)
REMARK    1  A    between atoms: O_1  and  C_9
REMARK    2  A    between atoms: N_4  and  C_13
REMARK    3  A    between atoms: N_5  and  C_23
REMARK    4  A    between atoms: C_6  and  C_16
REMARK    5  A    between atoms: C_8  and  C_18
REMARK    6  A    between atoms: C_11  and  C_17
REMARK    7  A    between atoms: C_17  and  C_19
REMARK    8  A    between atoms: C_17  and  C_20
REMARK    9  A    between atoms: C_21  and  C_22
REMARK   10  A    between atoms: C_23  and  C_24
REMARK   11  A    between atoms: C_23  and  C_25
REMARK                            x       y       z     vdW  Elec       q    Type
REMARK                         _______ _______ _______ _____ _____    ______ ____
ROOT
ATOM      6  C   UNL     1      -6.354 -11.505  18.964  0.00  0.00    -0.027 C 
ATOM      7  C   UNL     1      -6.750 -10.990  17.540  0.00  0.00    +0.028 C 
ATOM      8  C   UNL     1      -5.567 -10.190  16.885  0.00  0.00    +0.012 C 
ATOM      9  C   UNL     1      -8.121 -10.253  17.568  0.00  0.00    +0.122 C 
ATOM     10  C   UNL     1      -7.495 -12.381  19.531  0.00  0.00    +0.007 C 
ATOM     11  C   UNL     1      -9.234 -11.095  18.231  0.00  0.00    +0.029 C 
ATOM     12  C   UNL     1      -5.093 -12.392  18.846  0.00  0.00    +0.009 C 
ATOM     13  C   UNL     1      -4.284 -11.068  16.841  0.00  0.00    +0.076 C 
ATOM     14  C   UNL     1      -8.830 -11.650  19.597  0.00  0.00    +0.007 C 
ATOM     15  C   UNL     1      -3.919 -11.678  18.193  0.00  0.00    +0.023 C 
ATOM     16  C   UNL     1      -6.073 -10.348  19.957  0.00  0.00    +0.011 C 
ATOM     18  C   UNL     1      -5.879  -9.678  15.469  0.00  0.00    +0.010 C 
ENDROOT
BRANCH  13   4
ATOM      3  O   UNL     1      -2.233 -11.992  15.005  0.00  0.00    -0.276 OA
ATOM      4  N   UNL     1      -3.142 -10.324  16.350  0.00  0.00    -0.312 N 
ATOM     21  C   UNL     1      -2.216 -10.855  15.473  0.00  0.00    +0.210 C 
ATOM     22  C   UNL     1      -1.147  -9.862  15.105  0.00  0.00    +0.109 C 
ATOM     26  H   UNL     1      -2.992  -9.388  16.717  0.00  0.00    +0.149 HD
ENDBRANCH  13   4
BRANCH   9   1
ATOM      1  O   UNL     1      -8.548  -9.990  16.231  0.00  0.00    -0.391 OA
ATOM     27  H   UNL     1      -9.062  -9.164  16.235  0.00  0.00    +0.210 HD
ENDBRANCH   9   1
BRANCH  11  17
ATOM     17  C   UNL     1     -10.541 -10.302  18.368  0.00  0.00    +0.077 C 
ATOM     19  C   UNL     1     -10.932 -10.182  19.836  0.00  0.00    +0.017 C 
BRANCH  17  20
ATOM      2  O   UNL     1     -12.837 -10.753  17.742  0.00  0.00    -0.276 OA
ATOM      5  N   UNL     1     -11.141 -11.843  16.595  0.00  0.00    -0.313 N 
ATOM     20  C   UNL     1     -11.643 -10.973  17.552  0.00  0.00    +0.216 C 
ATOM     28  H   UNL     1     -10.141 -12.014  16.559  0.00  0.00    +0.149 HD
BRANCH   5  23
ATOM     23  C   UNL     1     -11.990 -12.596  15.702  0.00  0.00    +0.067 C 
ATOM     24  C   UNL     1     -11.415 -13.988  15.472  0.00  0.00    +0.027 C 
ATOM     25  C   UNL     1     -12.178 -11.851  14.387  0.00  0.00    +0.027 C 
ENDBRANCH   5  23
ENDBRANCH  17  20
ENDBRANCH  11  17
TORSDOF 5
ENDMDL
