MODEL 1
REMARK VINA RESULT:      -6.8      0.000      0.000
REMARK  Name = 51137452
REMARK  7 active torsions:
REMARK  status: ('A' for Active; 'I' for Inactive)
REMARK    1  A    between atoms: O_2  and  C_21
REMARK    2  A    between atoms: O_2  and  C_27
REMARK    3  A    between atoms: N_3  and  C_11
REMARK    4  A    between atoms: C_7  and  C_12
REMARK    5  A    between atoms: C_11  and  C_13
REMARK    6  A    between atoms: C_14  and  C_17
REMARK    7  A    between atoms: C_18  and  C_25
REMARK                            x       y       z     vdW  Elec       q    Type
REMARK                         _______ _______ _______ _____ _____    ______ ____
ROOT
ATOM      3  N   UNL     1      15.792   7.843  20.880  0.00  0.00    -0.297 NA
ATOM      7  C   UNL     1      18.027   7.182  20.613  0.00  0.00    +0.092 C 
ATOM      8  C   UNL     1      17.100   6.123  19.992  0.00  0.00    +0.029 C 
ATOM      9  C   UNL     1      17.106   8.034  21.498  0.00  0.00    +0.097 C 
ATOM     10  C   UNL     1      15.724   6.414  20.576  0.00  0.00    +0.085 C 
ENDROOT
BRANCH   7  12
ATOM      1  O   UNL     1      20.079   5.847  20.657  0.00  0.00    -0.420 OA
ATOM      4  N   UNL     1      19.554   6.776  22.622  0.00  0.00    -0.112 NA
ATOM      5  N   UNL     1      20.722   6.058  22.789  0.00  0.00    -0.107 NA
ATOM     12  C   UNL     1      19.215   6.625  21.363  0.00  0.00    +0.222 A 
ATOM     14  C   UNL     1      20.992   5.533  21.616  0.00  0.00    +0.252 A 
BRANCH  14  17
ATOM     17  C   UNL     1      22.078   4.696  21.198  0.00  0.00    +0.080 A 
ATOM     21  C   UNL     1      23.225   5.244  20.623  0.00  0.00    +0.132 A 
ATOM     22  C   UNL     1      21.978   3.316  21.372  0.00  0.00    +0.017 A 
ATOM     23  C   UNL     1      24.271   4.413  20.225  0.00  0.00    +0.046 A 
ATOM     24  C   UNL     1      23.025   2.484  20.974  0.00  0.00    +0.001 A 
ATOM     26  C   UNL     1      24.171   3.032  20.399  0.00  0.00    +0.004 A 
BRANCH  21   2
ATOM      2  O   UNL     1      23.350   6.590  20.441  0.00  0.00    -0.494 OA
ATOM     27  C   UNL     1      24.493   7.217  21.020  0.00  0.00    +0.277 C 
ENDBRANCH  21   2
ENDBRANCH  14  17
ENDBRANCH   7  12
BRANCH   3  11
ATOM     11  C   UNL     1      14.704   8.280  21.742  0.00  0.00    +0.119 C 
BRANCH  11  13
ATOM     13  C   UNL     1      13.400   8.374  20.995  0.00  0.00    -0.032 A 
ATOM     15  C   UNL     1      13.399   8.541  19.610  0.00  0.00    +0.023 A 
ATOM     16  C   UNL     1      12.193   8.294  21.689  0.00  0.00    +0.005 A 
ATOM     18  C   UNL     1      12.190   8.628  18.920  0.00  0.00    +0.052 A 
ATOM     19  C   UNL     1      10.984   8.380  20.998  0.00  0.00    +0.002 A 
ATOM     20  C   UNL     1      10.982   8.547  19.615  0.00  0.00    +0.019 A 
BRANCH  18  25
ATOM      6  N   UNL     1      12.183   8.933  16.349  0.00  0.00    -0.191 NA
ATOM     25  C   UNL     1      12.186   8.797  17.501  0.00  0.00    +0.099 C 
ENDBRANCH  18  25
ENDBRANCH  11  13
ENDBRANCH   3  11
TORSDOF 6
ENDMDL
MODEL 2
REMARK VINA RESULT:      -6.7      1.961      2.798
REMARK  Name = 51137452
REMARK  7 active torsions:
REMARK  status: ('A' for Active; 'I' for Inactive)
REMARK    1  A    between atoms: O_2  and  C_21
REMARK    2  A    between atoms: O_2  and  C_27
REMARK    3  A    between atoms: N_3  and  C_11
REMARK    4  A    between atoms: C_7  and  C_12
REMARK    5  A    between atoms: C_11  and  C_13
REMARK    6  A    between atoms: C_14  and  C_17
REMARK    7  A    between atoms: C_18  and  C_25
REMARK                            x       y       z     vdW  Elec       q    Type
REMARK                         _______ _______ _______ _____ _____    ______ ____
ROOT
ATOM      3  N   UNL     1      17.161   7.857  20.748  0.00  0.00    -0.297 NA
ATOM      7  C   UNL     1      19.246   6.784  20.752  0.00  0.00    +0.092 C 
ATOM      8  C   UNL     1      18.197   5.865  20.103  0.00  0.00    +0.029 C 
ATOM      9  C   UNL     1      18.426   7.855  21.485  0.00  0.00    +0.097 C 
ATOM     10  C   UNL     1      16.853   6.445  20.525  0.00  0.00    +0.085 C 
ENDROOT
BRANCH   7  12
ATOM      1  O   UNL     1      21.022   5.130  21.078  0.00  0.00    -0.420 OA
ATOM      4  N   UNL     1      20.464   6.246  22.934  0.00  0.00    -0.112 NA
ATOM      5  N   UNL     1      21.468   5.355  23.259  0.00  0.00    -0.107 NA
ATOM     12  C   UNL     1      20.237   6.081  21.652  0.00  0.00    +0.222 A 
ATOM     14  C   UNL     1      21.763   4.724  22.145  0.00  0.00    +0.252 A 
BRANCH  14  17
ATOM     17  C   UNL     1      22.726   3.694  21.885  0.00  0.00    +0.080 A 
ATOM     21  C   UNL     1      22.920   2.650  22.790  0.00  0.00    +0.132 A 
ATOM     22  C   UNL     1      23.474   3.745  20.709  0.00  0.00    +0.017 A 
ATOM     23  C   UNL     1      23.860   1.657  22.518  0.00  0.00    +0.046 A 
ATOM     24  C   UNL     1      24.415   2.752  20.437  0.00  0.00    +0.001 A 
ATOM     26  C   UNL     1      24.609   1.708  21.342  0.00  0.00    +0.004 A 
BRANCH  21   2
ATOM      2  O   UNL     1      22.203   2.575  23.948  0.00  0.00    -0.494 OA
ATOM     27  C   UNL     1      22.939   2.629  25.168  0.00  0.00    +0.277 C 
ENDBRANCH  21   2
ENDBRANCH  14  17
ENDBRANCH   7  12
BRANCH   3  11
ATOM     11  C   UNL     1      16.101   8.549  21.465  0.00  0.00    +0.119 C 
BRANCH  11  13
ATOM     13  C   UNL     1      14.792   8.491  20.726  0.00  0.00    -0.032 A 
ATOM     15  C   UNL     1      13.649   8.009  21.365  0.00  0.00    +0.023 A 
ATOM     16  C   UNL     1      14.720   8.919  19.400  0.00  0.00    +0.005 A 
ATOM     18  C   UNL     1      12.436   7.957  20.679  0.00  0.00    +0.052 A 
ATOM     19  C   UNL     1      13.507   8.867  18.714  0.00  0.00    +0.002 A 
ATOM     20  C   UNL     1      12.365   8.386  19.353  0.00  0.00    +0.019 A 
BRANCH  18  25
ATOM      6  N   UNL     1      10.312   7.066  21.862  0.00  0.00    -0.191 NA
ATOM     25  C   UNL     1      11.264   7.466  21.333  0.00  0.00    +0.099 C 
ENDBRANCH  18  25
ENDBRANCH  11  13
ENDBRANCH   3  11
TORSDOF 6
ENDMDL
MODEL 3
REMARK VINA RESULT:      -6.6     31.816     34.639
REMARK  Name = 51137452
REMARK  7 active torsions:
REMARK  status: ('A' for Active; 'I' for Inactive)
REMARK    1  A    between atoms: O_2  and  C_21
REMARK    2  A    between atoms: O_2  and  C_27
REMARK    3  A    between atoms: N_3  and  C_11
REMARK    4  A    between atoms: C_7  and  C_12
REMARK    5  A    between atoms: C_11  and  C_13
REMARK    6  A    between atoms: C_14  and  C_17
REMARK    7  A    between atoms: C_18  and  C_25
REMARK                            x       y       z     vdW  Elec       q    Type
REMARK                         _______ _______ _______ _____ _____    ______ ____
ROOT
ATOM      3  N   UNL     1     -16.385   4.101  23.819  0.00  0.00    -0.297 NA
ATOM      7  C   UNL     1     -16.417   2.123  25.079  0.00  0.00    +0.092 C 
ATOM      8  C   UNL     1     -17.572   2.104  24.064  0.00  0.00    +0.029 C 
ATOM      9  C   UNL     1     -15.962   3.588  25.124  0.00  0.00    +0.097 C 
ATOM     10  C   UNL     1     -17.725   3.552  23.616  0.00  0.00    +0.085 C 
ENDROOT
BRANCH   7  12
ATOM      1  O   UNL     1     -16.037   2.036  27.497  0.00  0.00    -0.420 OA
ATOM      4  N   UNL     1     -17.671   0.687  26.781  0.00  0.00    -0.112 NA
ATOM      5  N   UNL     1     -17.566   0.539  28.151  0.00  0.00    -0.107 NA
ATOM     12  C   UNL     1     -16.761   1.570  26.443  0.00  0.00    +0.222 A 
ATOM     14  C   UNL     1     -16.599   1.345  28.526  0.00  0.00    +0.252 A 
BRANCH  14  17
ATOM     17  C   UNL     1     -16.056   1.606  29.827  0.00  0.00    +0.080 A 
ATOM     21  C   UNL     1     -15.241   0.669  30.463  0.00  0.00    +0.132 A 
ATOM     22  C   UNL     1     -16.351   2.814  30.457  0.00  0.00    +0.017 A 
ATOM     23  C   UNL     1     -14.720   0.941  31.728  0.00  0.00    +0.046 A 
ATOM     24  C   UNL     1     -15.831   3.088  31.722  0.00  0.00    +0.001 A 
ATOM     26  C   UNL     1     -15.015   2.151  32.358  0.00  0.00    +0.004 A 
BRANCH  21   2
ATOM      2  O   UNL     1     -14.936  -0.521  29.870  0.00  0.00    -0.494 OA
ATOM     27  C   UNL     1     -13.565  -0.750  29.549  0.00  0.00    +0.277 C 
ENDBRANCH  21   2
ENDBRANCH  14  17
ENDBRANCH   7  12
BRANCH   3  11
ATOM     11  C   UNL     1     -16.366   5.554  23.761  0.00  0.00    +0.119 C 
BRANCH  11  13
ATOM     13  C   UNL     1     -15.213   6.068  22.941  0.00  0.00    -0.032 A 
ATOM     15  C   UNL     1     -15.065   7.438  22.725  0.00  0.00    +0.023 A 
ATOM     16  C   UNL     1     -14.292   5.173  22.396  0.00  0.00    +0.005 A 
ATOM     18  C   UNL     1     -13.995   7.913  21.966  0.00  0.00    +0.052 A 
ATOM     19  C   UNL     1     -13.223   5.649  21.637  0.00  0.00    +0.002 A 
ATOM     20  C   UNL     1     -13.074   7.018  21.422  0.00  0.00    +0.019 A 
BRANCH  18  25
ATOM      6  N   UNL     1     -13.715  10.457  21.568  0.00  0.00    -0.191 NA
ATOM     25  C   UNL     1     -13.841   9.317  21.746  0.00  0.00    +0.099 C 
ENDBRANCH  18  25
ENDBRANCH  11  13
ENDBRANCH   3  11
TORSDOF 6
ENDMDL
MODEL 4
REMARK VINA RESULT:      -6.6     28.245     30.475
REMARK  Name = 51137452
REMARK  7 active torsions:
REMARK  status: ('A' for Active; 'I' for Inactive)
REMARK    1  A    between atoms: O_2  and  C_21
REMARK    2  A    between atoms: O_2  and  C_27
REMARK    3  A    between atoms: N_3  and  C_11
REMARK    4  A    between atoms: C_7  and  C_12
REMARK    5  A    between atoms: C_11  and  C_13
REMARK    6  A    between atoms: C_14  and  C_17
REMARK    7  A    between atoms: C_18  and  C_25
REMARK                            x       y       z     vdW  Elec       q    Type
REMARK                         _______ _______ _______ _____ _____    ______ ____
ROOT
ATOM      3  N   UNL     1      -3.131 -11.445  14.871  0.00  0.00    -0.297 NA
ATOM      7  C   UNL     1      -3.633 -11.509  12.581  0.00  0.00    +0.092 C 
ATOM      8  C   UNL     1      -2.344 -12.306  12.847  0.00  0.00    +0.029 C 
ATOM      9  C   UNL     1      -3.842 -10.672  13.850  0.00  0.00    +0.097 C 
ATOM     10  C   UNL     1      -1.884 -11.859  14.229  0.00  0.00    +0.085 C 
ENDROOT
BRANCH   7  12
ATOM      1  O   UNL     1      -4.508 -11.004  10.350  0.00  0.00    -0.420 OA
ATOM      4  N   UNL     1      -2.849  -9.655  11.005  0.00  0.00    -0.112 NA
ATOM      5  N   UNL     1      -3.245  -9.261   9.741  0.00  0.00    -0.107 NA
ATOM     12  C   UNL     1      -3.613 -10.674  11.321  0.00  0.00    +0.222 A 
ATOM     14  C   UNL     1      -4.216 -10.077   9.398  0.00  0.00    +0.252 A 
BRANCH  14  17
ATOM     17  C   UNL     1      -5.000 -10.139   8.200  0.00  0.00    +0.080 A 
ATOM     21  C   UNL     1      -6.106  -9.308   8.024  0.00  0.00    +0.132 A 
ATOM     22  C   UNL     1      -4.643 -11.045   7.201  0.00  0.00    +0.017 A 
ATOM     23  C   UNL     1      -6.855  -9.383   6.849  0.00  0.00    +0.046 A 
ATOM     24  C   UNL     1      -5.392 -11.121   6.027  0.00  0.00    +0.001 A 
ATOM     26  C   UNL     1      -6.498 -10.290   5.851  0.00  0.00    +0.004 A 
BRANCH  21   2
ATOM      2  O   UNL     1      -6.477  -8.413   8.983  0.00  0.00    -0.494 OA
ATOM     27  C   UNL     1      -7.835  -8.457   9.417  0.00  0.00    +0.277 C 
ENDBRANCH  21   2
ENDBRANCH  14  17
ENDBRANCH   7  12
BRANCH   3  11
ATOM     11  C   UNL     1      -2.902 -10.680  16.087  0.00  0.00    +0.119 C 
BRANCH  11  13
ATOM     13  C   UNL     1      -4.053 -10.798  17.050  0.00  0.00    -0.032 A 
ATOM     15  C   UNL     1      -5.241 -10.107  16.806  0.00  0.00    +0.023 A 
ATOM     16  C   UNL     1      -3.933 -11.599  18.186  0.00  0.00    +0.005 A 
ATOM     18  C   UNL     1      -6.307 -10.218  17.699  0.00  0.00    +0.052 A 
ATOM     19  C   UNL     1      -5.000 -11.709  19.077  0.00  0.00    +0.002 A 
ATOM     20  C   UNL     1      -6.186 -11.019  18.835  0.00  0.00    +0.019 A 
BRANCH  18  25
ATOM      6  N   UNL     1      -8.513  -8.939  17.247  0.00  0.00    -0.191 NA
ATOM     25  C   UNL     1      -7.525  -9.512  17.450  0.00  0.00    +0.099 C 
ENDBRANCH  18  25
ENDBRANCH  11  13
ENDBRANCH   3  11
TORSDOF 6
ENDMDL
MODEL 5
REMARK VINA RESULT:      -6.6     27.551     30.561
REMARK  Name = 51137452
REMARK  7 active torsions:
REMARK  status: ('A' for Active; 'I' for Inactive)
REMARK    1  A    between atoms: O_2  and  C_21
REMARK    2  A    between atoms: O_2  and  C_27
REMARK    3  A    between atoms: N_3  and  C_11
REMARK    4  A    between atoms: C_7  and  C_12
REMARK    5  A    between atoms: C_11  and  C_13
REMARK    6  A    between atoms: C_14  and  C_17
REMARK    7  A    between atoms: C_18  and  C_25
REMARK                            x       y       z     vdW  Elec       q    Type
REMARK                         _______ _______ _______ _____ _____    ______ ____
ROOT
ATOM      3  N   UNL     1      -2.308 -11.052  13.841  0.00  0.00    -0.297 NA
ATOM      7  C   UNL     1      -3.249 -10.284  15.848  0.00  0.00    +0.092 C 
ATOM      8  C   UNL     1      -1.817 -10.780  16.109  0.00  0.00    +0.029 C 
ATOM      9  C   UNL     1      -3.615 -10.858  14.472  0.00  0.00    +0.097 C 
ATOM     10  C   UNL     1      -1.465 -11.624  14.890  0.00  0.00    +0.085 C 
ENDROOT
BRANCH   7  12
ATOM      1  O   UNL     1      -5.508 -10.141  16.782  0.00  0.00    -0.420 OA
ATOM      4  N   UNL     1      -4.096 -11.378  17.997  0.00  0.00    -0.112 NA
ATOM      5  N   UNL     1      -5.322 -11.383  18.634  0.00  0.00    -0.107 NA
ATOM     12  C   UNL     1      -4.251 -10.642  16.922  0.00  0.00    +0.222 A 
ATOM     14  C   UNL     1      -6.116 -10.648  17.889  0.00  0.00    +0.252 A 
BRANCH  14  17
ATOM     17  C   UNL     1      -7.497 -10.304  18.059  0.00  0.00    +0.080 A 
ATOM     21  C   UNL     1      -8.261 -10.888  19.071  0.00  0.00    +0.132 A 
ATOM     22  C   UNL     1      -8.077  -9.373  17.198  0.00  0.00    +0.017 A 
ATOM     23  C   UNL     1      -9.603 -10.539  19.221  0.00  0.00    +0.046 A 
ATOM     24  C   UNL     1      -9.419  -9.024  17.347  0.00  0.00    +0.001 A 
ATOM     26  C   UNL     1     -10.183  -9.608  18.359  0.00  0.00    +0.004 A 
BRANCH  21   2
ATOM      2  O   UNL     1      -7.720 -11.800  19.928  0.00  0.00    -0.494 OA
ATOM     27  C   UNL     1      -8.301 -13.103  19.934  0.00  0.00    +0.277 C 
ENDBRANCH  21   2
ENDBRANCH  14  17
ENDBRANCH   7  12
BRANCH   3  11
ATOM     11  C   UNL     1      -2.381 -11.901  12.663  0.00  0.00    +0.119 C 
BRANCH  11  13
ATOM     13  C   UNL     1      -2.962 -11.173  11.480  0.00  0.00    -0.032 A 
ATOM     15  C   UNL     1      -3.894 -11.807  10.658  0.00  0.00    +0.023 A 
ATOM     16  C   UNL     1      -2.568  -9.862  11.207  0.00  0.00    +0.005 A 
ATOM     18  C   UNL     1      -4.432 -11.130   9.564  0.00  0.00    +0.052 A 
ATOM     19  C   UNL     1      -3.108  -9.186  10.113  0.00  0.00    +0.002 A 
ATOM     20  C   UNL     1      -4.039  -9.819   9.291  0.00  0.00    +0.019 A 
BRANCH  18  25
ATOM      6  N   UNL     1      -6.163 -12.303   8.036  0.00  0.00    -0.191 NA
ATOM     25  C   UNL     1      -5.388 -11.778   8.721  0.00  0.00    +0.099 C 
ENDBRANCH  18  25
ENDBRANCH  11  13
ENDBRANCH   3  11
TORSDOF 6
ENDMDL
MODEL 6
REMARK VINA RESULT:      -6.5     28.676     33.043
REMARK  Name = 51137452
REMARK  7 active torsions:
REMARK  status: ('A' for Active; 'I' for Inactive)
REMARK    1  A    between atoms: O_2  and  C_21
REMARK    2  A    between atoms: O_2  and  C_27
REMARK    3  A    between atoms: N_3  and  C_11
REMARK    4  A    between atoms: C_7  and  C_12
REMARK    5  A    between atoms: C_11  and  C_13
REMARK    6  A    between atoms: C_14  and  C_17
REMARK    7  A    between atoms: C_18  and  C_25
REMARK                            x       y       z     vdW  Elec       q    Type
REMARK                         _______ _______ _______ _____ _____    ______ ____
ROOT
ATOM      3  N   UNL     1      -9.312  -9.073  16.784  0.00  0.00    -0.297 NA
ATOM      7  C   UNL     1     -10.982  -7.428  16.714  0.00  0.00    +0.092 C 
ATOM      8  C   UNL     1     -11.529  -8.687  17.410  0.00  0.00    +0.029 C 
ATOM      9  C   UNL     1      -9.707  -7.900  16.002  0.00  0.00    +0.097 C 
ATOM     10  C   UNL     1     -10.558  -9.798  17.032  0.00  0.00    +0.085 C 
ENDROOT
BRANCH   7  12
ATOM      1  O   UNL     1     -11.472  -6.323  14.585  0.00  0.00    -0.420 OA
ATOM      4  N   UNL     1     -13.231  -6.476  15.959  0.00  0.00    -0.112 NA
ATOM      5  N   UNL     1     -13.645  -5.838  14.806  0.00  0.00    -0.107 NA
ATOM     12  C   UNL     1     -11.957  -6.741  15.786  0.00  0.00    +0.222 A 
ATOM     14  C   UNL     1     -12.586  -5.770  14.032  0.00  0.00    +0.252 A 
BRANCH  14  17
ATOM     17  C   UNL     1     -12.426  -5.214  12.721  0.00  0.00    +0.080 A 
ATOM     21  C   UNL     1     -12.381  -6.037  11.595  0.00  0.00    +0.132 A 
ATOM     22  C   UNL     1     -12.314  -3.831  12.578  0.00  0.00    +0.017 A 
ATOM     23  C   UNL     1     -12.226  -5.477  10.327  0.00  0.00    +0.046 A 
ATOM     24  C   UNL     1     -12.159  -3.270  11.310  0.00  0.00    +0.001 A 
ATOM     26  C   UNL     1     -12.114  -4.093  10.184  0.00  0.00    +0.004 A 
BRANCH  21   2
ATOM      2  O   UNL     1     -12.488  -7.392  11.705  0.00  0.00    -0.494 OA
ATOM     27  C   UNL     1     -12.446  -8.144  10.493  0.00  0.00    +0.277 C 
ENDBRANCH  21   2
ENDBRANCH  14  17
ENDBRANCH   7  12
BRANCH   3  11
ATOM     11  C   UNL     1      -8.322  -9.890  16.099  0.00  0.00    +0.119 C 
BRANCH  11  13
ATOM     13  C   UNL     1      -7.140 -10.196  16.980  0.00  0.00    -0.032 A 
ATOM     15  C   UNL     1      -5.868 -10.327  16.422  0.00  0.00    +0.023 A 
ATOM     16  C   UNL     1      -7.317 -10.349  18.356  0.00  0.00    +0.005 A 
ATOM     18  C   UNL     1      -4.774 -10.610  17.240  0.00  0.00    +0.052 A 
ATOM     19  C   UNL     1      -6.223 -10.631  19.172  0.00  0.00    +0.002 A 
ATOM     20  C   UNL     1      -4.952 -10.762  18.615  0.00  0.00    +0.019 A 
BRANCH  18  25
ATOM      6  N   UNL     1      -2.412 -10.851  16.206  0.00  0.00    -0.191 NA
ATOM     25  C   UNL     1      -3.470 -10.743  16.670  0.00  0.00    +0.099 C 
ENDBRANCH  18  25
ENDBRANCH  11  13
ENDBRANCH   3  11
TORSDOF 6
ENDMDL
MODEL 7
REMARK VINA RESULT:      -6.5     27.206     31.422
REMARK  Name = 51137452
REMARK  7 active torsions:
REMARK  status: ('A' for Active; 'I' for Inactive)
REMARK    1  A    between atoms: O_2  and  C_21
REMARK    2  A    between atoms: O_2  and  C_27
REMARK    3  A    between atoms: N_3  and  C_11
REMARK    4  A    between atoms: C_7  and  C_12
REMARK    5  A    between atoms: C_11  and  C_13
REMARK    6  A    between atoms: C_14  and  C_17
REMARK    7  A    between atoms: C_18  and  C_25
REMARK                            x       y       z     vdW  Elec       q    Type
REMARK                         _______ _______ _______ _____ _____    ______ ____
ROOT
ATOM      3  N   UNL     1      -4.845 -11.308  17.507  0.00  0.00    -0.297 NA
ATOM      7  C   UNL     1      -6.693 -10.051  18.219  0.00  0.00    +0.092 C 
ATOM      8  C   UNL     1      -6.325 -11.083  19.300  0.00  0.00    +0.029 C 
ATOM      9  C   UNL     1      -5.958 -10.529  16.959  0.00  0.00    +0.097 C 
ATOM     10  C   UNL     1      -5.433 -12.094  18.590  0.00  0.00    +0.085 C 
ENDROOT
BRANCH   7  12
ATOM      1  O   UNL     1      -8.550  -8.915  17.099  0.00  0.00    -0.420 OA
ATOM      4  N   UNL     1      -9.189 -10.483  18.559  0.00  0.00    -0.112 NA
ATOM      5  N   UNL     1     -10.326  -9.928  18.006  0.00  0.00    -0.107 NA
ATOM     12  C   UNL     1      -8.176  -9.862  18.001  0.00  0.00    +0.222 A 
ATOM     14  C   UNL     1      -9.906  -9.017  17.158  0.00  0.00    +0.252 A 
BRANCH  14  17
ATOM     17  C   UNL     1     -10.640  -8.130  16.304  0.00  0.00    +0.080 A 
ATOM     21  C   UNL     1     -11.052  -8.538  15.034  0.00  0.00    +0.132 A 
ATOM     22  C   UNL     1     -10.942  -6.846  16.755  0.00  0.00    +0.017 A 
ATOM     23  C   UNL     1     -11.766  -7.661  14.218  0.00  0.00    +0.046 A 
ATOM     24  C   UNL     1     -11.657  -5.969  15.940  0.00  0.00    +0.001 A 
ATOM     26  C   UNL     1     -12.069  -6.376  14.670  0.00  0.00    +0.004 A 
BRANCH  21   2
ATOM      2  O   UNL     1     -10.770  -9.788  14.567  0.00  0.00    -0.494 OA
ATOM     27  C   UNL     1      -9.798  -9.885  13.528  0.00  0.00    +0.277 C 
ENDBRANCH  21   2
ENDBRANCH  14  17
ENDBRANCH   7  12
BRANCH   3  11
ATOM     11  C   UNL     1      -4.204 -12.142  16.501  0.00  0.00    +0.119 C 
BRANCH  11  13
ATOM     13  C   UNL     1      -3.200 -11.369  15.688  0.00  0.00    -0.032 A 
ATOM     15  C   UNL     1      -3.359 -11.256  14.307  0.00  0.00    +0.023 A 
ATOM     16  C   UNL     1      -2.111 -10.765  16.317  0.00  0.00    +0.005 A 
ATOM     18  C   UNL     1      -2.428 -10.539  13.555  0.00  0.00    +0.052 A 
ATOM     19  C   UNL     1      -1.181 -10.048  15.564  0.00  0.00    +0.002 A 
ATOM     20  C   UNL     1      -1.339  -9.934  14.184  0.00  0.00    +0.019 A 
BRANCH  18  25
ATOM      6  N   UNL     1      -2.721 -10.326  10.991  0.00  0.00    -0.191 NA
ATOM     25  C   UNL     1      -2.590 -10.420  12.140  0.00  0.00    +0.099 C 
ENDBRANCH  18  25
ENDBRANCH  11  13
ENDBRANCH   3  11
TORSDOF 6
ENDMDL
MODEL 8
REMARK VINA RESULT:      -6.4     29.669     32.117
REMARK  Name = 51137452
REMARK  7 active torsions:
REMARK  status: ('A' for Active; 'I' for Inactive)
REMARK    1  A    between atoms: O_2  and  C_21
REMARK    2  A    between atoms: O_2  and  C_27
REMARK    3  A    between atoms: N_3  and  C_11
REMARK    4  A    between atoms: C_7  and  C_12
REMARK    5  A    between atoms: C_11  and  C_13
REMARK    6  A    between atoms: C_14  and  C_17
REMARK    7  A    between atoms: C_18  and  C_25
REMARK                            x       y       z     vdW  Elec       q    Type
REMARK                         _______ _______ _______ _____ _____    ______ ____
ROOT
ATOM      3  N   UNL     1     -12.105  -6.572  14.243  0.00  0.00    -0.297 NA
ATOM      7  C   UNL     1     -10.416  -8.010  15.003  0.00  0.00    +0.092 C 
ATOM      8  C   UNL     1     -11.511  -8.830  14.300  0.00  0.00    +0.029 C 
ATOM      9  C   UNL     1     -11.062  -6.644  15.269  0.00  0.00    +0.097 C 
ATOM     10  C   UNL     1     -12.716  -7.900  14.233  0.00  0.00    +0.085 C 
ENDROOT
BRANCH   7  12
ATOM      1  O   UNL     1      -8.552  -9.057  16.197  0.00  0.00    -0.420 OA
ATOM      4  N   UNL     1     -10.423  -8.874  17.408  0.00  0.00    -0.112 NA
ATOM      5  N   UNL     1      -9.462  -9.476  18.197  0.00  0.00    -0.107 NA
ATOM     12  C   UNL     1      -9.848  -8.647  16.250  0.00  0.00    +0.222 A 
ATOM     14  C   UNL     1      -8.386  -9.563  17.450  0.00  0.00    +0.252 A 
BRANCH  14  17
ATOM     17  C   UNL     1      -7.089 -10.098  17.743  0.00  0.00    +0.080 A 
ATOM     21  C   UNL     1      -6.872 -10.862  18.891  0.00  0.00    +0.132 A 
ATOM     22  C   UNL     1      -6.036  -9.847  16.864  0.00  0.00    +0.017 A 
ATOM     23  C   UNL     1      -5.603 -11.375  19.158  0.00  0.00    +0.046 A 
ATOM     24  C   UNL     1      -4.766 -10.360  17.131  0.00  0.00    +0.001 A 
ATOM     26  C   UNL     1      -4.550 -11.124  18.278  0.00  0.00    +0.004 A 
BRANCH  21   2
ATOM      2  O   UNL     1      -7.884 -11.123  19.767  0.00  0.00    -0.494 OA
ATOM     27  C   UNL     1      -8.334 -12.474  19.849  0.00  0.00    +0.277 C 
ENDBRANCH  21   2
ENDBRANCH  14  17
ENDBRANCH   7  12
BRANCH   3  11
ATOM     11  C   UNL     1     -13.072  -5.518  14.507  0.00  0.00    +0.119 C 
BRANCH  11  13
ATOM     13  C   UNL     1     -13.346  -4.686  13.283  0.00  0.00    -0.032 A 
ATOM     15  C   UNL     1     -12.377  -4.573  12.285  0.00  0.00    +0.023 A 
ATOM     16  C   UNL     1     -14.568  -4.027  13.146  0.00  0.00    +0.005 A 
ATOM     18  C   UNL     1     -12.632  -3.802  11.151  0.00  0.00    +0.052 A 
ATOM     19  C   UNL     1     -14.822  -3.258  12.011  0.00  0.00    +0.002 A 
ATOM     20  C   UNL     1     -13.855  -3.145  11.014  0.00  0.00    +0.019 A 
BRANCH  18  25
ATOM      6  N   UNL     1     -10.838  -3.595   9.294  0.00  0.00    -0.191 NA
ATOM     25  C   UNL     1     -11.642  -3.687  10.126  0.00  0.00    +0.099 C 
ENDBRANCH  18  25
ENDBRANCH  11  13
ENDBRANCH   3  11
TORSDOF 6
ENDMDL
MODEL 9
REMARK VINA RESULT:      -6.4     28.734     31.117
REMARK  Name = 51137452
REMARK  7 active torsions:
REMARK  status: ('A' for Active; 'I' for Inactive)
REMARK    1  A    between atoms: O_2  and  C_21
REMARK    2  A    between atoms: O_2  and  C_27
REMARK    3  A    between atoms: N_3  and  C_11
REMARK    4  A    between atoms: C_7  and  C_12
REMARK    5  A    between atoms: C_11  and  C_13
REMARK    6  A    between atoms: C_14  and  C_17
REMARK    7  A    between atoms: C_18  and  C_25
REMARK                            x       y       z     vdW  Elec       q    Type
REMARK                         _______ _______ _______ _____ _____    ______ ____
ROOT
ATOM      3  N   UNL     1      -4.219 -10.823  14.597  0.00  0.00    -0.297 NA
ATOM      7  C   UNL     1      -4.792 -10.144  16.768  0.00  0.00    +0.092 C 
ATOM      8  C   UNL     1      -3.526 -11.017  16.819  0.00  0.00    +0.029 C 
ATOM      9  C   UNL     1      -5.386 -10.402  15.376  0.00  0.00    +0.097 C 
ATOM     10  C   UNL     1      -3.489 -11.735  15.476  0.00  0.00    +0.085 C 
ENDROOT
BRANCH   7  12
ATOM      1  O   UNL     1      -7.099 -10.361  17.557  0.00  0.00    -0.420 OA
ATOM      4  N   UNL     1      -5.559 -10.636  19.155  0.00  0.00    -0.112 NA
ATOM      5  N   UNL     1      -6.805 -10.784  19.735  0.00  0.00    -0.107 NA
ATOM     12  C   UNL     1      -5.779 -10.391  17.885  0.00  0.00    +0.222 A 
ATOM     14  C   UNL     1      -7.675 -10.615  18.765  0.00  0.00    +0.252 A 
BRANCH  14  17
ATOM     17  C   UNL     1      -9.107 -10.656  18.781  0.00  0.00    +0.080 A 
ATOM     21  C   UNL     1      -9.859  -9.661  18.156  0.00  0.00    +0.132 A 
ATOM     22  C   UNL     1      -9.749 -11.709  19.432  0.00  0.00    +0.017 A 
ATOM     23  C   UNL     1     -11.253  -9.720  18.182  0.00  0.00    +0.046 A 
ATOM     24  C   UNL     1     -11.143 -11.769  19.458  0.00  0.00    +0.001 A 
ATOM     26  C   UNL     1     -11.895 -10.774  18.833  0.00  0.00    +0.004 A 
BRANCH  21   2
ATOM      2  O   UNL     1      -9.258  -8.620  17.512  0.00  0.00    -0.494 OA
ATOM     27  C   UNL     1     -10.115  -7.656  16.903  0.00  0.00    +0.277 C 
ENDBRANCH  21   2
ENDBRANCH  14  17
ENDBRANCH   7  12
BRANCH   3  11
ATOM     11  C   UNL     1      -4.590 -11.446  13.335  0.00  0.00    +0.119 C 
BRANCH  11  13
ATOM     13  C   UNL     1      -4.246 -10.574  12.157  0.00  0.00    -0.032 A 
ATOM     15  C   UNL     1      -5.260  -9.947  11.433  0.00  0.00    +0.023 A 
ATOM     16  C   UNL     1      -2.912 -10.395  11.788  0.00  0.00    +0.005 A 
ATOM     18  C   UNL     1      -4.940  -9.139  10.342  0.00  0.00    +0.052 A 
ATOM     19  C   UNL     1      -2.593  -9.587  10.697  0.00  0.00    +0.002 A 
ATOM     20  C   UNL     1      -3.606  -8.959   9.974  0.00  0.00    +0.019 A 
BRANCH  18  25
ATOM      6  N   UNL     1      -6.821  -7.970   8.999  0.00  0.00    -0.191 NA
ATOM     25  C   UNL     1      -5.977  -8.494   9.600  0.00  0.00    +0.099 C 
ENDBRANCH  18  25
ENDBRANCH  11  13
ENDBRANCH   3  11
TORSDOF 6
ENDMDL
MODEL 10
REMARK VINA RESULT:      -6.2     29.210     33.313
REMARK  Name = 51137452
REMARK  7 active torsions:
REMARK  status: ('A' for Active; 'I' for Inactive)
REMARK    1  A    between atoms: O_2  and  C_21
REMARK    2  A    between atoms: O_2  and  C_27
REMARK    3  A    between atoms: N_3  and  C_11
REMARK    4  A    between atoms: C_7  and  C_12
REMARK    5  A    between atoms: C_11  and  C_13
REMARK    6  A    between atoms: C_14  and  C_17
REMARK    7  A    between atoms: C_18  and  C_25
REMARK                            x       y       z     vdW  Elec       q    Type
REMARK                         _______ _______ _______ _____ _____    ______ ____
ROOT
ATOM      3  N   UNL     1      -8.890  -9.018  16.771  0.00  0.00    -0.297 NA
ATOM      7  C   UNL     1     -10.210  -7.454  15.626  0.00  0.00    +0.092 C 
ATOM      8  C   UNL     1     -10.520  -7.384  17.131  0.00  0.00    +0.029 C 
ATOM      9  C   UNL     1      -9.462  -8.782  15.444  0.00  0.00    +0.097 C 
ATOM     10  C   UNL     1      -9.960  -8.678  17.708  0.00  0.00    +0.085 C 
ENDROOT
BRANCH   7  12
ATOM      1  O   UNL     1     -11.660  -6.100  14.192  0.00  0.00    -0.420 OA
ATOM      4  N   UNL     1     -12.287  -8.240  14.360  0.00  0.00    -0.112 NA
ATOM      5  N   UNL     1     -13.184  -7.598  13.529  0.00  0.00    -0.107 NA
ATOM     12  C   UNL     1     -11.415  -7.328  14.723  0.00  0.00    +0.222 A 
ATOM     14  C   UNL     1     -12.780  -6.350  13.459  0.00  0.00    +0.252 A 
BRANCH  14  17
ATOM     17  C   UNL     1     -13.325  -5.234  12.744  0.00  0.00    +0.080 A 
ATOM     21  C   UNL     1     -12.858  -4.901  11.472  0.00  0.00    +0.132 A 
ATOM     22  C   UNL     1     -14.335  -4.476  13.335  0.00  0.00    +0.017 A 
ATOM     23  C   UNL     1     -13.402  -3.812  10.792  0.00  0.00    +0.046 A 
ATOM     24  C   UNL     1     -14.880  -3.386  12.656  0.00  0.00    +0.001 A 
ATOM     26  C   UNL     1     -14.413  -3.054  11.384  0.00  0.00    +0.004 A 
BRANCH  21   2
ATOM      2  O   UNL     1     -11.871  -5.625  10.870  0.00  0.00    -0.494 OA
ATOM     27  C   UNL     1     -12.235  -6.374   9.712  0.00  0.00    +0.277 C 
ENDBRANCH  21   2
ENDBRANCH  14  17
ENDBRANCH   7  12
BRANCH   3  11
ATOM     11  C   UNL     1      -8.420 -10.385  16.939  0.00  0.00    +0.119 C 
BRANCH  11  13
ATOM     13  C   UNL     1      -6.917 -10.470  16.907  0.00  0.00    -0.032 A 
ATOM     15  C   UNL     1      -6.230 -11.080  17.956  0.00  0.00    +0.023 A 
ATOM     16  C   UNL     1      -6.212  -9.938  15.827  0.00  0.00    +0.005 A 
ATOM     18  C   UNL     1      -4.837 -11.158  17.925  0.00  0.00    +0.052 A 
ATOM     19  C   UNL     1      -4.820 -10.017  15.796  0.00  0.00    +0.002 A 
ATOM     20  C   UNL     1      -4.132 -10.627  16.844  0.00  0.00    +0.019 A 
BRANCH  18  25
ATOM      6  N   UNL     1      -3.557 -12.293  19.869  0.00  0.00    -0.191 NA
ATOM     25  C   UNL     1      -4.132 -11.784  18.998  0.00  0.00    +0.099 C 
ENDBRANCH  18  25
ENDBRANCH  11  13
ENDBRANCH   3  11
TORSDOF 6
ENDMDL
