MODEL 1
REMARK VINA RESULT:      -7.9      0.000      0.000
REMARK  Name = 56774833
REMARK  7 active torsions:
REMARK  status: ('A' for Active; 'I' for Inactive)
REMARK    1  A    between atoms: O_2  and  C_14
REMARK    2  A    between atoms: N_5  and  C_17
REMARK    3  A    between atoms: N_6  and  C_20
REMARK    4  A    between atoms: C_9  and  C_13
REMARK    5  A    between atoms: C_12  and  C_14
REMARK    6  A    between atoms: C_14  and  C_16
REMARK    7  A    between atoms: C_17  and  C_25
REMARK                            x       y       z     vdW  Elec       q    Type
REMARK                         _______ _______ _______ _____ _____    ______ ____
ROOT
ATOM     14  C   UNL     1      14.443   6.793  20.005  0.00  0.00    +0.167 C 
ENDROOT
BRANCH  14  12
ATOM      1  O   UNL     1      13.806   8.493  17.700  0.00  0.00    -0.369 OA
ATOM      4  O   UNL     1      10.512   8.445  19.178  0.00  0.00    -0.273 OA
ATOM      5  N   UNL     1      12.591   8.408  20.224  0.00  0.00    -0.284 N 
ATOM     12  C   UNL     1      14.044   8.270  20.068  0.00  0.00    +0.135 C 
ATOM     15  C   UNL     1      14.507   9.017  18.821  0.00  0.00    +0.185 C 
ATOM     18  C   UNL     1      11.742   8.500  19.123  0.00  0.00    +0.242 C 
ATOM     19  C   UNL     1      12.428   8.772  17.788  0.00  0.00    +0.255 C 
BRANCH   5  17
ATOM     17  C   UNL     1      12.042   8.259  21.566  0.00  0.00    +0.182 C 
BRANCH  17  25
ATOM      7  N   UNL     1      11.183   9.671  23.445  0.00  0.00    -0.347 N 
ATOM      8  N   UNL     1      11.790  10.765  21.611  0.00  0.00    -0.239 NA
ATOM     25  C   UNL     1      11.683   9.583  22.176  0.00  0.00    +0.125 A 
ATOM     26  C   UNL     1      10.958  10.993  23.706  0.00  0.00    +0.104 A 
ATOM     27  C   UNL     1      11.340  11.648  22.561  0.00  0.00    +0.130 A 
ATOM     30  H   UNL     1      11.010   8.899  24.077  0.00  0.00    +0.167 HD
ENDBRANCH  17  25
ENDBRANCH   5  17
ENDBRANCH  14  12
BRANCH  14  16
ATOM     16  C   UNL     1      15.937   6.612  20.084  0.00  0.00    -0.017 A 
ATOM     20  C   UNL     1      18.704   6.279  20.229  0.00  0.00    +0.033 A 
ATOM     21  C   UNL     1      16.641   7.096  21.187  0.00  0.00    +0.008 A 
ATOM     22  C   UNL     1      16.617   5.961  19.055  0.00  0.00    +0.008 A 
ATOM     23  C   UNL     1      18.024   6.930  21.259  0.00  0.00    +0.023 A 
ATOM     24  C   UNL     1      18.000   5.795  19.127  0.00  0.00    +0.023 A 
BRANCH  20   6
ATOM      3  O   UNL     1      20.359   3.787  20.567  0.00  0.00    -0.275 OA
ATOM      6  N   UNL     1      20.087   6.112  20.302  0.00  0.00    -0.285 N 
ATOM     13  C   UNL     1      20.804   4.923  20.461  0.00  0.00    +0.220 C 
ATOM     28  H   UNL     1      20.631   6.969  20.236  0.00  0.00    +0.155 HD
BRANCH  13   9
ATOM      9  C   UNL     1      22.288   5.112  20.500  0.00  0.00    +0.075 C 
ATOM     10  C   UNL     1      23.150   4.008  21.037  0.00  0.00    +0.013 C 
ATOM     11  C   UNL     1      22.969   5.270  21.828  0.00  0.00    +0.013 C 
ENDBRANCH  13   9
ENDBRANCH  20   6
ENDBRANCH  14  16
BRANCH  14   2
ATOM      2  O   UNL     1      13.824   6.092  21.078  0.00  0.00    -0.385 OA
ATOM     29  H   UNL     1      12.923   5.838  20.818  0.00  0.00    +0.210 HD
ENDBRANCH  14   2
TORSDOF 7
ENDMDL
MODEL 2
REMARK VINA RESULT:      -7.1      3.631      7.136
REMARK  Name = 56774833
REMARK  7 active torsions:
REMARK  status: ('A' for Active; 'I' for Inactive)
REMARK    1  A    between atoms: O_2  and  C_14
REMARK    2  A    between atoms: N_5  and  C_17
REMARK    3  A    between atoms: N_6  and  C_20
REMARK    4  A    between atoms: C_9  and  C_13
REMARK    5  A    between atoms: C_12  and  C_14
REMARK    6  A    between atoms: C_14  and  C_16
REMARK    7  A    between atoms: C_17  and  C_25
REMARK                            x       y       z     vdW  Elec       q    Type
REMARK                         _______ _______ _______ _____ _____    ______ ____
ROOT
ATOM     14  C   UNL     1      11.708   9.408  19.440  0.00  0.00    +0.167 C 
ENDROOT
BRANCH  14  12
ATOM      1  O   UNL     1      10.547   8.996  22.103  0.00  0.00    -0.369 OA
ATOM      4  O   UNL     1      11.016   5.520  21.247  0.00  0.00    -0.273 OA
ATOM      5  N   UNL     1      12.319   7.361  20.673  0.00  0.00    -0.284 N 
ATOM     12  C   UNL     1      12.438   8.824  20.652  0.00  0.00    +0.135 C 
ATOM     15  C   UNL     1      11.900   9.410  21.953  0.00  0.00    +0.185 C 
ATOM     18  C   UNL     1      11.271   6.722  21.333  0.00  0.00    +0.242 C 
ATOM     19  C   UNL     1      10.461   7.601  22.281  0.00  0.00    +0.255 C 
BRANCH   5  17
ATOM     17  C   UNL     1      13.227   6.600  19.826  0.00  0.00    +0.182 C 
BRANCH  17  25
ATOM      7  N   UNL     1      15.263   6.297  21.250  0.00  0.00    -0.347 N 
ATOM      8  N   UNL     1      15.497   7.643  19.499  0.00  0.00    -0.239 NA
ATOM     25  C   UNL     1      14.666   6.869  20.162  0.00  0.00    +0.125 A 
ATOM     26  C   UNL     1      16.558   6.734  21.284  0.00  0.00    +0.104 A 
ATOM     27  C   UNL     1      16.678   7.563  20.194  0.00  0.00    +0.130 A 
ATOM     30  H   UNL     1      14.829   5.667  21.911  0.00  0.00    +0.167 HD
ENDBRANCH  17  25
ENDBRANCH   5  17
ENDBRANCH  14  12
BRANCH  14  16
ATOM     16  C   UNL     1      12.667   9.829  18.356  0.00  0.00    -0.017 A 
ATOM     20  C   UNL     1      14.443  10.606  16.349  0.00  0.00    +0.033 A 
ATOM     21  C   UNL     1      12.702   9.133  17.147  0.00  0.00    +0.008 A 
ATOM     22  C   UNL     1      13.519  10.914  18.560  0.00  0.00    +0.008 A 
ATOM     23  C   UNL     1      13.590   9.521  16.144  0.00  0.00    +0.023 A 
ATOM     24  C   UNL     1      14.407  11.302  17.557  0.00  0.00    +0.023 A 
BRANCH  20   6
ATOM      3  O   UNL     1      13.925  11.744  13.611  0.00  0.00    -0.275 OA
ATOM      6  N   UNL     1      15.330  10.994  15.345  0.00  0.00    -0.285 N 
ATOM     13  C   UNL     1      15.030  11.520  14.086  0.00  0.00    +0.220 C 
ATOM     28  H   UNL     1      16.316  10.871  15.567  0.00  0.00    +0.155 HD
BRANCH  13   9
ATOM      9  C   UNL     1      16.236  11.828  13.255  0.00  0.00    +0.075 C 
ATOM     10  C   UNL     1      17.508  12.235  13.939  0.00  0.00    +0.013 C 
ATOM     11  C   UNL     1      16.717  13.246  13.164  0.00  0.00    +0.013 C 
ENDBRANCH  13   9
ENDBRANCH  20   6
ENDBRANCH  14  16
BRANCH  14   2
ATOM      2  O   UNL     1      10.803   8.439  18.923  0.00  0.00    -0.385 OA
ATOM     29  H   UNL     1      10.364   7.983  19.660  0.00  0.00    +0.210 HD
ENDBRANCH  14   2
TORSDOF 7
ENDMDL
MODEL 3
REMARK VINA RESULT:      -6.4     26.376     30.463
REMARK  Name = 56774833
REMARK  7 active torsions:
REMARK  status: ('A' for Active; 'I' for Inactive)
REMARK    1  A    between atoms: O_2  and  C_14
REMARK    2  A    between atoms: N_5  and  C_17
REMARK    3  A    between atoms: N_6  and  C_20
REMARK    4  A    between atoms: C_9  and  C_13
REMARK    5  A    between atoms: C_12  and  C_14
REMARK    6  A    between atoms: C_14  and  C_16
REMARK    7  A    between atoms: C_17  and  C_25
REMARK                            x       y       z     vdW  Elec       q    Type
REMARK                         _______ _______ _______ _____ _____    ______ ____
ROOT
ATOM     14  C   UNL     1     -14.678   5.520  21.830  0.00  0.00    +0.167 C 
ENDROOT
BRANCH  14  12
ATOM      1  O   UNL     1     -16.425   7.747  22.605  0.00  0.00    -0.369 OA
ATOM      4  O   UNL     1     -18.318   5.095  24.161  0.00  0.00    -0.273 OA
ATOM      5  N   UNL     1     -16.015   5.290  23.891  0.00  0.00    -0.284 N 
ATOM     12  C   UNL     1     -14.908   6.020  23.259  0.00  0.00    +0.135 C 
ATOM     15  C   UNL     1     -15.194   7.517  23.278  0.00  0.00    +0.185 C 
ATOM     18  C   UNL     1     -17.331   5.740  23.806  0.00  0.00    +0.242 C 
ATOM     19  C   UNL     1     -17.503   7.172  23.310  0.00  0.00    +0.255 C 
BRANCH   5  17
ATOM     17  C   UNL     1     -15.721   3.979  24.454  0.00  0.00    +0.182 C 
BRANCH  17  25
ATOM      7  N   UNL     1     -17.523   2.261  24.701  0.00  0.00    -0.347 N 
ATOM      8  N   UNL     1     -16.679   2.491  22.661  0.00  0.00    -0.239 NA
ATOM     25  C   UNL     1     -16.626   2.915  23.904  0.00  0.00    +0.125 A 
ATOM     26  C   UNL     1     -18.190   1.363  23.917  0.00  0.00    +0.104 A 
ATOM     27  C   UNL     1     -17.652   1.523  22.663  0.00  0.00    +0.130 A 
ATOM     30  H   UNL     1     -17.668   2.412  25.692  0.00  0.00    +0.167 HD
ENDBRANCH  17  25
ENDBRANCH   5  17
ENDBRANCH  14  12
BRANCH  14  16
ATOM     16  C   UNL     1     -13.770   6.439  21.054  0.00  0.00    -0.017 A 
ATOM     20  C   UNL     1     -12.090   8.141  19.617  0.00  0.00    +0.033 A 
ATOM     21  C   UNL     1     -14.297   7.264  20.060  0.00  0.00    +0.008 A 
ATOM     22  C   UNL     1     -12.403   6.467  21.330  0.00  0.00    +0.008 A 
ATOM     23  C   UNL     1     -13.457   8.114  19.341  0.00  0.00    +0.023 A 
ATOM     24  C   UNL     1     -11.564   7.317  20.612  0.00  0.00    +0.023 A 
BRANCH  20   6
ATOM      3  O   UNL     1     -10.656   7.728  17.002  0.00  0.00    -0.275 OA
ATOM      6  N   UNL     1     -11.250   8.992  18.899  0.00  0.00    -0.285 N 
ATOM     13  C   UNL     1     -10.608   8.745  17.682  0.00  0.00    +0.220 C 
ATOM     28  H   UNL     1     -11.086   9.902  19.326  0.00  0.00    +0.155 HD
BRANCH  13   9
ATOM      9  C   UNL     1      -9.775   9.888  17.194  0.00  0.00    +0.075 C 
ATOM     10  C   UNL     1     -10.190  11.290  17.531  0.00  0.00    +0.013 C 
ATOM     11  C   UNL     1     -10.322  10.786  16.124  0.00  0.00    +0.013 C 
ENDBRANCH  13   9
ENDBRANCH  20   6
ENDBRANCH  14  16
BRANCH  14   2
ATOM      2  O   UNL     1     -14.109   4.216  21.873  0.00  0.00    -0.385 OA
ATOM     29  H   UNL     1     -14.090   3.844  20.975  0.00  0.00    +0.210 HD
ENDBRANCH  14   2
TORSDOF 7
ENDMDL
MODEL 4
REMARK VINA RESULT:      -6.2     26.684     29.295
REMARK  Name = 56774833
REMARK  7 active torsions:
REMARK  status: ('A' for Active; 'I' for Inactive)
REMARK    1  A    between atoms: O_2  and  C_14
REMARK    2  A    between atoms: N_5  and  C_17
REMARK    3  A    between atoms: N_6  and  C_20
REMARK    4  A    between atoms: C_9  and  C_13
REMARK    5  A    between atoms: C_12  and  C_14
REMARK    6  A    between atoms: C_14  and  C_16
REMARK    7  A    between atoms: C_17  and  C_25
REMARK                            x       y       z     vdW  Elec       q    Type
REMARK                         _______ _______ _______ _____ _____    ______ ____
ROOT
ATOM     14  C   UNL     1     -11.869   9.060  19.714  0.00  0.00    +0.167 C 
ENDROOT
BRANCH  14  12
ATOM      1  O   UNL     1     -12.606  11.663  18.577  0.00  0.00    -0.369 OA
ATOM      4  O   UNL     1      -9.649  11.095  16.584  0.00  0.00    -0.273 OA
ATOM      5  N   UNL     1     -11.192   9.552  17.394  0.00  0.00    -0.284 N 
ATOM     12  C   UNL     1     -12.338   9.307  18.278  0.00  0.00    +0.135 C 
ATOM     15  C   UNL     1     -13.308  10.481  18.211  0.00  0.00    +0.185 C 
ATOM     18  C   UNL     1     -10.702  10.837  17.170  0.00  0.00    +0.242 C 
ATOM     19  C   UNL     1     -11.609  11.973  17.631  0.00  0.00    +0.255 C 
BRANCH   5  17
ATOM     17  C   UNL     1     -10.464   8.391  16.899  0.00  0.00    +0.182 C 
BRANCH  17  25
ATOM      7  N   UNL     1     -10.103   7.147  14.758  0.00  0.00    -0.347 N 
ATOM      8  N   UNL     1     -11.740   8.648  14.741  0.00  0.00    -0.239 NA
ATOM     25  C   UNL     1     -10.797   8.087  15.467  0.00  0.00    +0.125 A 
ATOM     26  C   UNL     1     -10.637   7.105  13.501  0.00  0.00    +0.104 A 
ATOM     27  C   UNL     1     -11.645   8.039  13.514  0.00  0.00    +0.130 A 
ATOM     30  H   UNL     1      -9.334   6.585  15.098  0.00  0.00    +0.167 HD
ENDBRANCH  17  25
ENDBRANCH   5  17
ENDBRANCH  14  12
BRANCH  14  16
ATOM     16  C   UNL     1     -12.590   7.898  20.348  0.00  0.00    -0.017 A 
ATOM     20  C   UNL     1     -13.926   5.747  21.521  0.00  0.00    +0.033 A 
ATOM     21  C   UNL     1     -13.980   7.811  20.265  0.00  0.00    +0.008 A 
ATOM     22  C   UNL     1     -11.869   6.909  21.016  0.00  0.00    +0.008 A 
ATOM     23  C   UNL     1     -14.648   6.736  20.852  0.00  0.00    +0.023 A 
ATOM     24  C   UNL     1     -12.536   5.834  21.603  0.00  0.00    +0.023 A 
BRANCH  20   6
ATOM      3  O   UNL     1     -15.996   5.684  23.706  0.00  0.00    -0.275 OA
ATOM      6  N   UNL     1     -14.593   4.672  22.107  0.00  0.00    -0.285 N 
ATOM     13  C   UNL     1     -15.551   4.703  23.124  0.00  0.00    +0.220 C 
ATOM     28  H   UNL     1     -14.340   3.755  21.745  0.00  0.00    +0.155 HD
BRANCH  13   9
ATOM      9  C   UNL     1     -16.062   3.352  23.516  0.00  0.00    +0.075 C 
ATOM     10  C   UNL     1     -17.222   3.257  24.462  0.00  0.00    +0.013 C 
ATOM     11  C   UNL     1     -15.847   2.869  24.920  0.00  0.00    +0.013 C 
ENDBRANCH  13   9
ENDBRANCH  20   6
ENDBRANCH  14  16
BRANCH  14   2
ATOM      2  O   UNL     1     -10.468   8.807  19.715  0.00  0.00    -0.385 OA
ATOM     29  H   UNL     1     -10.238   8.270  18.939  0.00  0.00    +0.210 HD
ENDBRANCH  14   2
TORSDOF 7
ENDMDL
MODEL 5
REMARK VINA RESULT:      -6.1     27.738     29.991
REMARK  Name = 56774833
REMARK  7 active torsions:
REMARK  status: ('A' for Active; 'I' for Inactive)
REMARK    1  A    between atoms: O_2  and  C_14
REMARK    2  A    between atoms: N_5  and  C_17
REMARK    3  A    between atoms: N_6  and  C_20
REMARK    4  A    between atoms: C_9  and  C_13
REMARK    5  A    between atoms: C_12  and  C_14
REMARK    6  A    between atoms: C_14  and  C_16
REMARK    7  A    between atoms: C_17  and  C_25
REMARK                            x       y       z     vdW  Elec       q    Type
REMARK                         _______ _______ _______ _____ _____    ______ ____
ROOT
ATOM     14  C   UNL     1      -7.551 -11.481  19.196  0.00  0.00    +0.167 C 
ENDROOT
BRANCH  14  12
ATOM      1  O   UNL     1      -8.599 -14.199  18.839  0.00  0.00    -0.369 OA
ATOM      4  O   UNL     1     -11.018 -13.073  21.273  0.00  0.00    -0.273 OA
ATOM      5  N   UNL     1      -9.956 -11.864  19.591  0.00  0.00    -0.284 N 
ATOM     12  C   UNL     1      -8.901 -11.843  18.570  0.00  0.00    +0.135 C 
ATOM     15  C   UNL     1      -8.834 -13.192  17.862  0.00  0.00    +0.185 C 
ATOM     18  C   UNL     1     -10.272 -13.025  20.293  0.00  0.00    +0.242 C 
ATOM     19  C   UNL     1      -9.694 -14.315  19.720  0.00  0.00    +0.255 C 
BRANCH   5  17
ATOM     17  C   UNL     1     -10.540 -10.587  19.981  0.00  0.00    +0.182 C 
BRANCH  17  25
ATOM      7  N   UNL     1      -9.956  -8.788  18.342  0.00  0.00    -0.347 N 
ATOM      8  N   UNL     1     -11.941  -9.742  18.065  0.00  0.00    -0.239 NA
ATOM     25  C   UNL     1     -10.845  -9.723  18.792  0.00  0.00    +0.125 A 
ATOM     26  C   UNL     1     -10.519  -8.173  17.260  0.00  0.00    +0.104 A 
ATOM     27  C   UNL     1     -11.743  -8.778  17.108  0.00  0.00    +0.130 A 
ATOM     30  H   UNL     1      -9.046  -8.586  18.738  0.00  0.00    +0.167 HD
ENDBRANCH  17  25
ENDBRANCH   5  17
ENDBRANCH  14  12
BRANCH  14  16
ATOM     16  C   UNL     1      -6.501 -11.218  18.148  0.00  0.00    -0.017 A 
ATOM     20  C   UNL     1      -4.556 -10.729  16.207  0.00  0.00    +0.033 A 
ATOM     21  C   UNL     1      -6.664 -10.166  17.246  0.00  0.00    +0.008 A 
ATOM     22  C   UNL     1      -5.365 -12.024  18.079  0.00  0.00    +0.008 A 
ATOM     23  C   UNL     1      -5.692  -9.922  16.276  0.00  0.00    +0.023 A 
ATOM     24  C   UNL     1      -4.393 -11.780  17.109  0.00  0.00    +0.023 A 
BRANCH  20   6
ATOM      3  O   UNL     1      -4.651 -11.050  13.215  0.00  0.00    -0.275 OA
ATOM      6  N   UNL     1      -3.584 -10.485  15.237  0.00  0.00    -0.285 N 
ATOM     13  C   UNL     1      -3.686 -10.653  13.854  0.00  0.00    +0.220 C 
ATOM     28  H   UNL     1      -2.692 -10.148  15.593  0.00  0.00    +0.155 HD
BRANCH  13   9
ATOM      9  C   UNL     1      -2.439 -10.293  13.107  0.00  0.00    +0.075 C 
ATOM     10  C   UNL     1      -2.460 -10.295  11.607  0.00  0.00    +0.013 C 
ATOM     11  C   UNL     1      -1.709 -11.362  12.348  0.00  0.00    +0.013 C 
ENDBRANCH  13   9
ENDBRANCH  20   6
ENDBRANCH  14  16
BRANCH  14   2
ATOM      2  O   UNL     1      -7.706 -10.327  20.013  0.00  0.00    -0.385 OA
ATOM     29  H   UNL     1      -7.590  -9.530  19.469  0.00  0.00    +0.210 HD
ENDBRANCH  14   2
TORSDOF 7
ENDMDL
MODEL 6
REMARK VINA RESULT:      -6.1     27.192     30.021
REMARK  Name = 56774833
REMARK  7 active torsions:
REMARK  status: ('A' for Active; 'I' for Inactive)
REMARK    1  A    between atoms: O_2  and  C_14
REMARK    2  A    between atoms: N_5  and  C_17
REMARK    3  A    between atoms: N_6  and  C_20
REMARK    4  A    between atoms: C_9  and  C_13
REMARK    5  A    between atoms: C_12  and  C_14
REMARK    6  A    between atoms: C_14  and  C_16
REMARK    7  A    between atoms: C_17  and  C_25
REMARK                            x       y       z     vdW  Elec       q    Type
REMARK                         _______ _______ _______ _____ _____    ______ ____
ROOT
ATOM     14  C   UNL     1      -3.507 -10.554  16.040  0.00  0.00    +0.167 C 
ENDROOT
BRANCH  14  12
ATOM      1  O   UNL     1      -1.522 -11.086  13.946  0.00  0.00    -0.369 OA
ATOM      4  O   UNL     1      -2.610 -14.493  14.444  0.00  0.00    -0.273 OA
ATOM      5  N   UNL     1      -3.840 -12.523  14.592  0.00  0.00    -0.284 N 
ATOM     12  C   UNL     1      -3.813 -11.055  14.626  0.00  0.00    +0.135 C 
ATOM     15  C   UNL     1      -2.791 -10.529  13.624  0.00  0.00    +0.185 C 
ATOM     18  C   UNL     1      -2.696 -13.270  14.321  0.00  0.00    +0.242 C 
ATOM     19  C   UNL     1      -1.518 -12.483  13.755  0.00  0.00    +0.255 C 
BRANCH   5  17
ATOM     17  C   UNL     1      -5.062 -13.183  15.031  0.00  0.00    +0.182 C 
BRANCH  17  25
ATOM      7  N   UNL     1      -6.153 -13.104  12.780  0.00  0.00    -0.347 N 
ATOM      8  N   UNL     1      -7.388 -12.386  14.480  0.00  0.00    -0.239 NA
ATOM     25  C   UNL     1      -6.221 -12.880  14.127  0.00  0.00    +0.125 A 
ATOM     26  C   UNL     1      -7.351 -12.731  12.240  0.00  0.00    +0.104 A 
ATOM     27  C   UNL     1      -8.097 -12.292  13.308  0.00  0.00    +0.130 A 
ATOM     30  H   UNL     1      -5.360 -13.478  12.274  0.00  0.00    +0.167 HD
ENDBRANCH  17  25
ENDBRANCH   5  17
ENDBRANCH  14  12
BRANCH  14  16
ATOM     16  C   UNL     1      -4.753 -10.456  16.882  0.00  0.00    -0.017 A 
ATOM     20  C   UNL     1      -7.060 -10.276  18.441  0.00  0.00    +0.033 A 
ATOM     21  C   UNL     1      -4.790 -11.049  18.144  0.00  0.00    +0.008 A 
ATOM     22  C   UNL     1      -5.869  -9.772  16.401  0.00  0.00    +0.008 A 
ATOM     23  C   UNL     1      -5.944 -10.960  18.923  0.00  0.00    +0.023 A 
ATOM     24  C   UNL     1      -7.022  -9.682  17.180  0.00  0.00    +0.023 A 
BRANCH  20   6
ATOM      3  O   UNL     1      -9.454 -12.093  18.614  0.00  0.00    -0.275 OA
ATOM      6  N   UNL     1      -8.213 -10.186  19.221  0.00  0.00    -0.285 N 
ATOM     13  C   UNL     1      -9.299 -11.064  19.259  0.00  0.00    +0.220 C 
ATOM     28  H   UNL     1      -8.262  -9.371  19.830  0.00  0.00    +0.155 HD
BRANCH  13   9
ATOM      9  C   UNL     1     -10.374 -10.657  20.218  0.00  0.00    +0.075 C 
ATOM     10  C   UNL     1     -11.707 -11.342  20.153  0.00  0.00    +0.013 C 
ATOM     11  C   UNL     1     -11.573  -9.919  19.699  0.00  0.00    +0.013 C 
ENDBRANCH  13   9
ENDBRANCH  20   6
ENDBRANCH  14  16
BRANCH  14   2
ATOM      2  O   UNL     1      -2.582 -11.438  16.663  0.00  0.00    -0.385 OA
ATOM     29  H   UNL     1      -2.457 -11.172  17.590  0.00  0.00    +0.210 HD
ENDBRANCH  14   2
TORSDOF 7
ENDMDL
MODEL 7
REMARK VINA RESULT:      -6.0     27.816     30.042
REMARK  Name = 56774833
REMARK  7 active torsions:
REMARK  status: ('A' for Active; 'I' for Inactive)
REMARK    1  A    between atoms: O_2  and  C_14
REMARK    2  A    between atoms: N_5  and  C_17
REMARK    3  A    between atoms: N_6  and  C_20
REMARK    4  A    between atoms: C_9  and  C_13
REMARK    5  A    between atoms: C_12  and  C_14
REMARK    6  A    between atoms: C_14  and  C_16
REMARK    7  A    between atoms: C_17  and  C_25
REMARK                            x       y       z     vdW  Elec       q    Type
REMARK                         _______ _______ _______ _____ _____    ______ ____
ROOT
ATOM     14  C   UNL     1      -8.468 -11.963  19.821  0.00  0.00    +0.167 C 
ENDROOT
BRANCH  14  12
ATOM      1  O   UNL     1     -11.131 -12.661  20.836  0.00  0.00    -0.369 OA
ATOM      4  O   UNL     1     -12.198 -10.461  18.179  0.00  0.00    -0.273 OA
ATOM      5  N   UNL     1     -10.368 -11.897  18.249  0.00  0.00    -0.284 N 
ATOM     12  C   UNL     1      -9.525 -12.776  19.070  0.00  0.00    +0.135 C 
ATOM     15  C   UNL     1     -10.392 -13.576  20.036  0.00  0.00    +0.185 C 
ATOM     18  C   UNL     1     -11.541 -11.334  18.748  0.00  0.00    +0.242 C 
ATOM     19  C   UNL     1     -12.051 -11.933  20.055  0.00  0.00    +0.255 C 
BRANCH   5  17
ATOM     17  C   UNL     1      -9.845 -11.482  16.954  0.00  0.00    +0.182 C 
BRANCH  17  25
ATOM      7  N   UNL     1      -9.491  -9.145  17.774  0.00  0.00    -0.347 N 
ATOM      8  N   UNL     1     -10.306  -9.336  15.717  0.00  0.00    -0.239 NA
ATOM     25  C   UNL     1      -9.894  -9.992  16.780  0.00  0.00    +0.125 A 
ATOM     26  C   UNL     1      -9.656  -7.868  17.316  0.00  0.00    +0.104 A 
ATOM     27  C   UNL     1     -10.160  -8.012  16.046  0.00  0.00    +0.130 A 
ATOM     30  H   UNL     1      -9.137  -9.411  18.684  0.00  0.00    +0.167 HD
ENDBRANCH  17  25
ENDBRANCH   5  17
ENDBRANCH  14  12
BRANCH  14  16
ATOM     16  C   UNL     1      -7.179 -11.866  19.045  0.00  0.00    -0.017 A 
ATOM     20  C   UNL     1      -4.794 -11.685  17.609  0.00  0.00    +0.033 A 
ATOM     21  C   UNL     1      -6.422 -10.696  19.095  0.00  0.00    +0.008 A 
ATOM     22  C   UNL     1      -6.743 -12.946  18.279  0.00  0.00    +0.008 A 
ATOM     23  C   UNL     1      -5.230 -10.605  18.377  0.00  0.00    +0.023 A 
ATOM     24  C   UNL     1      -5.551 -12.856  17.560  0.00  0.00    +0.023 A 
BRANCH  20   6
ATOM      3  O   UNL     1      -4.279 -10.846  14.765  0.00  0.00    -0.275 OA
ATOM      6  N   UNL     1      -3.601 -11.595  16.892  0.00  0.00    -0.285 N 
ATOM     13  C   UNL     1      -3.422 -11.197  15.565  0.00  0.00    +0.220 C 
ATOM     28  H   UNL     1      -2.764 -11.861  17.407  0.00  0.00    +0.155 HD
BRANCH  13   9
ATOM      9  C   UNL     1      -1.995 -11.219  15.113  0.00  0.00    +0.075 C 
ATOM     10  C   UNL     1      -0.989 -10.369  15.832  0.00  0.00    +0.013 C 
ATOM     11  C   UNL     1      -1.423 -10.004  14.443  0.00  0.00    +0.013 C 
ENDBRANCH  13   9
ENDBRANCH  20   6
ENDBRANCH  14  16
BRANCH  14   2
ATOM      2  O   UNL     1      -8.970 -10.655  20.072  0.00  0.00    -0.385 OA
ATOM     29  H   UNL     1      -8.226 -10.037  20.162  0.00  0.00    +0.210 HD
ENDBRANCH  14   2
TORSDOF 7
ENDMDL
MODEL 8
REMARK VINA RESULT:      -6.0     27.204     29.769
REMARK  Name = 56774833
REMARK  7 active torsions:
REMARK  status: ('A' for Active; 'I' for Inactive)
REMARK    1  A    between atoms: O_2  and  C_14
REMARK    2  A    between atoms: N_5  and  C_17
REMARK    3  A    between atoms: N_6  and  C_20
REMARK    4  A    between atoms: C_9  and  C_13
REMARK    5  A    between atoms: C_12  and  C_14
REMARK    6  A    between atoms: C_14  and  C_16
REMARK    7  A    between atoms: C_17  and  C_25
REMARK                            x       y       z     vdW  Elec       q    Type
REMARK                         _______ _______ _______ _____ _____    ______ ____
ROOT
ATOM     14  C   UNL     1      -3.587 -10.758  15.765  0.00  0.00    +0.167 C 
ENDROOT
BRANCH  14  12
ATOM      1  O   UNL     1      -4.920 -10.263  13.198  0.00  0.00    -0.369 OA
ATOM      4  O   UNL     1      -1.600 -10.850  11.904  0.00  0.00    -0.273 OA
ATOM      5  N   UNL     1      -2.650 -11.816  13.743  0.00  0.00    -0.284 N 
ATOM     12  C   UNL     1      -3.800 -11.791  14.655  0.00  0.00    +0.135 C 
ATOM     15  C   UNL     1      -5.078 -11.504  13.875  0.00  0.00    +0.185 C 
ATOM     18  C   UNL     1      -2.597 -11.005  12.611  0.00  0.00    +0.242 C 
ATOM     19  C   UNL     1      -3.915 -10.349  12.213  0.00  0.00    +0.255 C 
BRANCH   5  17
ATOM     17  C   UNL     1      -1.480 -12.580  14.156  0.00  0.00    +0.182 C 
BRANCH  17  25
ATOM      7  N   UNL     1      -0.316 -14.590  13.226  0.00  0.00    -0.347 N 
ATOM      8  N   UNL     1      -2.530 -14.717  13.332  0.00  0.00    -0.239 NA
ATOM     25  C   UNL     1      -1.480 -13.964  13.574  0.00  0.00    +0.125 A 
ATOM     26  C   UNL     1      -0.644 -15.821  12.732  0.00  0.00    +0.104 A 
ATOM     27  C   UNL     1      -2.015 -15.876  12.807  0.00  0.00    +0.130 A 
ATOM     30  H   UNL     1       0.619 -14.213  13.316  0.00  0.00    +0.167 HD
ENDBRANCH  17  25
ENDBRANCH   5  17
ENDBRANCH  14  12
BRANCH  14  16
ATOM     16  C   UNL     1      -4.787 -10.654  16.671  0.00  0.00    -0.017 A 
ATOM     20  C   UNL     1      -7.009 -10.459  18.349  0.00  0.00    +0.033 A 
ATOM     21  C   UNL     1      -5.776  -9.704  16.413  0.00  0.00    +0.008 A 
ATOM     22  C   UNL     1      -4.911 -11.507  17.767  0.00  0.00    +0.008 A 
ATOM     23  C   UNL     1      -6.886  -9.606  17.251  0.00  0.00    +0.023 A 
ATOM     24  C   UNL     1      -6.021 -11.409  18.606  0.00  0.00    +0.023 A 
BRANCH  20   6
ATOM      3  O   UNL     1      -9.653 -11.895  18.268  0.00  0.00    -0.275 OA
ATOM      6  N   UNL     1      -8.119 -10.362  19.187  0.00  0.00    -0.285 N 
ATOM     13  C   UNL     1      -9.328 -11.059  19.100  0.00  0.00    +0.220 C 
ATOM     28  H   UNL     1      -8.029  -9.694  19.950  0.00  0.00    +0.155 HD
BRANCH  13   9
ATOM      9  C   UNL     1     -10.309 -10.704  20.173  0.00  0.00    +0.075 C 
ATOM     10  C   UNL     1     -11.644 -11.387  20.196  0.00  0.00    +0.013 C 
ATOM     11  C   UNL     1     -11.548  -9.941  19.807  0.00  0.00    +0.013 C 
ENDBRANCH  13   9
ENDBRANCH  20   6
ENDBRANCH  14  16
BRANCH  14   2
ATOM      2  O   UNL     1      -2.444 -11.119  16.532  0.00  0.00    -0.385 OA
ATOM     29  H   UNL     1      -2.562 -12.019  16.881  0.00  0.00    +0.210 HD
ENDBRANCH  14   2
TORSDOF 7
ENDMDL
MODEL 9
REMARK VINA RESULT:      -6.0     27.379     29.536
REMARK  Name = 56774833
REMARK  7 active torsions:
REMARK  status: ('A' for Active; 'I' for Inactive)
REMARK    1  A    between atoms: O_2  and  C_14
REMARK    2  A    between atoms: N_5  and  C_17
REMARK    3  A    between atoms: N_6  and  C_20
REMARK    4  A    between atoms: C_9  and  C_13
REMARK    5  A    between atoms: C_12  and  C_14
REMARK    6  A    between atoms: C_14  and  C_16
REMARK    7  A    between atoms: C_17  and  C_25
REMARK                            x       y       z     vdW  Elec       q    Type
REMARK                         _______ _______ _______ _____ _____    ______ ____
ROOT
ATOM     14  C   UNL     1      -3.041 -11.695  11.118  0.00  0.00    +0.167 C 
ENDROOT
BRANCH  14  12
ATOM      1  O   UNL     1      -2.099 -14.035  12.617  0.00  0.00    -0.369 OA
ATOM      4  O   UNL     1      -1.902 -11.636  15.309  0.00  0.00    -0.273 OA
ATOM      5  N   UNL     1      -3.426 -11.750  13.554  0.00  0.00    -0.284 N 
ATOM     12  C   UNL     1      -3.782 -12.373  12.272  0.00  0.00    +0.135 C 
ATOM     15  C   UNL     1      -3.479 -13.867  12.317  0.00  0.00    +0.185 C 
ATOM     18  C   UNL     1      -2.359 -12.212  14.320  0.00  0.00    +0.242 C 
ATOM     19  C   UNL     1      -1.803 -13.574  13.916  0.00  0.00    +0.255 C 
BRANCH   5  17
ATOM     17  C   UNL     1      -4.109 -10.514  13.913  0.00  0.00    +0.182 C 
BRANCH  17  25
ATOM      7  N   UNL     1      -4.426  -9.992  16.340  0.00  0.00    -0.347 N 
ATOM      8  N   UNL     1      -5.938 -11.343  15.435  0.00  0.00    -0.239 NA
ATOM     25  C   UNL     1      -4.850 -10.639  15.213  0.00  0.00    +0.125 A 
ATOM     26  C   UNL     1      -5.299 -10.303  17.344  0.00  0.00    +0.104 A 
ATOM     27  C   UNL     1      -6.222 -11.137  16.762  0.00  0.00    +0.130 A 
ATOM     30  H   UNL     1      -3.614  -9.394  16.419  0.00  0.00    +0.167 HD
ENDBRANCH  17  25
ENDBRANCH   5  17
ENDBRANCH  14  12
BRANCH  14  16
ATOM     16  C   UNL     1      -3.934 -10.749  10.356  0.00  0.00    -0.017 A 
ATOM     20  C   UNL     1      -5.588  -9.000   8.946  0.00  0.00    +0.033 A 
ATOM     21  C   UNL     1      -5.088 -11.228   9.735  0.00  0.00    +0.008 A 
ATOM     22  C   UNL     1      -3.609  -9.396  10.273  0.00  0.00    +0.008 A 
ATOM     23  C   UNL     1      -5.915 -10.354   9.030  0.00  0.00    +0.023 A 
ATOM     24  C   UNL     1      -4.436  -8.522   9.567  0.00  0.00    +0.023 A 
BRANCH  20   6
ATOM      3  O   UNL     1      -8.388  -8.059   9.526  0.00  0.00    -0.275 OA
ATOM      6  N   UNL     1      -6.416  -8.126   8.241  0.00  0.00    -0.285 N 
ATOM     13  C   UNL     1      -7.715  -7.723   8.560  0.00  0.00    +0.220 C 
ATOM     28  H   UNL     1      -6.015  -7.743   7.387  0.00  0.00    +0.155 HD
BRANCH  13   9
ATOM      9  C   UNL     1      -8.312  -6.768   7.575  0.00  0.00    +0.075 C 
ATOM     10  C   UNL     1      -9.788  -6.501   7.619  0.00  0.00    +0.013 C 
ATOM     11  C   UNL     1      -9.204  -7.301   6.491  0.00  0.00    +0.013 C 
ENDBRANCH  13   9
ENDBRANCH  20   6
ENDBRANCH  14  16
BRANCH  14   2
ATOM      2  O   UNL     1      -1.922 -10.980  11.631  0.00  0.00    -0.385 OA
ATOM     29  H   UNL     1      -2.217 -10.114  11.960  0.00  0.00    +0.210 HD
ENDBRANCH  14   2
TORSDOF 7
ENDMDL
MODEL 10
REMARK VINA RESULT:      -5.9     26.559     29.368
REMARK  Name = 56774833
REMARK  7 active torsions:
REMARK  status: ('A' for Active; 'I' for Inactive)
REMARK    1  A    between atoms: O_2  and  C_14
REMARK    2  A    between atoms: N_5  and  C_17
REMARK    3  A    between atoms: N_6  and  C_20
REMARK    4  A    between atoms: C_9  and  C_13
REMARK    5  A    between atoms: C_12  and  C_14
REMARK    6  A    between atoms: C_14  and  C_16
REMARK    7  A    between atoms: C_17  and  C_25
REMARK                            x       y       z     vdW  Elec       q    Type
REMARK                         _______ _______ _______ _____ _____    ______ ____
ROOT
ATOM     14  C   UNL     1     -11.135   9.736  19.714  0.00  0.00    +0.167 C 
ENDROOT
BRANCH  14  12
ATOM      1  O   UNL     1      -9.965  11.712  17.887  0.00  0.00    -0.369 OA
ATOM      4  O   UNL     1     -10.305   9.013  15.513  0.00  0.00    -0.273 OA
ATOM      5  N   UNL     1     -11.673   9.565  17.313  0.00  0.00    -0.284 N 
ATOM     12  C   UNL     1     -11.846  10.380  18.522  0.00  0.00    +0.135 C 
ATOM     15  C   UNL     1     -11.331  11.794  18.274  0.00  0.00    +0.185 C 
ATOM     18  C   UNL     1     -10.604   9.764  16.442  0.00  0.00    +0.242 C 
ATOM     19  C   UNL     1      -9.828  11.063  16.644  0.00  0.00    +0.255 C 
BRANCH   5  17
ATOM     17  C   UNL     1     -12.552   8.415  17.147  0.00  0.00    +0.182 C 
BRANCH  17  25
ATOM      7  N   UNL     1     -13.035   7.703  14.797  0.00  0.00    -0.347 N 
ATOM      8  N   UNL     1     -14.368   9.274  15.626  0.00  0.00    -0.239 NA
ATOM     25  C   UNL     1     -13.341   8.491  15.872  0.00  0.00    +0.125 A 
ATOM     26  C   UNL     1     -13.923   8.004  13.803  0.00  0.00    +0.104 A 
ATOM     27  C   UNL     1     -14.735   8.975  14.337  0.00  0.00    +0.130 A 
ATOM     30  H   UNL     1     -12.288   7.023  14.744  0.00  0.00    +0.167 HD
ENDBRANCH  17  25
ENDBRANCH   5  17
ENDBRANCH  14  12
BRANCH  14  16
ATOM     16  C   UNL     1     -12.058   8.842  20.501  0.00  0.00    -0.017 A 
ATOM     20  C   UNL     1     -13.768   7.187  21.959  0.00  0.00    +0.033 A 
ATOM     21  C   UNL     1     -13.099   9.397  21.246  0.00  0.00    +0.008 A 
ATOM     22  C   UNL     1     -11.873   7.460  20.485  0.00  0.00    +0.008 A 
ATOM     23  C   UNL     1     -13.953   8.570  21.975  0.00  0.00    +0.023 A 
ATOM     24  C   UNL     1     -12.728   6.633  21.213  0.00  0.00    +0.023 A 
BRANCH  20   6
ATOM      3  O   UNL     1     -15.709   5.080  21.036  0.00  0.00    -0.275 OA
ATOM      6  N   UNL     1     -14.623   6.360  22.687  0.00  0.00    -0.285 N 
ATOM     13  C   UNL     1     -15.507   5.394  22.201  0.00  0.00    +0.220 C 
ATOM     28  H   UNL     1     -14.594   6.488  23.697  0.00  0.00    +0.155 HD
BRANCH  13   9
ATOM      9  C   UNL     1     -16.278   4.686  23.271  0.00  0.00    +0.075 C 
ATOM     10  C   UNL     1     -15.549   4.173  24.478  0.00  0.00    +0.013 C 
ATOM     11  C   UNL     1     -16.081   3.210  23.458  0.00  0.00    +0.013 C 
ENDBRANCH  13   9
ENDBRANCH  20   6
ENDBRANCH  14  16
BRANCH  14   2
ATOM      2  O   UNL     1     -10.024   8.978  19.247  0.00  0.00    -0.385 OA
ATOM     29  H   UNL     1      -9.200   9.410  19.526  0.00  0.00    +0.210 HD
ENDBRANCH  14   2
TORSDOF 7
ENDMDL
