MODEL 1
REMARK VINA RESULT:      -7.2      0.000      0.000
REMARK  Name = 75368494
REMARK  3 active torsions:
REMARK  status: ('A' for Active; 'I' for Inactive)
REMARK    1  A    between atoms: N_4  and  C_9
REMARK    2  A    between atoms: C_18  and  C_19
REMARK    3  A    between atoms: C_24  and  C_25
REMARK                            x       y       z     vdW  Elec       q    Type
REMARK                         _______ _______ _______ _____ _____    ______ ____
ROOT
ATOM      2  O   UNL     1      -4.223 -11.992  18.508  0.00  0.00    -0.252 OA
ATOM      3  O   UNL     1     -10.779 -10.014  19.897  0.00  0.00    -0.270 OA
ATOM      4  N   UNL     1      -4.872 -10.885  16.530  0.00  0.00    -0.280 N 
ATOM      5  N   UNL     1      -6.293 -10.906  18.272  0.00  0.00    -0.278 N 
ATOM      6  N   UNL     1      -9.047 -10.565  18.428  0.00  0.00    -0.294 N 
ATOM      7  C   UNL     1      -6.937 -10.058  17.282  0.00  0.00    +0.112 C 
ATOM      8  C   UNL     1      -6.071 -10.228  16.038  0.00  0.00    +0.133 C 
ATOM     10  C   UNL     1      -8.396 -10.469  17.107  0.00  0.00    +0.132 C 
ATOM     11  C   UNL     1      -6.927 -11.124  19.560  0.00  0.00    +0.128 C 
ATOM     12  C   UNL     1      -5.027 -11.340  17.855  0.00  0.00    +0.305 C 
ATOM     13  C   UNL     1      -8.397 -11.492  19.364  0.00  0.00    +0.127 C 
ATOM     18  C   UNL     1     -10.213  -9.899  18.811  0.00  0.00    +0.247 C 
ENDROOT
BRANCH  18  19
ATOM     19  C   UNL     1     -10.825  -8.970  17.853  0.00  0.00    +0.037 A 
ATOM     20  C   UNL     1     -10.137  -7.821  17.459  0.00  0.00    +0.013 A 
ATOM     21  C   UNL     1     -12.094  -9.234  17.339  0.00  0.00    +0.013 A 
ATOM     22  C   UNL     1     -10.720  -6.938  16.550  0.00  0.00    +0.004 A 
ATOM     23  C   UNL     1     -12.676  -8.351  16.429  0.00  0.00    +0.004 A 
ATOM     24  C   UNL     1     -11.989  -7.203  16.035  0.00  0.00    -0.050 A 
ATOM     25  C   UNL     1     -12.611  -6.258  15.063  0.00  0.00    +0.044 C 
ENDBRANCH  18  19
BRANCH   4   9
ATOM      1  O   UNL     1      -1.629 -10.115  14.008  0.00  0.00    -0.380 OA
ATOM      9  C   UNL     1      -3.736 -11.137  15.680  0.00  0.00    +0.082 C 
ATOM     14  C   UNL     1      -2.472 -10.497  16.253  0.00  0.00    +0.050 C 
ATOM     15  C   UNL     1      -3.988 -10.635  14.258  0.00  0.00    +0.050 C 
ATOM     16  C   UNL     1      -1.304 -10.654  15.288  0.00  0.00    +0.161 C 
ATOM     17  C   UNL     1      -2.735 -10.786  13.405  0.00  0.00    +0.161 C 
ENDBRANCH   4   9
TORSDOF 2
ENDMDL
MODEL 2
REMARK VINA RESULT:      -7.1     27.459     29.765
REMARK  Name = 75368494
REMARK  3 active torsions:
REMARK  status: ('A' for Active; 'I' for Inactive)
REMARK    1  A    between atoms: N_4  and  C_9
REMARK    2  A    between atoms: C_18  and  C_19
REMARK    3  A    between atoms: C_24  and  C_25
REMARK                            x       y       z     vdW  Elec       q    Type
REMARK                         _______ _______ _______ _____ _____    ______ ____
ROOT
ATOM      2  O   UNL     1      17.508   6.137  19.360  0.00  0.00    -0.252 OA
ATOM      3  O   UNL     1      10.954   8.550  19.555  0.00  0.00    -0.270 OA
ATOM      4  N   UNL     1      17.613   7.820  21.008  0.00  0.00    -0.280 N 
ATOM      5  N   UNL     1      15.619   7.323  20.097  0.00  0.00    -0.278 N 
ATOM      6  N   UNL     1      13.256   8.772  19.894  0.00  0.00    -0.294 N 
ATOM      7  C   UNL     1      15.316   8.293  21.137  0.00  0.00    +0.112 C 
ATOM      8  C   UNL     1      16.689   8.776  21.594  0.00  0.00    +0.133 C 
ATOM     10  C   UNL     1      14.405   9.386  20.587  0.00  0.00    +0.132 C 
ATOM     11  C   UNL     1      14.543   6.751  19.307  0.00  0.00    +0.128 C 
ATOM     12  C   UNL     1      16.978   6.983  20.068  0.00  0.00    +0.305 C 
ATOM     13  C   UNL     1      13.618   7.857  18.803  0.00  0.00    +0.127 C 
ATOM     18  C   UNL     1      11.910   9.029  20.163  0.00  0.00    +0.247 C 
ENDROOT
BRANCH  18  19
ATOM     19  C   UNL     1      11.588   9.938  21.270  0.00  0.00    +0.037 A 
ATOM     20  C   UNL     1      11.150   9.423  22.491  0.00  0.00    +0.013 A 
ATOM     21  C   UNL     1      11.718  11.316  21.101  0.00  0.00    +0.013 A 
ATOM     22  C   UNL     1      10.843  10.287  23.542  0.00  0.00    +0.004 A 
ATOM     23  C   UNL     1      11.411  12.180  22.152  0.00  0.00    +0.004 A 
ATOM     24  C   UNL     1      10.974  11.665  23.373  0.00  0.00    -0.050 A 
ATOM     25  C   UNL     1      10.645  12.588  24.497  0.00  0.00    +0.044 C 
ENDBRANCH  18  19
BRANCH   4   9
ATOM      1  O   UNL     1      21.159   8.140  23.198  0.00  0.00    -0.380 OA
ATOM      9  C   UNL     1      19.026   7.855  21.287  0.00  0.00    +0.082 C 
ATOM     14  C   UNL     1      19.421   6.734  22.250  0.00  0.00    +0.050 C 
ATOM     15  C   UNL     1      19.445   9.212  21.852  0.00  0.00    +0.050 C 
ATOM     16  C   UNL     1      20.887   6.854  22.644  0.00  0.00    +0.161 C 
ATOM     17  C   UNL     1      20.910   9.193  22.266  0.00  0.00    +0.161 C 
ENDBRANCH   4   9
TORSDOF 2
ENDMDL
MODEL 3
REMARK VINA RESULT:      -7.0      1.785      7.625
REMARK  Name = 75368494
REMARK  3 active torsions:
REMARK  status: ('A' for Active; 'I' for Inactive)
REMARK    1  A    between atoms: N_4  and  C_9
REMARK    2  A    between atoms: C_18  and  C_19
REMARK    3  A    between atoms: C_24  and  C_25
REMARK                            x       y       z     vdW  Elec       q    Type
REMARK                         _______ _______ _______ _____ _____    ______ ____
ROOT
ATOM      2  O   UNL     1     -10.493  -9.695  18.858  0.00  0.00    -0.252 OA
ATOM      3  O   UNL     1      -3.918 -12.060  18.845  0.00  0.00    -0.270 OA
ATOM      4  N   UNL     1      -9.753  -9.191  16.676  0.00  0.00    -0.280 N 
ATOM      5  N   UNL     1      -8.384 -10.333  18.044  0.00  0.00    -0.278 N 
ATOM      6  N   UNL     1      -5.626 -10.677  18.048  0.00  0.00    -0.294 N 
ATOM      7  C   UNL     1      -7.685 -10.299  16.769  0.00  0.00    +0.112 C 
ATOM      8  C   UNL     1      -8.521  -9.345  15.922  0.00  0.00    +0.133 C 
ATOM     10  C   UNL     1      -6.236  -9.869  16.975  0.00  0.00    +0.132 C 
ATOM     11  C   UNL     1      -7.793 -11.029  19.173  0.00  0.00    +0.128 C 
ATOM     12  C   UNL     1      -9.651  -9.738  17.971  0.00  0.00    +0.305 C 
ATOM     13  C   UNL     1      -6.331 -10.616  19.336  0.00  0.00    +0.127 C 
ATOM     18  C   UNL     1      -4.450 -11.422  17.937  0.00  0.00    +0.247 C 
ENDROOT
BRANCH  18  19
ATOM     19  C   UNL     1      -3.782 -11.469  16.631  0.00  0.00    +0.037 A 
ATOM     20  C   UNL     1      -4.234 -12.351  15.648  0.00  0.00    +0.013 A 
ATOM     21  C   UNL     1      -2.695 -10.635  16.373  0.00  0.00    +0.013 A 
ATOM     22  C   UNL     1      -3.598 -12.397  14.407  0.00  0.00    +0.004 A 
ATOM     23  C   UNL     1      -2.059 -10.680  15.131  0.00  0.00    +0.004 A 
ATOM     24  C   UNL     1      -2.511 -11.561  14.149  0.00  0.00    -0.050 A 
ATOM     25  C   UNL     1      -1.832 -11.611  12.822  0.00  0.00    +0.044 C 
ENDBRANCH  18  19
BRANCH   4   9
ATOM      1  O   UNL     1     -11.863  -6.282  14.541  0.00  0.00    -0.380 OA
ATOM      9  C   UNL     1     -10.873  -8.442  16.164  0.00  0.00    +0.082 C 
ATOM     14  C   UNL     1     -10.935  -8.523  14.639  0.00  0.00    +0.050 C 
ATOM     15  C   UNL     1     -10.813  -6.982  16.616  0.00  0.00    +0.050 C 
ATOM     16  C   UNL     1     -12.039  -7.625  14.096  0.00  0.00    +0.161 C 
ATOM     17  C   UNL     1     -11.925  -6.172  15.964  0.00  0.00    +0.161 C 
ENDBRANCH   4   9
TORSDOF 2
ENDMDL
MODEL 4
REMARK VINA RESULT:      -6.8      7.817     11.861
REMARK  Name = 75368494
REMARK  3 active torsions:
REMARK  status: ('A' for Active; 'I' for Inactive)
REMARK    1  A    between atoms: N_4  and  C_9
REMARK    2  A    between atoms: C_18  and  C_19
REMARK    3  A    between atoms: C_24  and  C_25
REMARK                            x       y       z     vdW  Elec       q    Type
REMARK                         _______ _______ _______ _____ _____    ______ ____
ROOT
ATOM      2  O   UNL     1     -10.246  -6.683   5.703  0.00  0.00    -0.252 OA
ATOM      3  O   UNL     1      -4.816 -11.053   6.185  0.00  0.00    -0.270 OA
ATOM      4  N   UNL     1      -9.672  -6.565   7.987  0.00  0.00    -0.280 N 
ATOM      5  N   UNL     1      -8.385  -7.792   6.613  0.00  0.00    -0.278 N 
ATOM      6  N   UNL     1      -6.629  -9.891   7.093  0.00  0.00    -0.294 N 
ATOM      7  C   UNL     1      -7.699  -7.834   7.894  0.00  0.00    +0.112 C 
ATOM      8  C   UNL     1      -8.688  -7.184   8.857  0.00  0.00    +0.133 C 
ATOM     10  C   UNL     1      -7.320  -9.270   8.240  0.00  0.00    +0.132 C 
ATOM     11  C   UNL     1      -7.810  -8.466   5.462  0.00  0.00    +0.128 C 
ATOM     12  C   UNL     1      -9.523  -6.974   6.647  0.00  0.00    +0.305 C 
ATOM     13  C   UNL     1      -7.398  -9.888   5.841  0.00  0.00    +0.127 C 
ATOM     18  C   UNL     1      -5.372 -10.497   7.131  0.00  0.00    +0.247 C 
ENDROOT
BRANCH  18  19
ATOM     19  C   UNL     1      -4.628 -10.468   8.397  0.00  0.00    +0.037 A 
ATOM     20  C   UNL     1      -4.426 -11.648   9.115  0.00  0.00    +0.013 A 
ATOM     21  C   UNL     1      -4.125  -9.262   8.883  0.00  0.00    +0.013 A 
ATOM     22  C   UNL     1      -3.720 -11.620  10.317  0.00  0.00    +0.004 A 
ATOM     23  C   UNL     1      -3.419  -9.234  10.085  0.00  0.00    +0.004 A 
ATOM     24  C   UNL     1      -3.216 -10.412  10.802  0.00  0.00    -0.050 A 
ATOM     25  C   UNL     1      -2.462 -10.383  12.089  0.00  0.00    +0.044 C 
ENDBRANCH  18  19
BRANCH   4   9
ATOM      1  O   UNL     1     -11.859  -4.236  10.684  0.00  0.00    -0.380 OA
ATOM      9  C   UNL     1     -10.739  -5.744   8.504  0.00  0.00    +0.082 C 
ATOM     14  C   UNL     1     -10.222  -4.359   8.894  0.00  0.00    +0.050 C 
ATOM     15  C   UNL     1     -11.421  -6.412   9.698  0.00  0.00    +0.050 C 
ATOM     16  C   UNL     1     -11.323  -3.542   9.559  0.00  0.00    +0.161 C 
ATOM     17  C   UNL     1     -12.455  -5.480  10.316  0.00  0.00    +0.161 C 
ENDBRANCH   4   9
TORSDOF 2
ENDMDL
MODEL 5
REMARK VINA RESULT:      -6.8      3.272      8.046
REMARK  Name = 75368494
REMARK  3 active torsions:
REMARK  status: ('A' for Active; 'I' for Inactive)
REMARK    1  A    between atoms: N_4  and  C_9
REMARK    2  A    between atoms: C_18  and  C_19
REMARK    3  A    between atoms: C_24  and  C_25
REMARK                            x       y       z     vdW  Elec       q    Type
REMARK                         _______ _______ _______ _____ _____    ______ ____
ROOT
ATOM      2  O   UNL     1      -4.177 -11.926  17.846  0.00  0.00    -0.252 OA
ATOM      3  O   UNL     1      -1.054 -10.388  11.788  0.00  0.00    -0.270 OA
ATOM      4  N   UNL     1      -5.993 -11.676  16.363  0.00  0.00    -0.280 N 
ATOM      5  N   UNL     1      -3.904 -11.538  15.545  0.00  0.00    -0.278 N 
ATOM      6  N   UNL     1      -2.884 -10.364  13.242  0.00  0.00    -0.294 N 
ATOM      7  C   UNL     1      -4.763 -11.463  14.374  0.00  0.00    +0.112 C 
ATOM      8  C   UNL     1      -6.166 -11.340  14.960  0.00  0.00    +0.133 C 
ATOM     10  C   UNL     1      -4.338 -10.298  13.485  0.00  0.00    +0.132 C 
ATOM     11  C   UNL     1      -2.461 -11.509  15.386  0.00  0.00    +0.128 C 
ATOM     12  C   UNL     1      -4.633 -11.741  16.725  0.00  0.00    +0.305 C 
ATOM     13  C   UNL     1      -2.060 -10.363  14.458  0.00  0.00    +0.127 C 
ATOM     18  C   UNL     1      -2.268 -10.377  11.989  0.00  0.00    +0.247 C 
ENDROOT
BRANCH  18  19
ATOM     19  C   UNL     1      -3.125 -10.392  10.797  0.00  0.00    +0.037 A 
ATOM     20  C   UNL     1      -3.607 -11.603  10.299  0.00  0.00    +0.013 A 
ATOM     21  C   UNL     1      -3.456  -9.196  10.161  0.00  0.00    +0.013 A 
ATOM     22  C   UNL     1      -4.421 -11.617   9.166  0.00  0.00    +0.004 A 
ATOM     23  C   UNL     1      -4.270  -9.209   9.028  0.00  0.00    +0.004 A 
ATOM     24  C   UNL     1      -4.752 -10.420   8.531  0.00  0.00    -0.050 A 
ATOM     25  C   UNL     1      -5.622 -10.435   7.320  0.00  0.00    +0.044 C 
ENDBRANCH  18  19
BRANCH   4   9
ATOM      1  O   UNL     1      -8.095 -12.051  19.956  0.00  0.00    -0.380 OA
ATOM      9  C   UNL     1      -7.112 -11.785  17.265  0.00  0.00    +0.082 C 
ATOM     14  C   UNL     1      -7.137 -10.615  18.249  0.00  0.00    +0.050 C 
ATOM     15  C   UNL     1      -7.084 -13.114  18.021  0.00  0.00    +0.050 C 
ATOM     16  C   UNL     1      -8.241 -10.802  19.281  0.00  0.00    +0.161 C 
ATOM     17  C   UNL     1      -8.192 -13.161  19.064  0.00  0.00    +0.161 C 
ENDBRANCH   4   9
TORSDOF 2
ENDMDL
MODEL 6
REMARK VINA RESULT:      -6.5     22.105     24.707
REMARK  Name = 75368494
REMARK  3 active torsions:
REMARK  status: ('A' for Active; 'I' for Inactive)
REMARK    1  A    between atoms: N_4  and  C_9
REMARK    2  A    between atoms: C_18  and  C_19
REMARK    3  A    between atoms: C_24  and  C_25
REMARK                            x       y       z     vdW  Elec       q    Type
REMARK                         _______ _______ _______ _____ _____    ______ ____
ROOT
ATOM      2  O   UNL     1     -17.251   4.882  31.725  0.00  0.00    -0.252 OA
ATOM      3  O   UNL     1     -14.343  10.310  35.027  0.00  0.00    -0.270 OA
ATOM      4  N   UNL     1     -15.075   4.108  32.201  0.00  0.00    -0.280 N 
ATOM      5  N   UNL     1     -15.697   6.125  32.974  0.00  0.00    -0.278 N 
ATOM      6  N   UNL     1     -14.226   8.347  33.764  0.00  0.00    -0.294 N 
ATOM      7  C   UNL     1     -14.374   5.908  33.536  0.00  0.00    +0.112 C 
ATOM      8  C   UNL     1     -13.883   4.646  32.834  0.00  0.00    +0.133 C 
ATOM     10  C   UNL     1     -13.502   7.141  33.318  0.00  0.00    +0.132 C 
ATOM     11  C   UNL     1     -16.428   7.338  33.293  0.00  0.00    +0.128 C 
ATOM     12  C   UNL     1     -16.149   5.020  32.239  0.00  0.00    +0.305 C 
ATOM     13  C   UNL     1     -15.525   8.557  33.110  0.00  0.00    +0.127 C 
ATOM     18  C   UNL     1     -13.757   9.282  34.688  0.00  0.00    +0.247 C 
ENDROOT
BRANCH  18  19
ATOM     19  C   UNL     1     -12.461   9.030  35.331  0.00  0.00    +0.037 A 
ATOM     20  C   UNL     1     -11.318   9.690  34.879  0.00  0.00    +0.013 A 
ATOM     21  C   UNL     1     -12.373   8.130  36.392  0.00  0.00    +0.013 A 
ATOM     22  C   UNL     1     -10.087   9.449  35.489  0.00  0.00    +0.004 A 
ATOM     23  C   UNL     1     -11.142   7.889  37.003  0.00  0.00    +0.004 A 
ATOM     24  C   UNL     1      -9.999   8.549  36.552  0.00  0.00    -0.050 A 
ATOM     25  C   UNL     1      -8.683   8.292  37.203  0.00  0.00    +0.044 C 
ENDBRANCH  18  19
BRANCH   4   9
ATOM      1  O   UNL     1     -13.707   0.392  30.862  0.00  0.00    -0.380 OA
ATOM      9  C   UNL     1     -15.069   2.842  31.512  0.00  0.00    +0.082 C 
ATOM     14  C   UNL     1     -14.951   1.682  32.501  0.00  0.00    +0.050 C 
ATOM     15  C   UNL     1     -13.940   2.779  30.482  0.00  0.00    +0.050 C 
ATOM     16  C   UNL     1     -14.813   0.357  31.763  0.00  0.00    +0.161 C 
ATOM     17  C   UNL     1     -13.861   1.393  29.856  0.00  0.00    +0.161 C 
ENDBRANCH   4   9
TORSDOF 2
ENDMDL
MODEL 7
REMARK VINA RESULT:      -6.4      6.614      8.740
REMARK  Name = 75368494
REMARK  3 active torsions:
REMARK  status: ('A' for Active; 'I' for Inactive)
REMARK    1  A    between atoms: N_4  and  C_9
REMARK    2  A    between atoms: C_18  and  C_19
REMARK    3  A    between atoms: C_24  and  C_25
REMARK                            x       y       z     vdW  Elec       q    Type
REMARK                         _______ _______ _______ _____ _____    ______ ____
ROOT
ATOM      2  O   UNL     1      -4.972 -10.942   7.780  0.00  0.00    -0.252 OA
ATOM      3  O   UNL     1     -10.191  -6.632   6.048  0.00  0.00    -0.270 OA
ATOM      4  N   UNL     1      -5.462  -9.859   9.816  0.00  0.00    -0.280 N 
ATOM      5  N   UNL     1      -6.748  -9.424   8.025  0.00  0.00    -0.278 N 
ATOM      6  N   UNL     1      -8.395  -7.275   7.398  0.00  0.00    -0.294 N 
ATOM      7  C   UNL     1      -7.382  -8.704   9.117  0.00  0.00    +0.112 C 
ATOM      8  C   UNL     1      -6.385  -8.832  10.265  0.00  0.00    +0.133 C 
ATOM     10  C   UNL     1      -7.687  -7.270   8.693  0.00  0.00    +0.132 C 
ATOM     11  C   UNL     1      -7.338  -9.392   6.698  0.00  0.00    +0.128 C 
ATOM     12  C   UNL     1      -5.645 -10.175   8.455  0.00  0.00    +0.305 C 
ATOM     13  C   UNL     1      -7.675  -7.953   6.311  0.00  0.00    +0.127 C 
ATOM     18  C   UNL     1      -9.623  -6.664   7.139  0.00  0.00    +0.247 C 
ENDROOT
BRANCH  18  19
ATOM     19  C   UNL     1     -10.318  -6.009   8.254  0.00  0.00    +0.037 A 
ATOM     20  C   UNL     1     -11.136  -6.757   9.102  0.00  0.00    +0.013 A 
ATOM     21  C   UNL     1     -10.163  -4.639   8.464  0.00  0.00    +0.013 A 
ATOM     22  C   UNL     1     -11.797  -6.134  10.160  0.00  0.00    +0.004 A 
ATOM     23  C   UNL     1     -10.824  -4.017   9.523  0.00  0.00    +0.004 A 
ATOM     24  C   UNL     1     -11.641  -4.764  10.371  0.00  0.00    -0.050 A 
ATOM     25  C   UNL     1     -12.348  -4.099  11.504  0.00  0.00    +0.044 C 
ENDBRANCH  18  19
BRANCH   4   9
ATOM      1  O   UNL     1      -2.532  -9.921  12.798  0.00  0.00    -0.380 OA
ATOM      9  C   UNL     1      -4.412 -10.365  10.664  0.00  0.00    +0.082 C 
ATOM     14  C   UNL     1      -4.832 -10.331  12.134  0.00  0.00    +0.050 C 
ATOM     15  C   UNL     1      -3.114  -9.581  10.464  0.00  0.00    +0.050 C 
ATOM     16  C   UNL     1      -3.674 -10.742  13.035  0.00  0.00    +0.161 C 
ATOM     17  C   UNL     1      -2.053 -10.036  11.457  0.00  0.00    +0.161 C 
ENDBRANCH   4   9
TORSDOF 2
ENDMDL
MODEL 8
REMARK VINA RESULT:      -6.3     25.606     29.305
REMARK  Name = 75368494
REMARK  3 active torsions:
REMARK  status: ('A' for Active; 'I' for Inactive)
REMARK    1  A    between atoms: N_4  and  C_9
REMARK    2  A    between atoms: C_18  and  C_19
REMARK    3  A    between atoms: C_24  and  C_25
REMARK                            x       y       z     vdW  Elec       q    Type
REMARK                         _______ _______ _______ _____ _____    ______ ____
ROOT
ATOM      2  O   UNL     1      14.653   9.160   2.209  0.00  0.00    -0.252 OA
ATOM      3  O   UNL     1       8.423   6.958   4.479  0.00  0.00    -0.270 OA
ATOM      4  N   UNL     1      15.100   8.503   4.429  0.00  0.00    -0.280 N 
ATOM      5  N   UNL     1      13.042   8.158   3.595  0.00  0.00    -0.278 N 
ATOM      6  N   UNL     1      10.575   7.802   4.823  0.00  0.00    -0.294 N 
ATOM      7  C   UNL     1      13.013   7.542   4.912  0.00  0.00    +0.112 C 
ATOM      8  C   UNL     1      14.334   7.971   5.542  0.00  0.00    +0.133 C 
ATOM     10  C   UNL     1      11.768   7.987   5.672  0.00  0.00    +0.132 C 
ATOM     11  C   UNL     1      11.867   8.099   2.743  0.00  0.00    +0.128 C 
ATOM     12  C   UNL     1      14.309   8.666   3.274  0.00  0.00    +0.305 C 
ATOM     13  C   UNL     1      10.626   8.506   3.535  0.00  0.00    +0.127 C 
ATOM     18  C   UNL     1       9.434   7.075   5.170  0.00  0.00    +0.247 C 
ENDROOT
BRANCH  18  19
ATOM     19  C   UNL     1       9.426   6.374   6.460  0.00  0.00    +0.037 A 
ATOM     20  C   UNL     1       9.047   7.051   7.620  0.00  0.00    +0.013 A 
ATOM     21  C   UNL     1       9.799   5.032   6.526  0.00  0.00    +0.013 A 
ATOM     22  C   UNL     1       9.042   6.384   8.845  0.00  0.00    +0.004 A 
ATOM     23  C   UNL     1       9.792   4.365   7.751  0.00  0.00    +0.004 A 
ATOM     24  C   UNL     1       9.414   5.041   8.911  0.00  0.00    -0.050 A 
ATOM     25  C   UNL     1       9.406   4.329  10.221  0.00  0.00    +0.044 C 
ENDBRANCH  18  19
BRANCH   4   9
ATOM      1  O   UNL     1      19.137   8.373   5.506  0.00  0.00    -0.380 OA
ATOM      9  C   UNL     1      16.470   8.926   4.578  0.00  0.00    +0.082 C 
ATOM     14  C   UNL     1      17.417   7.981   3.837  0.00  0.00    +0.050 C 
ATOM     15  C   UNL     1      16.862   9.022   6.053  0.00  0.00    +0.050 C 
ATOM     16  C   UNL     1      18.869   8.355   4.105  0.00  0.00    +0.161 C 
ATOM     17  C   UNL     1      18.344   9.340   6.195  0.00  0.00    +0.161 C 
ENDBRANCH   4   9
TORSDOF 2
ENDMDL
MODEL 9
REMARK VINA RESULT:      -6.3      5.011      8.289
REMARK  Name = 75368494
REMARK  3 active torsions:
REMARK  status: ('A' for Active; 'I' for Inactive)
REMARK    1  A    between atoms: N_4  and  C_9
REMARK    2  A    between atoms: C_18  and  C_19
REMARK    3  A    between atoms: C_24  and  C_25
REMARK                            x       y       z     vdW  Elec       q    Type
REMARK                         _______ _______ _______ _____ _____    ______ ____
ROOT
ATOM      2  O   UNL     1      -3.987  -9.173   8.867  0.00  0.00    -0.252 OA
ATOM      3  O   UNL     1      -1.509 -11.702  14.890  0.00  0.00    -0.270 OA
ATOM      4  N   UNL     1      -5.938  -9.468  10.160  0.00  0.00    -0.280 N 
ATOM      5  N   UNL     1      -3.941  -9.869  11.111  0.00  0.00    -0.278 N 
ATOM      6  N   UNL     1      -3.203 -11.400  13.310  0.00  0.00    -0.294 N 
ATOM      7  C   UNL     1      -4.900 -10.025  12.192  0.00  0.00    +0.112 C 
ATOM      8  C   UNL     1      -6.253  -9.964  11.488  0.00  0.00    +0.133 C 
ATOM     10  C   UNL     1      -4.632 -11.323  12.949  0.00  0.00    +0.132 C 
ATOM     11  C   UNL     1      -2.522 -10.030  11.375  0.00  0.00    +0.128 C 
ATOM     12  C   UNL     1      -4.550  -9.463   9.915  0.00  0.00    +0.305 C 
ATOM     13  C   UNL     1      -2.279 -11.311  12.171  0.00  0.00    +0.127 C 
ATOM     18  C   UNL     1      -2.698 -11.593  14.597  0.00  0.00    +0.247 C 
ENDROOT
BRANCH  18  19
ATOM     19  C   UNL     1      -3.653 -11.663  15.711  0.00  0.00    +0.037 A 
ATOM     20  C   UNL     1      -4.286 -12.870  16.012  0.00  0.00    +0.013 A 
ATOM     21  C   UNL     1      -3.927 -10.524  16.467  0.00  0.00    +0.013 A 
ATOM     22  C   UNL     1      -5.193 -12.935  17.069  0.00  0.00    +0.004 A 
ATOM     23  C   UNL     1      -4.833 -10.590  17.525  0.00  0.00    +0.004 A 
ATOM     24  C   UNL     1      -5.466 -11.796  17.826  0.00  0.00    -0.050 A 
ATOM     25  C   UNL     1      -6.436 -11.867  18.957  0.00  0.00    +0.044 C 
ENDBRANCH  18  19
BRANCH   4   9
ATOM      1  O   UNL     1      -9.441  -7.838   8.566  0.00  0.00    -0.380 OA
ATOM      9  C   UNL     1      -6.964  -9.160   9.197  0.00  0.00    +0.082 C 
ATOM     14  C   UNL     1      -7.051  -7.653   8.954  0.00  0.00    +0.050 C 
ATOM     15  C   UNL     1      -8.322  -9.705   9.642  0.00  0.00    +0.050 C 
ATOM     16  C   UNL     1      -8.221  -7.322   8.036  0.00  0.00    +0.161 C 
ATOM     17  C   UNL     1      -9.419  -9.260   8.685  0.00  0.00    +0.161 C 
ENDBRANCH   4   9
TORSDOF 2
ENDMDL
MODEL 10
REMARK VINA RESULT:      -6.1     21.871     24.315
REMARK  Name = 75368494
REMARK  3 active torsions:
REMARK  status: ('A' for Active; 'I' for Inactive)
REMARK    1  A    between atoms: N_4  and  C_9
REMARK    2  A    between atoms: C_18  and  C_19
REMARK    3  A    between atoms: C_24  and  C_25
REMARK                            x       y       z     vdW  Elec       q    Type
REMARK                         _______ _______ _______ _____ _____    ______ ____
ROOT
ATOM      2  O   UNL     1      -1.019  13.741   9.669  0.00  0.00    -0.252 OA
ATOM      3  O   UNL     1      -1.040   9.286   4.286  0.00  0.00    -0.270 OA
ATOM      4  N   UNL     1      -3.254  12.991   9.611  0.00  0.00    -0.280 N 
ATOM      5  N   UNL     1      -1.773  12.082   8.186  0.00  0.00    -0.278 N 
ATOM      6  N   UNL     1      -2.096  10.756   5.765  0.00  0.00    -0.294 N 
ATOM      7  C   UNL     1      -2.997  11.327   7.974  0.00  0.00    +0.112 C 
ATOM      8  C   UNL     1      -4.040  12.091   8.784  0.00  0.00    +0.133 C 
ATOM     10  C   UNL     1      -3.299  11.222   6.482  0.00  0.00    +0.132 C 
ATOM     11  C   UNL     1      -0.575  11.740   7.439  0.00  0.00    +0.128 C 
ATOM     12  C   UNL     1      -1.902  13.025   9.214  0.00  0.00    +0.305 C 
ATOM     13  C   UNL     1      -0.906  11.597   5.955  0.00  0.00    +0.127 C 
ATOM     18  C   UNL     1      -2.032   9.647   4.918  0.00  0.00    +0.247 C 
ENDROOT
BRANCH  18  19
ATOM     19  C   UNL     1      -3.237   8.823   4.765  0.00  0.00    +0.037 A 
ATOM     20  C   UNL     1      -3.292   7.554   5.342  0.00  0.00    +0.013 A 
ATOM     21  C   UNL     1      -4.326   9.309   4.042  0.00  0.00    +0.013 A 
ATOM     22  C   UNL     1      -4.437   6.771   5.194  0.00  0.00    +0.004 A 
ATOM     23  C   UNL     1      -5.472   8.526   3.895  0.00  0.00    +0.004 A 
ATOM     24  C   UNL     1      -5.527   7.257   4.472  0.00  0.00    -0.050 A 
ATOM     25  C   UNL     1      -6.751   6.419   4.316  0.00  0.00    +0.044 C 
ENDBRANCH  18  19
BRANCH   4   9
ATOM      1  O   UNL     1      -5.780  14.149  12.734  0.00  0.00    -0.380 OA
ATOM      9  C   UNL     1      -3.859  13.829  10.615  0.00  0.00    +0.082 C 
ATOM     14  C   UNL     1      -3.642  13.250  12.013  0.00  0.00    +0.050 C 
ATOM     15  C   UNL     1      -5.352  14.024  10.346  0.00  0.00    +0.050 C 
ATOM     16  C   UNL     1      -4.393  14.067  13.057  0.00  0.00    +0.161 C 
ATOM     17  C   UNL     1      -6.006  14.799  11.483  0.00  0.00    +0.161 C 
ENDBRANCH   4   9
TORSDOF 2
ENDMDL
