MODEL 1
REMARK VINA RESULT:      -7.6      0.000      0.000
REMARK  Name = 38030601
REMARK  11 active torsions:
REMARK  status: ('A' for Active; 'I' for Inactive)
REMARK    1  A    between atoms: N_3  and  C_12
REMARK    2  A    between atoms: C_7  and  C_11
REMARK    3  A    between atoms: C_8  and  C_12
REMARK    4  A    between atoms: C_10  and  C_15
REMARK    5  A    between atoms: C_11  and  C_16
REMARK    6  A    between atoms: C_11  and  C_17
REMARK    7  A    between atoms: C_14  and  C_20
REMARK    8  A    between atoms: C_15  and  C_23
REMARK    9  A    between atoms: C_24  and  C_26
REMARK   10  A    between atoms: C_25  and  C_27
REMARK   11  A    between atoms: C_32  and  C_33
REMARK                            x       y       z     vdW  Elec       q    Type
REMARK                         _______ _______ _______ _____ _____    ______ ____
ROOT
ATOM      7  C   UNL     1      -5.452 -10.682  10.927  0.00  0.00    +0.000 C 
ATOM      8  C   UNL     1      -4.821 -10.409   9.542  0.00  0.00    +0.029 C 
ATOM      9  C   UNL     1      -4.399 -11.234  11.898  0.00  0.00    +0.012 C 
ATOM     10  C   UNL     1      -3.175 -10.306  12.065  0.00  0.00    +0.024 C 
ATOM     13  C   UNL     1      -3.480  -9.727   9.640  0.00  0.00    -0.023 C 
ATOM     14  C   UNL     1      -2.736  -9.660  10.760  0.00  0.00    -0.073 C 
ATOM     20  C   UNL     1      -1.450  -8.879  10.770  0.00  0.00    +0.039 C 
ENDROOT
BRANCH   7  11
ATOM     11  C   UNL     1      -6.125  -9.424  11.493  0.00  0.00    -0.013 C 
ATOM     16  C   UNL     1      -7.237  -8.951  10.562  0.00  0.00    +0.007 C 
ATOM     17  C   UNL     1      -6.669  -9.697  12.892  0.00  0.00    +0.007 C 
ENDBRANCH   7  11
BRANCH   8  12
ATOM     12  C   UNL     1      -4.672 -11.695   8.724  0.00  0.00    +0.092 C 
BRANCH  12   3
ATOM      2  O   UNL     1      -6.694 -11.736   2.789  0.00  0.00    -0.276 OA
ATOM      3  N   UNL     1      -4.578 -11.392   7.297  0.00  0.00    -0.299 NA
ATOM      4  N   UNL     1      -5.137 -11.770   4.512  0.00  0.00    -0.299 N 
ATOM     18  C   UNL     1      -5.902 -11.062   6.750  0.00  0.00    +0.103 C 
ATOM     19  C   UNL     1      -3.987 -12.522   6.565  0.00  0.00    +0.103 C 
ATOM     21  C   UNL     1      -5.803 -10.709   5.266  0.00  0.00    +0.123 C 
ATOM     22  C   UNL     1      -3.855 -12.203   5.075  0.00  0.00    +0.123 C 
ATOM     24  C   UNL     1      -5.669 -12.198   3.296  0.00  0.00    +0.213 C 
ATOM     26  C   UNL     1      -4.925 -13.299   2.584  0.00  0.00    +0.109 C 
ENDBRANCH  12   3
ENDBRANCH   8  12
BRANCH  10  15
ATOM     15  C   UNL     1      -2.052 -11.096  12.748  0.00  0.00    +0.105 C 
BRANCH  15  23
ATOM      1  O   UNL     1      -3.375 -11.027  14.797  0.00  0.00    -0.420 OA
ATOM      5  N   UNL     1      -1.169 -10.843  15.124  0.00  0.00    -0.112 NA
ATOM      6  N   UNL     1      -1.790 -10.789  16.358  0.00  0.00    -0.107 NA
ATOM     23  C   UNL     1      -2.132 -10.983  14.243  0.00  0.00    +0.218 A 
ATOM     25  C   UNL     1      -3.077 -10.900  16.119  0.00  0.00    +0.248 A 
BRANCH  25  27
ATOM     27  C   UNL     1      -4.193 -10.907  17.018  0.00  0.00    +0.038 A 
ATOM     28  C   UNL     1      -4.082 -11.524  18.264  0.00  0.00    +0.013 A 
ATOM     29  C   UNL     1      -5.392 -10.298  16.646  0.00  0.00    +0.013 A 
ATOM     30  C   UNL     1      -5.168 -11.530  19.139  0.00  0.00    +0.004 A 
ATOM     31  C   UNL     1      -6.479 -10.305  17.521  0.00  0.00    +0.004 A 
ATOM     32  C   UNL     1      -6.366 -10.921  18.767  0.00  0.00    -0.050 A 
ATOM     33  C   UNL     1      -7.528 -10.929  19.702  0.00  0.00    +0.044 C 
ENDBRANCH  25  27
ENDBRANCH  15  23
ENDBRANCH  10  15
TORSDOF 6
ENDMDL
MODEL 2
REMARK VINA RESULT:      -7.3      3.293      9.414
REMARK  Name = 38030601
REMARK  11 active torsions:
REMARK  status: ('A' for Active; 'I' for Inactive)
REMARK    1  A    between atoms: N_3  and  C_12
REMARK    2  A    between atoms: C_7  and  C_11
REMARK    3  A    between atoms: C_8  and  C_12
REMARK    4  A    between atoms: C_10  and  C_15
REMARK    5  A    between atoms: C_11  and  C_16
REMARK    6  A    between atoms: C_11  and  C_17
REMARK    7  A    between atoms: C_14  and  C_20
REMARK    8  A    between atoms: C_15  and  C_23
REMARK    9  A    between atoms: C_24  and  C_26
REMARK   10  A    between atoms: C_25  and  C_27
REMARK   11  A    between atoms: C_32  and  C_33
REMARK                            x       y       z     vdW  Elec       q    Type
REMARK                         _______ _______ _______ _____ _____    ______ ____
ROOT
ATOM      7  C   UNL     1      -3.994 -11.917  12.049  0.00  0.00    +0.000 C 
ATOM      8  C   UNL     1      -3.139 -11.373  13.218  0.00  0.00    +0.029 C 
ATOM      9  C   UNL     1      -4.297 -10.801  11.039  0.00  0.00    +0.012 C 
ATOM     10  C   UNL     1      -3.028 -10.124  10.477  0.00  0.00    +0.024 C 
ATOM     13  C   UNL     1      -2.019 -10.479  12.749  0.00  0.00    -0.023 C 
ATOM     14  C   UNL     1      -1.946  -9.922  11.526  0.00  0.00    -0.073 C 
ATOM     20  C   UNL     1      -0.739  -9.114  11.133  0.00  0.00    +0.039 C 
ENDROOT
BRANCH   7  11
ATOM     11  C   UNL     1      -3.314 -13.113  11.368  0.00  0.00    -0.013 C 
ATOM     16  C   UNL     1      -2.896 -14.149  12.405  0.00  0.00    +0.007 C 
ATOM     17  C   UNL     1      -4.244 -13.730  10.328  0.00  0.00    +0.007 C 
ENDBRANCH   7  11
BRANCH   8  12
ATOM     12  C   UNL     1      -3.993 -10.617  14.239  0.00  0.00    +0.092 C 
BRANCH  12   3
ATOM      2  O   UNL     1      -7.392 -12.885  18.995  0.00  0.00    -0.276 OA
ATOM      3  N   UNL     1      -4.210 -11.431  15.434  0.00  0.00    -0.299 NA
ATOM      4  N   UNL     1      -5.480 -12.148  17.901  0.00  0.00    -0.299 N 
ATOM     18  C   UNL     1      -5.570 -11.990  15.439  0.00  0.00    +0.103 C 
ATOM     19  C   UNL     1      -3.978 -10.637  16.650  0.00  0.00    +0.103 C 
ATOM     21  C   UNL     1      -5.789 -12.871  16.668  0.00  0.00    +0.123 C 
ATOM     22  C   UNL     1      -4.172 -11.488  17.907  0.00  0.00    +0.123 C 
ATOM     24  C   UNL     1      -6.348 -12.228  18.990  0.00  0.00    +0.213 C 
ATOM     26  C   UNL     1      -5.959 -11.449  20.220  0.00  0.00    +0.109 C 
ENDBRANCH  12   3
ENDBRANCH   8  12
BRANCH  10  15
ATOM     15  C   UNL     1      -3.436  -8.819   9.781  0.00  0.00    +0.105 C 
BRANCH  15  23
ATOM      1  O   UNL     1      -5.731  -8.092   9.384  0.00  0.00    -0.420 OA
ATOM      5  N   UNL     1      -5.095  -9.836   8.136  0.00  0.00    -0.112 NA
ATOM      6  N   UNL     1      -6.404  -9.533   7.810  0.00  0.00    -0.107 NA
ATOM     23  C   UNL     1      -4.743  -8.970   9.057  0.00  0.00    +0.218 A 
ATOM     25  C   UNL     1      -6.734  -8.509   8.564  0.00  0.00    +0.248 A 
BRANCH  25  27
ATOM     27  C   UNL     1      -7.964  -7.778   8.653  0.00  0.00    +0.038 A 
ATOM     28  C   UNL     1      -8.063  -6.508   8.083  0.00  0.00    +0.013 A 
ATOM     29  C   UNL     1      -9.061  -8.335   9.311  0.00  0.00    +0.013 A 
ATOM     30  C   UNL     1      -9.260  -5.797   8.169  0.00  0.00    +0.004 A 
ATOM     31  C   UNL     1     -10.257  -7.623   9.397  0.00  0.00    +0.004 A 
ATOM     32  C   UNL     1     -10.356  -6.354   8.827  0.00  0.00    -0.050 A 
ATOM     33  C   UNL     1     -11.635  -5.592   8.920  0.00  0.00    +0.044 C 
ENDBRANCH  25  27
ENDBRANCH  15  23
ENDBRANCH  10  15
TORSDOF 6
ENDMDL
MODEL 3
REMARK VINA RESULT:      -7.2     27.909     31.055
REMARK  Name = 38030601
REMARK  11 active torsions:
REMARK  status: ('A' for Active; 'I' for Inactive)
REMARK    1  A    between atoms: N_3  and  C_12
REMARK    2  A    between atoms: C_7  and  C_11
REMARK    3  A    between atoms: C_8  and  C_12
REMARK    4  A    between atoms: C_10  and  C_15
REMARK    5  A    between atoms: C_11  and  C_16
REMARK    6  A    between atoms: C_11  and  C_17
REMARK    7  A    between atoms: C_14  and  C_20
REMARK    8  A    between atoms: C_15  and  C_23
REMARK    9  A    between atoms: C_24  and  C_26
REMARK   10  A    between atoms: C_25  and  C_27
REMARK   11  A    between atoms: C_32  and  C_33
REMARK                            x       y       z     vdW  Elec       q    Type
REMARK                         _______ _______ _______ _____ _____    ______ ____
ROOT
ATOM      7  C   UNL     1      14.109  10.160  21.390  0.00  0.00    +0.000 C 
ATOM      8  C   UNL     1      12.791  10.501  20.655  0.00  0.00    +0.029 C 
ATOM      9  C   UNL     1      14.528   8.712  21.099  0.00  0.00    +0.012 C 
ATOM     10  C   UNL     1      14.688   8.413  19.592  0.00  0.00    +0.024 C 
ATOM     13  C   UNL     1      12.775  10.000  19.233  0.00  0.00    -0.023 C 
ATOM     14  C   UNL     1      13.621   9.078  18.737  0.00  0.00    -0.073 C 
ATOM     20  C   UNL     1      13.573   8.713  17.278  0.00  0.00    +0.039 C 
ENDROOT
BRANCH   7  11
ATOM     11  C   UNL     1      15.226  11.147  21.023  0.00  0.00    -0.013 C 
ATOM     16  C   UNL     1      14.819  12.571  21.388  0.00  0.00    +0.007 C 
ATOM     17  C   UNL     1      16.527  10.759  21.718  0.00  0.00    +0.007 C 
ENDBRANCH   7  11
BRANCH   8  12
ATOM     12  C   UNL     1      11.570   9.948  21.397  0.00  0.00    +0.092 C 
BRANCH  12   3
ATOM      2  O   UNL     1      11.415  15.507  24.292  0.00  0.00    -0.276 OA
ATOM      3  N   UNL     1      10.965  10.981  22.235  0.00  0.00    -0.299 NA
ATOM      4  N   UNL     1      10.973  13.247  23.990  0.00  0.00    -0.299 N 
ATOM     18  C   UNL     1      11.293  12.320  21.724  0.00  0.00    +0.103 C 
ATOM     19  C   UNL     1      11.408  10.841  23.630  0.00  0.00    +0.103 C 
ATOM     21  C   UNL     1      10.633  13.403  22.577  0.00  0.00    +0.123 C 
ATOM     22  C   UNL     1      10.756  11.899  24.523  0.00  0.00    +0.123 C 
ATOM     24  C   UNL     1      11.347  14.360  24.741  0.00  0.00    +0.213 C 
ATOM     26  C   UNL     1      11.688  14.113  26.189  0.00  0.00    +0.109 C 
ENDBRANCH  12   3
ENDBRANCH   8  12
BRANCH  10  15
ATOM     15  C   UNL     1      14.747   6.892  19.399  0.00  0.00    +0.105 C 
BRANCH  15  23
ATOM      1  O   UNL     1      16.973   6.776  20.393  0.00  0.00    -0.420 OA
ATOM      5  N   UNL     1      16.765   5.641  18.476  0.00  0.00    -0.112 NA
ATOM      6  N   UNL     1      18.064   5.490  18.923  0.00  0.00    -0.107 NA
ATOM     23  C   UNL     1      16.165   6.398  19.364  0.00  0.00    +0.218 A 
ATOM     25  C   UNL     1      18.141   6.170  20.045  0.00  0.00    +0.248 A 
BRANCH  25  27
ATOM     27  C   UNL     1      19.242   6.367  20.940  0.00  0.00    +0.038 A 
ATOM     28  C   UNL     1      19.143   7.299  21.973  0.00  0.00    +0.013 A 
ATOM     29  C   UNL     1      20.414   5.628  20.778  0.00  0.00    +0.013 A 
ATOM     30  C   UNL     1      20.214   7.491  22.845  0.00  0.00    +0.004 A 
ATOM     31  C   UNL     1      21.486   5.820  21.650  0.00  0.00    +0.004 A 
ATOM     32  C   UNL     1      21.385   6.752  22.684  0.00  0.00    -0.050 A 
ATOM     33  C   UNL     1      22.531   6.958  23.616  0.00  0.00    +0.044 C 
ENDBRANCH  25  27
ENDBRANCH  15  23
ENDBRANCH  10  15
TORSDOF 6
ENDMDL
MODEL 4
REMARK VINA RESULT:      -7.1      3.397      6.025
REMARK  Name = 38030601
REMARK  11 active torsions:
REMARK  status: ('A' for Active; 'I' for Inactive)
REMARK    1  A    between atoms: N_3  and  C_12
REMARK    2  A    between atoms: C_7  and  C_11
REMARK    3  A    between atoms: C_8  and  C_12
REMARK    4  A    between atoms: C_10  and  C_15
REMARK    5  A    between atoms: C_11  and  C_16
REMARK    6  A    between atoms: C_11  and  C_17
REMARK    7  A    between atoms: C_14  and  C_20
REMARK    8  A    between atoms: C_15  and  C_23
REMARK    9  A    between atoms: C_24  and  C_26
REMARK   10  A    between atoms: C_25  and  C_27
REMARK   11  A    between atoms: C_32  and  C_33
REMARK                            x       y       z     vdW  Elec       q    Type
REMARK                         _______ _______ _______ _____ _____    ______ ____
ROOT
ATOM      7  C   UNL     1      -3.504 -10.646  15.156  0.00  0.00    +0.000 C 
ATOM      8  C   UNL     1      -4.559 -11.391  14.305  0.00  0.00    +0.029 C 
ATOM      9  C   UNL     1      -4.087 -10.265  16.524  0.00  0.00    +0.012 C 
ATOM     10  C   UNL     1      -4.626 -11.476  17.317  0.00  0.00    +0.024 C 
ATOM     13  C   UNL     1      -5.316 -12.426  15.097  0.00  0.00    -0.023 C 
ATOM     14  C   UNL     1      -5.349 -12.488  16.442  0.00  0.00    -0.073 C 
ATOM     20  C   UNL     1      -6.067 -13.615  17.132  0.00  0.00    +0.039 C 
ENDROOT
BRANCH   7  11
ATOM     11  C   UNL     1      -2.222 -11.476  15.310  0.00  0.00    -0.013 C 
ATOM     16  C   UNL     1      -1.832 -12.107  13.977  0.00  0.00    +0.007 C 
ATOM     17  C   UNL     1      -1.090 -10.609  15.852  0.00  0.00    +0.007 C 
ENDBRANCH   7  11
BRANCH   8  12
ATOM     12  C   UNL     1      -5.555 -10.421  13.662  0.00  0.00    +0.092 C 
BRANCH  12   3
ATOM      2  O   UNL     1      -6.157  -9.267   7.529  0.00  0.00    -0.276 OA
ATOM      3  N   UNL     1      -5.079  -9.988  12.349  0.00  0.00    -0.299 NA
ATOM      4  N   UNL     1      -5.071  -9.889   9.485  0.00  0.00    -0.299 N 
ATOM     18  C   UNL     1      -6.142  -9.277  11.624  0.00  0.00    +0.103 C 
ATOM     19  C   UNL     1      -4.604 -11.138  11.566  0.00  0.00    +0.103 C 
ATOM     21  C   UNL     1      -5.639  -8.790  10.265  0.00  0.00    +0.123 C 
ATOM     22  C   UNL     1      -4.075 -10.691  10.201  0.00  0.00    +0.123 C 
ATOM     24  C   UNL     1      -5.399 -10.027   8.137  0.00  0.00    +0.213 C 
ATOM     26  C   UNL     1      -4.775 -11.189   7.407  0.00  0.00    +0.109 C 
ENDBRANCH  12   3
ENDBRANCH   8  12
BRANCH  10  15
ATOM     15  C   UNL     1      -5.493 -10.957  18.472  0.00  0.00    +0.105 C 
BRANCH  15  23
ATOM      1  O   UNL     1      -7.884 -10.504  18.648  0.00  0.00    -0.420 OA
ATOM      5  N   UNL     1      -6.879  -9.467  16.939  0.00  0.00    -0.112 NA
ATOM      6  N   UNL     1      -8.218  -9.124  16.919  0.00  0.00    -0.107 NA
ATOM     23  C   UNL     1      -6.730 -10.273  17.964  0.00  0.00    +0.218 A 
ATOM     25  C   UNL     1      -8.767  -9.753  17.933  0.00  0.00    +0.248 A 
BRANCH  25  27
ATOM     27  C   UNL     1     -10.123  -9.769  18.395  0.00  0.00    +0.038 A 
ATOM     28  C   UNL     1     -10.416 -10.211  19.685  0.00  0.00    +0.013 A 
ATOM     29  C   UNL     1     -11.152  -9.344  17.554  0.00  0.00    +0.013 A 
ATOM     30  C   UNL     1     -11.736 -10.227  20.135  0.00  0.00    +0.004 A 
ATOM     31  C   UNL     1     -12.472  -9.360  18.003  0.00  0.00    +0.004 A 
ATOM     32  C   UNL     1     -12.764  -9.802  19.294  0.00  0.00    -0.050 A 
ATOM     33  C   UNL     1     -14.176  -9.819  19.775  0.00  0.00    +0.044 C 
ENDBRANCH  25  27
ENDBRANCH  15  23
ENDBRANCH  10  15
TORSDOF 6
ENDMDL
MODEL 5
REMARK VINA RESULT:      -7.0      2.404      9.962
REMARK  Name = 38030601
REMARK  11 active torsions:
REMARK  status: ('A' for Active; 'I' for Inactive)
REMARK    1  A    between atoms: N_3  and  C_12
REMARK    2  A    between atoms: C_7  and  C_11
REMARK    3  A    between atoms: C_8  and  C_12
REMARK    4  A    between atoms: C_10  and  C_15
REMARK    5  A    between atoms: C_11  and  C_16
REMARK    6  A    between atoms: C_11  and  C_17
REMARK    7  A    between atoms: C_14  and  C_20
REMARK    8  A    between atoms: C_15  and  C_23
REMARK    9  A    between atoms: C_24  and  C_26
REMARK   10  A    between atoms: C_25  and  C_27
REMARK   11  A    between atoms: C_32  and  C_33
REMARK                            x       y       z     vdW  Elec       q    Type
REMARK                         _______ _______ _______ _____ _____    ______ ____
ROOT
ATOM      7  C   UNL     1      -3.914 -11.888  12.699  0.00  0.00    +0.000 C 
ATOM      8  C   UNL     1      -2.800 -11.349  13.625  0.00  0.00    +0.029 C 
ATOM      9  C   UNL     1      -4.428 -10.778  11.772  0.00  0.00    +0.012 C 
ATOM     10  C   UNL     1      -3.316 -10.133  10.917  0.00  0.00    +0.024 C 
ATOM     13  C   UNL     1      -1.807 -10.482  12.893  0.00  0.00    -0.023 C 
ATOM     14  C   UNL     1      -2.014  -9.939  11.679  0.00  0.00    -0.073 C 
ATOM     20  C   UNL     1      -0.921  -9.160  11.000  0.00  0.00    +0.039 C 
ENDROOT
BRANCH   7  11
ATOM     11  C   UNL     1      -3.434 -13.105  11.895  0.00  0.00    -0.013 C 
ATOM     16  C   UNL     1      -2.775 -14.125  12.818  0.00  0.00    +0.007 C 
ATOM     17  C   UNL     1      -4.598 -13.732  11.135  0.00  0.00    +0.007 C 
ENDBRANCH   7  11
BRANCH   8  12
ATOM     12  C   UNL     1      -3.377 -10.565  14.808  0.00  0.00    +0.092 C 
BRANCH  12   3
ATOM      2  O   UNL     1      -8.600 -10.820  18.266  0.00  0.00    -0.276 OA
ATOM      3  N   UNL     1      -4.621 -11.175  15.273  0.00  0.00    -0.299 NA
ATOM      4  N   UNL     1      -6.754 -11.650  17.128  0.00  0.00    -0.299 N 
ATOM     18  C   UNL     1      -5.642 -10.145  15.516  0.00  0.00    +0.103 C 
ATOM     19  C   UNL     1      -4.387 -11.963  16.493  0.00  0.00    +0.103 C 
ATOM     21  C   UNL     1      -6.956 -10.781  15.969  0.00  0.00    +0.123 C 
ATOM     22  C   UNL     1      -5.677 -12.631  16.971  0.00  0.00    +0.123 C 
ATOM     24  C   UNL     1      -7.632 -11.582  18.209  0.00  0.00    +0.213 C 
ATOM     26  C   UNL     1      -7.350 -12.507  19.365  0.00  0.00    +0.109 C 
ENDBRANCH  12   3
ENDBRANCH   8  12
BRANCH  10  15
ATOM     15  C   UNL     1      -3.856  -8.828  10.316  0.00  0.00    +0.105 C 
BRANCH  15  23
ATOM      1  O   UNL     1      -4.501  -9.857   8.200  0.00  0.00    -0.420 OA
ATOM      5  N   UNL     1      -6.139  -8.702   9.193  0.00  0.00    -0.112 NA
ATOM      6  N   UNL     1      -6.639  -9.225   8.016  0.00  0.00    -0.107 NA
ATOM     23  C   UNL     1      -4.889  -9.096   9.260  0.00  0.00    +0.218 A 
ATOM     25  C   UNL     1      -5.648  -9.891   7.468  0.00  0.00    +0.248 A 
BRANCH  25  27
ATOM     27  C   UNL     1      -5.590 -10.635   6.244  0.00  0.00    +0.038 A 
ATOM     28  C   UNL     1      -6.606 -10.501   5.298  0.00  0.00    +0.013 A 
ATOM     29  C   UNL     1      -4.518 -11.493   5.999  0.00  0.00    +0.013 A 
ATOM     30  C   UNL     1      -6.550 -11.224   4.107  0.00  0.00    +0.004 A 
ATOM     31  C   UNL     1      -4.462 -12.216   4.808  0.00  0.00    +0.004 A 
ATOM     32  C   UNL     1      -5.478 -12.081   3.862  0.00  0.00    -0.050 A 
ATOM     33  C   UNL     1      -5.419 -12.855   2.588  0.00  0.00    +0.044 C 
ENDBRANCH  25  27
ENDBRANCH  15  23
ENDBRANCH  10  15
TORSDOF 6
ENDMDL
MODEL 6
REMARK VINA RESULT:      -7.0      6.926      9.433
REMARK  Name = 38030601
REMARK  11 active torsions:
REMARK  status: ('A' for Active; 'I' for Inactive)
REMARK    1  A    between atoms: N_3  and  C_12
REMARK    2  A    between atoms: C_7  and  C_11
REMARK    3  A    between atoms: C_8  and  C_12
REMARK    4  A    between atoms: C_10  and  C_15
REMARK    5  A    between atoms: C_11  and  C_16
REMARK    6  A    between atoms: C_11  and  C_17
REMARK    7  A    between atoms: C_14  and  C_20
REMARK    8  A    between atoms: C_15  and  C_23
REMARK    9  A    between atoms: C_24  and  C_26
REMARK   10  A    between atoms: C_25  and  C_27
REMARK   11  A    between atoms: C_32  and  C_33
REMARK                            x       y       z     vdW  Elec       q    Type
REMARK                         _______ _______ _______ _____ _____    ______ ____
ROOT
ATOM      7  C   UNL     1     -11.182  -8.213  15.083  0.00  0.00    +0.000 C 
ATOM      8  C   UNL     1     -12.717  -8.036  15.025  0.00  0.00    +0.029 C 
ATOM      9  C   UNL     1     -10.725  -8.476  16.525  0.00  0.00    +0.012 C 
ATOM     10  C   UNL     1     -11.408  -9.703  17.167  0.00  0.00    +0.024 C 
ATOM     13  C   UNL     1     -13.450  -9.060  15.855  0.00  0.00    -0.023 C 
ATOM     14  C   UNL     1     -12.881  -9.822  16.808  0.00  0.00    -0.073 C 
ATOM     20  C   UNL     1     -13.686 -10.875  17.517  0.00  0.00    +0.039 C 
ENDROOT
BRANCH   7  11
ATOM     11  C   UNL     1     -10.710  -9.327  14.138  0.00  0.00    -0.013 C 
ATOM     16  C   UNL     1     -11.187  -9.054  12.715  0.00  0.00    +0.007 C 
ATOM     17  C   UNL     1      -9.191  -9.456  14.186  0.00  0.00    +0.007 C 
ENDBRANCH   7  11
BRANCH   8  12
ATOM     12  C   UNL     1     -13.143  -6.633  15.466  0.00  0.00    +0.092 C 
BRANCH  12   3
ATOM      2  O   UNL     1     -13.385  -5.345   9.335  0.00  0.00    -0.276 OA
ATOM      3  N   UNL     1     -13.443  -5.796  14.306  0.00  0.00    -0.299 NA
ATOM      4  N   UNL     1     -13.154  -4.893  11.601  0.00  0.00    -0.299 N 
ATOM     18  C   UNL     1     -13.931  -6.617  13.188  0.00  0.00    +0.103 C 
ATOM     19  C   UNL     1     -12.256  -5.029  13.899  0.00  0.00    +0.103 C 
ATOM     21  C   UNL     1     -14.281  -5.742  11.985  0.00  0.00    +0.123 C 
ATOM     22  C   UNL     1     -12.568  -4.126  12.704  0.00  0.00    +0.123 C 
ATOM     24  C   UNL     1     -12.801  -4.772  10.258  0.00  0.00    +0.213 C 
ATOM     26  C   UNL     1     -11.625  -3.881   9.948  0.00  0.00    +0.109 C 
ENDBRANCH  12   3
ENDBRANCH   8  12
BRANCH  10  15
ATOM     15  C   UNL     1     -11.165  -9.660  18.682  0.00  0.00    +0.105 C 
BRANCH  15  23
ATOM      1  O   UNL     1      -8.811 -10.070  18.187  0.00  0.00    -0.420 OA
ATOM      5  N   UNL     1      -9.528 -11.020  20.082  0.00  0.00    -0.112 NA
ATOM      6  N   UNL     1      -8.189 -11.331  19.928  0.00  0.00    -0.107 NA
ATOM     23  C   UNL     1      -9.847 -10.283  19.044  0.00  0.00    +0.218 A 
ATOM     25  C   UNL     1      -7.813 -10.757  18.808  0.00  0.00    +0.248 A 
BRANCH  25  27
ATOM     27  C   UNL     1      -6.538 -10.741  18.153  0.00  0.00    +0.038 A 
ATOM     28  C   UNL     1      -6.367 -10.011  16.977  0.00  0.00    +0.013 A 
ATOM     29  C   UNL     1      -5.468 -11.457  18.691  0.00  0.00    +0.013 A 
ATOM     30  C   UNL     1      -5.127  -9.995  16.339  0.00  0.00    +0.004 A 
ATOM     31  C   UNL     1      -4.228 -11.441  18.054  0.00  0.00    +0.004 A 
ATOM     32  C   UNL     1      -4.057 -10.710  16.877  0.00  0.00    -0.050 A 
ATOM     33  C   UNL     1      -2.732 -10.694  16.195  0.00  0.00    +0.044 C 
ENDBRANCH  25  27
ENDBRANCH  15  23
ENDBRANCH  10  15
TORSDOF 6
ENDMDL
MODEL 7
REMARK VINA RESULT:      -6.9      3.337      6.137
REMARK  Name = 38030601
REMARK  11 active torsions:
REMARK  status: ('A' for Active; 'I' for Inactive)
REMARK    1  A    between atoms: N_3  and  C_12
REMARK    2  A    between atoms: C_7  and  C_11
REMARK    3  A    between atoms: C_8  and  C_12
REMARK    4  A    between atoms: C_10  and  C_15
REMARK    5  A    between atoms: C_11  and  C_16
REMARK    6  A    between atoms: C_11  and  C_17
REMARK    7  A    between atoms: C_14  and  C_20
REMARK    8  A    between atoms: C_15  and  C_23
REMARK    9  A    between atoms: C_24  and  C_26
REMARK   10  A    between atoms: C_25  and  C_27
REMARK   11  A    between atoms: C_32  and  C_33
REMARK                            x       y       z     vdW  Elec       q    Type
REMARK                         _______ _______ _______ _____ _____    ______ ____
ROOT
ATOM      7  C   UNL     1      -3.547 -10.596  15.274  0.00  0.00    +0.000 C 
ATOM      8  C   UNL     1      -4.538 -11.528  14.538  0.00  0.00    +0.029 C 
ATOM      9  C   UNL     1      -4.006 -10.355  16.719  0.00  0.00    +0.012 C 
ATOM     10  C   UNL     1      -4.184 -11.657  17.529  0.00  0.00    +0.024 C 
ATOM     13  C   UNL     1      -4.964 -12.702  15.383  0.00  0.00    -0.023 C 
ATOM     14  C   UNL     1      -4.804 -12.784  16.717  0.00  0.00    -0.073 C 
ATOM     20  C   UNL     1      -5.187 -14.040  17.450  0.00  0.00    +0.039 C 
ENDROOT
BRANCH   7  11
ATOM     11  C   UNL     1      -2.117 -11.154  15.231  0.00  0.00    -0.013 C 
ATOM     16  C   UNL     1      -1.798 -11.692  13.840  0.00  0.00    +0.007 C 
ATOM     17  C   UNL     1      -1.115 -10.080  15.640  0.00  0.00    +0.007 C 
ENDBRANCH   7  11
BRANCH   8  12
ATOM     12  C   UNL     1      -5.782 -10.770  14.066  0.00  0.00    +0.092 C 
BRANCH  12   3
ATOM      2  O   UNL     1      -6.945  -8.810   8.225  0.00  0.00    -0.276 OA
ATOM      3  N   UNL     1      -5.496 -10.015  12.847  0.00  0.00    -0.299 NA
ATOM      4  N   UNL     1      -5.646  -9.443  10.043  0.00  0.00    -0.299 N 
ATOM     18  C   UNL     1      -6.737  -9.496  12.257  0.00  0.00    +0.103 C 
ATOM     19  C   UNL     1      -4.778 -10.855  11.876  0.00  0.00    +0.103 C 
ATOM     21  C   UNL     1      -6.440  -8.676  11.002  0.00  0.00    +0.123 C 
ATOM     22  C   UNL     1      -4.445 -10.065  10.608  0.00  0.00    +0.123 C 
ATOM     24  C   UNL     1      -5.990  -9.435   8.692  0.00  0.00    +0.213 C 
ATOM     26  C   UNL     1      -5.124 -10.256   7.771  0.00  0.00    +0.109 C 
ENDBRANCH  12   3
ENDBRANCH   8  12
BRANCH  10  15
ATOM     15  C   UNL     1      -4.974 -11.336  18.804  0.00  0.00    +0.105 C 
BRANCH  15  23
ATOM      1  O   UNL     1      -6.869 -10.169  17.804  0.00  0.00    -0.420 OA
ATOM      5  N   UNL     1      -7.419 -12.050  18.883  0.00  0.00    -0.112 NA
ATOM      6  N   UNL     1      -8.578 -11.498  18.371  0.00  0.00    -0.107 NA
ATOM     23  C   UNL     1      -6.448 -11.242  18.528  0.00  0.00    +0.218 A 
ATOM     25  C   UNL     1      -8.210 -10.401  17.749  0.00  0.00    +0.248 A 
BRANCH  25  27
ATOM     27  C   UNL     1      -8.987  -9.429  17.036  0.00  0.00    +0.038 A 
ATOM     28  C   UNL     1      -9.011  -9.443  15.642  0.00  0.00    +0.013 A 
ATOM     29  C   UNL     1      -9.717  -8.469  17.737  0.00  0.00    +0.013 A 
ATOM     30  C   UNL     1      -9.767  -8.499  14.948  0.00  0.00    +0.004 A 
ATOM     31  C   UNL     1     -10.473  -7.525  17.044  0.00  0.00    +0.004 A 
ATOM     32  C   UNL     1     -10.498  -7.540  15.649  0.00  0.00    -0.050 A 
ATOM     33  C   UNL     1     -11.306  -6.529  14.907  0.00  0.00    +0.044 C 
ENDBRANCH  25  27
ENDBRANCH  15  23
ENDBRANCH  10  15
TORSDOF 6
ENDMDL
MODEL 8
REMARK VINA RESULT:      -6.8      3.970     10.306
REMARK  Name = 38030601
REMARK  11 active torsions:
REMARK  status: ('A' for Active; 'I' for Inactive)
REMARK    1  A    between atoms: N_3  and  C_12
REMARK    2  A    between atoms: C_7  and  C_11
REMARK    3  A    between atoms: C_8  and  C_12
REMARK    4  A    between atoms: C_10  and  C_15
REMARK    5  A    between atoms: C_11  and  C_16
REMARK    6  A    between atoms: C_11  and  C_17
REMARK    7  A    between atoms: C_14  and  C_20
REMARK    8  A    between atoms: C_15  and  C_23
REMARK    9  A    between atoms: C_24  and  C_26
REMARK   10  A    between atoms: C_25  and  C_27
REMARK   11  A    between atoms: C_32  and  C_33
REMARK                            x       y       z     vdW  Elec       q    Type
REMARK                         _______ _______ _______ _____ _____    ______ ____
ROOT
ATOM      7  C   UNL     1      -7.076 -12.489  16.990  0.00  0.00    +0.000 C 
ATOM      8  C   UNL     1      -7.221 -12.238  18.508  0.00  0.00    +0.029 C 
ATOM      9  C   UNL     1      -5.939 -11.636  16.409  0.00  0.00    +0.012 C 
ATOM     10  C   UNL     1      -4.580 -11.875  17.101  0.00  0.00    +0.024 C 
ATOM     13  C   UNL     1      -5.891 -12.198  19.219  0.00  0.00    -0.023 C 
ATOM     14  C   UNL     1      -4.701 -12.049  18.607  0.00  0.00    -0.073 C 
ATOM     20  C   UNL     1      -3.427 -12.110  19.404  0.00  0.00    +0.039 C 
ENDROOT
BRANCH   7  11
ATOM     11  C   UNL     1      -6.862 -13.979  16.687  0.00  0.00    -0.013 C 
ATOM     16  C   UNL     1      -8.018 -14.806  17.242  0.00  0.00    +0.007 C 
ATOM     17  C   UNL     1      -6.709 -14.200  15.186  0.00  0.00    +0.007 C 
ENDBRANCH   7  11
BRANCH   8  12
ATOM     12  C   UNL     1      -7.984 -10.941  18.796  0.00  0.00    +0.092 C 
BRANCH  12   3
ATOM      2  O   UNL     1     -13.954  -9.184  18.035  0.00  0.00    -0.276 OA
ATOM      3  N   UNL     1      -9.427 -11.167  18.734  0.00  0.00    -0.299 NA
ATOM      4  N   UNL     1     -12.189 -10.421  18.899  0.00  0.00    -0.299 N 
ATOM     18  C   UNL     1     -10.037 -10.327  17.693  0.00  0.00    +0.103 C 
ATOM     19  C   UNL     1     -10.050 -10.900  20.039  0.00  0.00    +0.103 C 
ATOM     21  C   UNL     1     -11.540 -10.586  17.600  0.00  0.00    +0.123 C 
ATOM     22  C   UNL     1     -11.556 -11.163  19.993  0.00  0.00    +0.123 C 
ATOM     24  C   UNL     1     -13.382  -9.706  18.995  0.00  0.00    +0.213 C 
ATOM     26  C   UNL     1     -13.983  -9.578  20.372  0.00  0.00    +0.109 C 
ENDBRANCH  12   3
ENDBRANCH   8  12
BRANCH  10  15
ATOM     15  C   UNL     1      -3.624 -10.742  16.706  0.00  0.00    +0.105 C 
BRANCH  15  23
ATOM      1  O   UNL     1      -3.810 -10.542  14.281  0.00  0.00    -0.420 OA
ATOM      5  N   UNL     1      -1.913 -11.502  14.978  0.00  0.00    -0.112 NA
ATOM      6  N   UNL     1      -1.885 -11.454  13.597  0.00  0.00    -0.107 NA
ATOM     23  C   UNL     1      -3.054 -10.959  15.334  0.00  0.00    +0.218 A 
ATOM     25  C   UNL     1      -3.012 -10.887  13.233  0.00  0.00    +0.248 A 
BRANCH  25  27
ATOM     27  C   UNL     1      -3.522 -10.580  11.929  0.00  0.00    +0.038 A 
ATOM     28  C   UNL     1      -2.853  -9.664  11.116  0.00  0.00    +0.013 A 
ATOM     29  C   UNL     1      -4.687 -11.196  11.472  0.00  0.00    +0.013 A 
ATOM     30  C   UNL     1      -3.349  -9.365   9.847  0.00  0.00    +0.004 A 
ATOM     31  C   UNL     1      -5.183 -10.898  10.203  0.00  0.00    +0.004 A 
ATOM     32  C   UNL     1      -4.513  -9.982   9.391  0.00  0.00    -0.050 A 
ATOM     33  C   UNL     1      -5.043  -9.662   8.034  0.00  0.00    +0.044 C 
ENDBRANCH  25  27
ENDBRANCH  15  23
ENDBRANCH  10  15
TORSDOF 6
ENDMDL
MODEL 9
REMARK VINA RESULT:      -6.8     25.434     30.465
REMARK  Name = 38030601
REMARK  11 active torsions:
REMARK  status: ('A' for Active; 'I' for Inactive)
REMARK    1  A    between atoms: N_3  and  C_12
REMARK    2  A    between atoms: C_7  and  C_11
REMARK    3  A    between atoms: C_8  and  C_12
REMARK    4  A    between atoms: C_10  and  C_15
REMARK    5  A    between atoms: C_11  and  C_16
REMARK    6  A    between atoms: C_11  and  C_17
REMARK    7  A    between atoms: C_14  and  C_20
REMARK    8  A    between atoms: C_15  and  C_23
REMARK    9  A    between atoms: C_24  and  C_26
REMARK   10  A    between atoms: C_25  and  C_27
REMARK   11  A    between atoms: C_32  and  C_33
REMARK                            x       y       z     vdW  Elec       q    Type
REMARK                         _______ _______ _______ _____ _____    ______ ____
ROOT
ATOM      7  C   UNL     1     -10.860  10.039  31.777  0.00  0.00    +0.000 C 
ATOM      8  C   UNL     1     -10.584  10.923  33.015  0.00  0.00    +0.029 C 
ATOM      9  C   UNL     1     -11.550   8.732  32.191  0.00  0.00    +0.012 C 
ATOM     10  C   UNL     1     -12.866   8.956  32.968  0.00  0.00    +0.024 C 
ATOM     13  C   UNL     1     -11.756  10.976  33.962  0.00  0.00    -0.023 C 
ATOM     14  C   UNL     1     -12.790  10.115  33.949  0.00  0.00    -0.073 C 
ATOM     20  C   UNL     1     -13.951  10.311  34.884  0.00  0.00    +0.039 C 
ENDROOT
BRANCH   7  11
ATOM     11  C   UNL     1     -11.685  10.793  30.724  0.00  0.00    -0.013 C 
ATOM     16  C   UNL     1     -11.153  12.211  30.546  0.00  0.00    +0.007 C 
ATOM     17  C   UNL     1     -11.672  10.039  29.399  0.00  0.00    +0.007 C 
ENDBRANCH   7  11
BRANCH   8  12
ATOM     12  C   UNL     1      -9.341  10.454  33.778  0.00  0.00    +0.092 C 
BRANCH  12   3
ATOM      2  O   UNL     1      -4.066  13.372  32.054  0.00  0.00    -0.276 OA
ATOM      3  N   UNL     1      -8.342  11.520  33.843  0.00  0.00    -0.299 NA
ATOM      4  N   UNL     1      -5.743  12.677  33.503  0.00  0.00    -0.299 N 
ATOM     18  C   UNL     1      -7.835  11.835  32.499  0.00  0.00    +0.103 C 
ATOM     19  C   UNL     1      -7.236  11.139  34.733  0.00  0.00    +0.103 C 
ATOM     21  C   UNL     1      -6.818  12.974  32.558  0.00  0.00    +0.123 C 
ATOM     22  C   UNL     1      -6.200  12.261  34.832  0.00  0.00    +0.123 C 
ATOM     24  C   UNL     1      -4.416  12.914  33.145  0.00  0.00    +0.213 C 
ATOM     26  C   UNL     1      -3.369  12.576  34.175  0.00  0.00    +0.109 C 
ENDBRANCH  12   3
ENDBRANCH   8  12
BRANCH  10  15
ATOM     15  C   UNL     1     -13.272   7.635  33.635  0.00  0.00    +0.105 C 
BRANCH  15  23
ATOM      1  O   UNL     1     -13.845   5.468  32.669  0.00  0.00    -0.420 OA
ATOM      5  N   UNL     1     -15.125   7.158  31.953  0.00  0.00    -0.112 NA
ATOM      6  N   UNL     1     -15.557   6.002  31.331  0.00  0.00    -0.107 NA
ATOM     23  C   UNL     1     -14.126   6.799  32.725  0.00  0.00    +0.218 A 
ATOM     25  C   UNL     1     -14.781   5.041  31.777  0.00  0.00    +0.248 A 
BRANCH  25  27
ATOM     27  C   UNL     1     -14.769   3.639  31.478  0.00  0.00    +0.038 A 
ATOM     28  C   UNL     1     -14.793   2.704  32.512  0.00  0.00    +0.013 A 
ATOM     29  C   UNL     1     -14.731   3.210  30.150  0.00  0.00    +0.013 A 
ATOM     30  C   UNL     1     -14.781   1.341  32.221  0.00  0.00    +0.004 A 
ATOM     31  C   UNL     1     -14.719   1.846  29.859  0.00  0.00    +0.004 A 
ATOM     32  C   UNL     1     -14.744   0.912  30.894  0.00  0.00    -0.050 A 
ATOM     33  C   UNL     1     -14.730  -0.547  30.583  0.00  0.00    +0.044 C 
ENDBRANCH  25  27
ENDBRANCH  15  23
ENDBRANCH  10  15
TORSDOF 6
ENDMDL
MODEL 10
REMARK VINA RESULT:      -6.7     26.104     31.146
REMARK  Name = 38030601
REMARK  11 active torsions:
REMARK  status: ('A' for Active; 'I' for Inactive)
REMARK    1  A    between atoms: N_3  and  C_12
REMARK    2  A    between atoms: C_7  and  C_11
REMARK    3  A    between atoms: C_8  and  C_12
REMARK    4  A    between atoms: C_10  and  C_15
REMARK    5  A    between atoms: C_11  and  C_16
REMARK    6  A    between atoms: C_11  and  C_17
REMARK    7  A    between atoms: C_14  and  C_20
REMARK    8  A    between atoms: C_15  and  C_23
REMARK    9  A    between atoms: C_24  and  C_26
REMARK   10  A    between atoms: C_25  and  C_27
REMARK   11  A    between atoms: C_32  and  C_33
REMARK                            x       y       z     vdW  Elec       q    Type
REMARK                         _______ _______ _______ _____ _____    ______ ____
ROOT
ATOM      7  C   UNL     1      -9.552  10.634  35.391  0.00  0.00    +0.000 C 
ATOM      8  C   UNL     1      -9.192  11.322  34.054  0.00  0.00    +0.029 C 
ATOM      9  C   UNL     1     -11.017  10.175  35.383  0.00  0.00    +0.012 C 
ATOM     10  C   UNL     1     -11.354   9.228  34.211  0.00  0.00    +0.024 C 
ATOM     13  C   UNL     1      -9.724  10.576  32.856  0.00  0.00    -0.023 C 
ATOM     14  C   UNL     1     -10.680   9.629  32.908  0.00  0.00    -0.073 C 
ATOM     20  C   UNL     1     -11.077   8.885  31.663  0.00  0.00    +0.039 C 
ENDROOT
BRANCH   7  11
ATOM     11  C   UNL     1      -8.605   9.464  35.691  0.00  0.00    -0.013 C 
ATOM     16  C   UNL     1      -7.155   9.937  35.683  0.00  0.00    +0.007 C 
ATOM     17  C   UNL     1      -8.960   8.824  37.030  0.00  0.00    +0.007 C 
ENDBRANCH   7  11
BRANCH   8  12
ATOM     12  C   UNL     1      -9.694  12.769  34.008  0.00  0.00    +0.092 C 
BRANCH  12   3
ATOM      2  O   UNL     1      -5.548  14.822  29.777  0.00  0.00    -0.276 OA
ATOM      3  N   UNL     1      -8.648  13.662  33.513  0.00  0.00    -0.299 NA
ATOM      4  N   UNL     1      -6.399  14.394  31.895  0.00  0.00    -0.299 N 
ATOM     18  C   UNL     1      -8.812  13.900  32.072  0.00  0.00    +0.103 C 
ATOM     19  C   UNL     1      -7.316  13.106  33.794  0.00  0.00    +0.103 C 
ATOM     21  C   UNL     1      -7.742  14.863  31.556  0.00  0.00    +0.123 C 
ATOM     22  C   UNL     1      -6.214  14.049  33.307  0.00  0.00    +0.123 C 
ATOM     24  C   UNL     1      -5.391  14.420  30.932  0.00  0.00    +0.213 C 
ATOM     26  C   UNL     1      -4.037  13.914  31.360  0.00  0.00    +0.109 C 
ENDBRANCH  12   3
ENDBRANCH   8  12
BRANCH  10  15
ATOM     15  C   UNL     1     -12.880   9.127  34.087  0.00  0.00    +0.105 C 
BRANCH  15  23
ATOM      1  O   UNL     1     -13.586   7.121  32.890  0.00  0.00    -0.420 OA
ATOM      5  N   UNL     1     -13.544   6.893  35.115  0.00  0.00    -0.112 NA
ATOM      6  N   UNL     1     -13.957   5.691  34.570  0.00  0.00    -0.107 NA
ATOM     23  C   UNL     1     -13.338   7.697  34.098  0.00  0.00    +0.218 A 
ATOM     25  C   UNL     1     -13.968   5.871  33.269  0.00  0.00    +0.248 A 
BRANCH  25  27
ATOM     27  C   UNL     1     -14.313   4.971  32.208  0.00  0.00    +0.038 A 
ATOM     28  C   UNL     1     -13.553   3.821  31.994  0.00  0.00    +0.013 A 
ATOM     29  C   UNL     1     -15.409   5.245  31.389  0.00  0.00    +0.013 A 
ATOM     30  C   UNL     1     -13.889   2.945  30.962  0.00  0.00    +0.004 A 
ATOM     31  C   UNL     1     -15.745   4.369  30.357  0.00  0.00    +0.004 A 
ATOM     32  C   UNL     1     -14.985   3.219  30.143  0.00  0.00    -0.050 A 
ATOM     33  C   UNL     1     -15.343   2.283  29.039  0.00  0.00    +0.044 C 
ENDBRANCH  25  27
ENDBRANCH  15  23
ENDBRANCH  10  15
TORSDOF 6
ENDMDL
