MODEL 1
REMARK VINA RESULT:      -8.1      0.000      0.000
REMARK  Name = 11886185
REMARK  6 active torsions:
REMARK  status: ('A' for Active; 'I' for Inactive)
REMARK    1  A    between atoms: O_6  and  C_20
REMARK    2  A    between atoms: O_6  and  C_23
REMARK    3  A    between atoms: N_8  and  C_16
REMARK    4  A    between atoms: N_9  and  C_17
REMARK    5  A    between atoms: N_12  and  C_22
REMARK    6  A    between atoms: C_28  and  C_33
REMARK                            x       y       z     vdW  Elec       q    Type
REMARK                         _______ _______ _______ _____ _____    ______ ____
ROOT
ATOM      4  O   UNL     1      -4.962 -10.356  17.895  0.00  0.00    -0.370 OA
ATOM      5  O   UNL     1      -6.585 -11.578  15.495  0.00  0.00    -0.370 OA
ATOM     14  C   UNL     1      -5.466 -10.678  15.588  0.00  0.00    +0.176 C 
ATOM     15  C   UNL     1      -5.701  -9.796  16.798  0.00  0.00    +0.172 C 
ATOM     16  C   UNL     1      -4.206 -11.453  15.914  0.00  0.00    +0.171 C 
ATOM     17  C   UNL     1      -7.187  -9.904  17.058  0.00  0.00    +0.131 C 
ATOM     18  C   UNL     1      -4.210 -11.488  17.439  0.00  0.00    +0.190 C 
ATOM     19  C   UNL     1      -7.500 -11.304  16.565  0.00  0.00    +0.185 C 
ENDROOT
BRANCH  17   9
ATOM      7  O   UNL     1      -9.997  -9.369  17.222  0.00  0.00    -0.252 OA
ATOM      9  N   UNL     1      -7.921  -8.911  16.312  0.00  0.00    -0.292 N 
ATOM     12  N   UNL     1      -9.733  -7.687  15.605  0.00  0.00    -0.269 N 
ATOM     21  C   UNL     1      -9.300  -8.712  16.452  0.00  0.00    +0.304 C 
ATOM     35  H   UNL     1      -7.403  -8.282  15.705  0.00  0.00    +0.151 HD
ATOM     36  H   UNL     1      -9.021  -7.244  15.027  0.00  0.00    +0.156 HD
BRANCH  12  22
ATOM     22  C   UNL     1     -11.046  -7.186  15.450  0.00  0.00    +0.035 A 
ATOM     24  C   UNL     1     -11.296  -6.231  14.478  0.00  0.00    +0.035 A 
ATOM     25  C   UNL     1     -12.055  -7.661  16.271  0.00  0.00    +0.023 A 
ATOM     28  C   UNL     1     -12.592  -5.737  14.324  0.00  0.00    +0.057 A 
ATOM     29  C   UNL     1     -13.350  -7.168  16.117  0.00  0.00    +0.002 A 
ATOM     30  C   UNL     1     -13.619  -6.206  15.143  0.00  0.00    +0.012 A 
BRANCH  28  33
ATOM      1  F   UNL     1     -13.859  -3.826  13.642  0.00  0.00    -0.166 F 
ATOM      2  F   UNL     1     -13.294  -5.237  12.092  0.00  0.00    -0.166 F 
ATOM      3  F   UNL     1     -11.789  -3.945  12.984  0.00  0.00    -0.166 F 
ATOM     33  C   UNL     1     -12.880  -4.709  13.283  0.00  0.00    +0.417 C 
ENDBRANCH  28  33
ENDBRANCH  12  22
ENDBRANCH  17   9
BRANCH  16   8
ATOM      8  N   UNL     1      -3.009 -10.862  15.310  0.00  0.00    -0.187 N 
ATOM     10  N   UNL     1      -2.030 -10.365  16.072  0.00  0.00    -0.041 NA
ATOM     11  N   UNL     1      -1.530 -10.136  13.911  0.00  0.00    -0.071 NA
ATOM     13  N   UNL     1      -1.125  -9.921  15.209  0.00  0.00    -0.020 NA
ATOM     20  C   UNL     1      -2.703 -10.721  13.999  0.00  0.00    +0.342 A 
BRANCH  20   6
ATOM      6  O   UNL     1      -3.466 -11.111  12.996  0.00  0.00    -0.423 OA
BRANCH   6  23
ATOM     23  C   UNL     1      -3.876 -10.248  11.988  0.00  0.00    +0.132 A 
ATOM     26  C   UNL     1      -5.113  -9.642  12.087  0.00  0.00    +0.046 A 
ATOM     27  C   UNL     1      -3.033 -10.021  10.917  0.00  0.00    +0.046 A 
ATOM     31  C   UNL     1      -5.524  -8.775  11.074  0.00  0.00    +0.004 A 
ATOM     32  C   UNL     1      -3.444  -9.155   9.904  0.00  0.00    +0.004 A 
ATOM     34  C   UNL     1      -4.689  -8.531   9.983  0.00  0.00    +0.000 A 
ENDBRANCH   6  23
ENDBRANCH  20   6
ENDBRANCH  16   8
TORSDOF 6
ENDMDL
MODEL 2
REMARK VINA RESULT:      -8.1     18.294     20.627
REMARK  Name = 11886185
REMARK  6 active torsions:
REMARK  status: ('A' for Active; 'I' for Inactive)
REMARK    1  A    between atoms: O_6  and  C_20
REMARK    2  A    between atoms: O_6  and  C_23
REMARK    3  A    between atoms: N_8  and  C_16
REMARK    4  A    between atoms: N_9  and  C_17
REMARK    5  A    between atoms: N_12  and  C_22
REMARK    6  A    between atoms: C_28  and  C_33
REMARK                            x       y       z     vdW  Elec       q    Type
REMARK                         _______ _______ _______ _____ _____    ______ ____
ROOT
ATOM      4  O   UNL     1     -16.878   3.857  28.297  0.00  0.00    -0.370 OA
ATOM      5  O   UNL     1     -17.313   1.579  26.172  0.00  0.00    -0.370 OA
ATOM     14  C   UNL     1     -16.233   1.925  27.058  0.00  0.00    +0.176 C 
ATOM     15  C   UNL     1     -16.170   3.439  27.118  0.00  0.00    +0.172 C 
ATOM     16  C   UNL     1     -16.569   1.496  28.473  0.00  0.00    +0.171 C 
ATOM     17  C   UNL     1     -16.904   3.894  25.877  0.00  0.00    +0.131 C 
ATOM     18  C   UNL     1     -17.314   2.704  29.029  0.00  0.00    +0.190 C 
ATOM     19  C   UNL     1     -17.917   2.782  25.674  0.00  0.00    +0.185 C 
ENDROOT
BRANCH  17   9
ATOM      7  O   UNL     1     -16.796   6.026  23.967  0.00  0.00    -0.252 OA
ATOM      9  N   UNL     1     -16.009   3.998  24.750  0.00  0.00    -0.292 N 
ATOM     12  N   UNL     1     -15.048   4.906  22.872  0.00  0.00    -0.269 N 
ATOM     21  C   UNL     1     -16.021   5.079  23.860  0.00  0.00    +0.304 C 
ATOM     35  H   UNL     1     -15.294   3.286  24.634  0.00  0.00    +0.151 HD
ATOM     36  H   UNL     1     -14.488   4.058  22.928  0.00  0.00    +0.156 HD
BRANCH  12  22
ATOM     22  C   UNL     1     -14.742   5.769  21.794  0.00  0.00    +0.035 A 
ATOM     24  C   UNL     1     -13.430   6.165  21.593  0.00  0.00    +0.035 A 
ATOM     25  C   UNL     1     -15.760   6.200  20.961  0.00  0.00    +0.023 A 
ATOM     28  C   UNL     1     -13.128   7.015  20.529  0.00  0.00    +0.057 A 
ATOM     29  C   UNL     1     -15.459   7.050  19.897  0.00  0.00    +0.002 A 
ATOM     30  C   UNL     1     -14.142   7.458  19.681  0.00  0.00    +0.012 A 
BRANCH  28  33
ATOM      1  F   UNL     1     -11.225   7.075  19.082  0.00  0.00    -0.166 F 
ATOM      2  F   UNL     1     -10.836   6.951  21.213  0.00  0.00    -0.166 F 
ATOM      3  F   UNL     1     -11.574   8.806  20.351  0.00  0.00    -0.166 F 
ATOM     33  C   UNL     1     -11.720   7.450  20.298  0.00  0.00    +0.417 C 
ENDBRANCH  28  33
ENDBRANCH  12  22
ENDBRANCH  17   9
BRANCH  16   8
ATOM      8  N   UNL     1     -15.383   1.093  29.235  0.00  0.00    -0.187 N 
ATOM     10  N   UNL     1     -14.956  -0.172  29.219  0.00  0.00    -0.041 NA
ATOM     11  N   UNL     1     -13.638   1.081  30.509  0.00  0.00    -0.071 NA
ATOM     13  N   UNL     1     -13.884  -0.175  30.002  0.00  0.00    -0.020 NA
ATOM     20  C   UNL     1     -14.582   1.852  30.019  0.00  0.00    +0.342 A 
BRANCH  20   6
ATOM      6  O   UNL     1     -14.739   3.143  30.240  0.00  0.00    -0.423 OA
BRANCH   6  23
ATOM     23  C   UNL     1     -14.835   3.677  31.518  0.00  0.00    +0.132 A 
ATOM     26  C   UNL     1     -13.735   4.305  32.066  0.00  0.00    +0.046 A 
ATOM     27  C   UNL     1     -16.030   3.564  32.202  0.00  0.00    +0.046 A 
ATOM     31  C   UNL     1     -13.832   4.842  33.351  0.00  0.00    +0.004 A 
ATOM     32  C   UNL     1     -16.128   4.099  33.486  0.00  0.00    +0.004 A 
ATOM     34  C   UNL     1     -15.029   4.738  34.061  0.00  0.00    +0.000 A 
ENDBRANCH   6  23
ENDBRANCH  20   6
ENDBRANCH  16   8
TORSDOF 6
ENDMDL
MODEL 3
REMARK VINA RESULT:      -8.0     18.878     21.025
REMARK  Name = 11886185
REMARK  6 active torsions:
REMARK  status: ('A' for Active; 'I' for Inactive)
REMARK    1  A    between atoms: O_6  and  C_20
REMARK    2  A    between atoms: O_6  and  C_23
REMARK    3  A    between atoms: N_8  and  C_16
REMARK    4  A    between atoms: N_9  and  C_17
REMARK    5  A    between atoms: N_12  and  C_22
REMARK    6  A    between atoms: C_28  and  C_33
REMARK                            x       y       z     vdW  Elec       q    Type
REMARK                         _______ _______ _______ _____ _____    ______ ____
ROOT
ATOM      4  O   UNL     1     -15.776   4.337  22.109  0.00  0.00    -0.370 OA
ATOM      5  O   UNL     1     -16.736   6.801  23.813  0.00  0.00    -0.370 OA
ATOM     14  C   UNL     1     -15.451   6.348  23.348  0.00  0.00    +0.176 C 
ATOM     15  C   UNL     1     -15.458   4.834  23.420  0.00  0.00    +0.172 C 
ATOM     16  C   UNL     1     -15.295   6.664  21.874  0.00  0.00    +0.171 C 
ATOM     17  C   UNL     1     -16.573   4.509  24.388  0.00  0.00    +0.131 C 
ATOM     18  C   UNL     1     -15.891   5.435  21.195  0.00  0.00    +0.190 C 
ATOM     19  C   UNL     1     -17.533   5.664  24.174  0.00  0.00    +0.185 C 
ENDROOT
BRANCH  17   9
ATOM      7  O   UNL     1     -16.560   2.246  26.145  0.00  0.00    -0.252 OA
ATOM      9  N   UNL     1     -16.091   4.475  25.748  0.00  0.00    -0.292 N 
ATOM     12  N   UNL     1     -15.590   3.590  27.807  0.00  0.00    -0.269 N 
ATOM     21  C   UNL     1     -16.119   3.323  26.542  0.00  0.00    +0.304 C 
ATOM     35  H   UNL     1     -15.650   5.309  26.125  0.00  0.00    +0.151 HD
ATOM     36  H   UNL     1     -15.269   4.541  27.974  0.00  0.00    +0.156 HD
BRANCH  12  22
ATOM     22  C   UNL     1     -15.442   2.696  28.893  0.00  0.00    +0.035 A 
ATOM     24  C   UNL     1     -14.795   3.124  30.041  0.00  0.00    +0.035 A 
ATOM     25  C   UNL     1     -15.950   1.412  28.788  0.00  0.00    +0.023 A 
ATOM     28  C   UNL     1     -14.651   2.243  31.113  0.00  0.00    +0.057 A 
ATOM     29  C   UNL     1     -15.806   0.531  29.860  0.00  0.00    +0.002 A 
ATOM     30  C   UNL     1     -15.156   0.946  31.023  0.00  0.00    +0.012 A 
BRANCH  28  33
ATOM      1  F   UNL     1     -12.682   3.130  32.142  0.00  0.00    -0.166 F 
ATOM      2  F   UNL     1     -13.840   1.704  33.298  0.00  0.00    -0.166 F 
ATOM      3  F   UNL     1     -14.603   3.715  32.978  0.00  0.00    -0.166 F 
ATOM     33  C   UNL     1     -13.957   2.687  32.356  0.00  0.00    +0.417 C 
ENDBRANCH  28  33
ENDBRANCH  12  22
ENDBRANCH  17   9
BRANCH  16   8
ATOM      8  N   UNL     1     -13.908   6.964  21.507  0.00  0.00    -0.187 N 
ATOM     10  N   UNL     1     -13.074   5.993  21.124  0.00  0.00    -0.041 NA
ATOM     11  N   UNL     1     -12.038   7.967  21.097  0.00  0.00    -0.071 NA
ATOM     13  N   UNL     1     -11.928   6.613  20.874  0.00  0.00    -0.020 NA
ATOM     20  C   UNL     1     -13.276   8.162  21.490  0.00  0.00    +0.342 A 
BRANCH  20   6
ATOM      6  O   UNL     1     -13.828   9.315  21.816  0.00  0.00    -0.423 OA
BRANCH   6  23
ATOM     23  C   UNL     1     -13.468  10.021  22.956  0.00  0.00    +0.132 A 
ATOM     26  C   UNL     1     -14.143   9.778  24.136  0.00  0.00    +0.046 A 
ATOM     27  C   UNL     1     -12.443  10.944  22.876  0.00  0.00    +0.046 A 
ATOM     31  C   UNL     1     -13.780  10.488  25.281  0.00  0.00    +0.004 A 
ATOM     32  C   UNL     1     -12.081  11.654  24.020  0.00  0.00    +0.004 A 
ATOM     34  C   UNL     1     -12.749  11.426  25.224  0.00  0.00    +0.000 A 
ENDBRANCH   6  23
ENDBRANCH  20   6
ENDBRANCH  16   8
TORSDOF 6
ENDMDL
MODEL 4
REMARK VINA RESULT:      -7.9     18.630     20.145
REMARK  Name = 11886185
REMARK  6 active torsions:
REMARK  status: ('A' for Active; 'I' for Inactive)
REMARK    1  A    between atoms: O_6  and  C_20
REMARK    2  A    between atoms: O_6  and  C_23
REMARK    3  A    between atoms: N_8  and  C_16
REMARK    4  A    between atoms: N_9  and  C_17
REMARK    5  A    between atoms: N_12  and  C_22
REMARK    6  A    between atoms: C_28  and  C_33
REMARK                            x       y       z     vdW  Elec       q    Type
REMARK                         _______ _______ _______ _____ _____    ______ ____
ROOT
ATOM      4  O   UNL     1     -14.148   5.874  21.612  0.00  0.00    -0.370 OA
ATOM      5  O   UNL     1     -16.975   6.843  22.594  0.00  0.00    -0.370 OA
ATOM     14  C   UNL     1     -15.630   7.314  22.800  0.00  0.00    +0.176 C 
ATOM     15  C   UNL     1     -14.739   6.092  22.903  0.00  0.00    +0.172 C 
ATOM     16  C   UNL     1     -15.144   8.043  21.563  0.00  0.00    +0.171 C 
ATOM     17  C   UNL     1     -15.687   4.964  23.244  0.00  0.00    +0.131 C 
ATOM     18  C   UNL     1     -14.543   6.924  20.719  0.00  0.00    +0.190 C 
ATOM     19  C   UNL     1     -16.972   5.408  22.571  0.00  0.00    +0.185 C 
ENDROOT
BRANCH  17   9
ATOM      7  O   UNL     1     -15.669   2.537  24.766  0.00  0.00    -0.252 OA
ATOM      9  N   UNL     1     -15.859   4.840  24.671  0.00  0.00    -0.292 N 
ATOM     12  N   UNL     1     -16.031   3.800  26.712  0.00  0.00    -0.269 N 
ATOM     21  C   UNL     1     -15.837   3.611  25.341  0.00  0.00    +0.304 C 
ATOM     35  H   UNL     1     -15.935   5.688  25.224  0.00  0.00    +0.151 HD
ATOM     36  H   UNL     1     -16.156   4.760  27.025  0.00  0.00    +0.156 HD
BRANCH  12  22
ATOM     22  C   UNL     1     -16.075   2.816  27.727  0.00  0.00    +0.035 A 
ATOM     24  C   UNL     1     -15.085   2.795  28.695  0.00  0.00    +0.035 A 
ATOM     25  C   UNL     1     -17.108   1.894  27.732  0.00  0.00    +0.023 A 
ATOM     28  C   UNL     1     -15.129   1.825  29.697  0.00  0.00    +0.057 A 
ATOM     29  C   UNL     1     -17.154   0.924  28.734  0.00  0.00    +0.002 A 
ATOM     30  C   UNL     1     -16.164   0.890  29.717  0.00  0.00    +0.012 A 
BRANCH  28  33
ATOM      1  F   UNL     1     -14.558   1.908  32.018  0.00  0.00    -0.166 F 
ATOM      2  F   UNL     1     -13.144   2.785  30.625  0.00  0.00    -0.166 F 
ATOM      3  F   UNL     1     -13.360   0.624  30.735  0.00  0.00    -0.166 F 
ATOM     33  C   UNL     1     -14.071   1.788  30.747  0.00  0.00    +0.417 C 
ENDBRANCH  28  33
ENDBRANCH  12  22
ENDBRANCH  17   9
BRANCH  16   8
ATOM      8  N   UNL     1     -14.227   9.141  21.882  0.00  0.00    -0.187 N 
ATOM     10  N   UNL     1     -14.661  10.236  22.512  0.00  0.00    -0.041 NA
ATOM     11  N   UNL     1     -12.478  10.395  22.084  0.00  0.00    -0.071 NA
ATOM     13  N   UNL     1     -13.584  11.003  22.634  0.00  0.00    -0.020 NA
ATOM     20  C   UNL     1     -12.902   9.240  21.623  0.00  0.00    +0.342 A 
BRANCH  20   6
ATOM      6  O   UNL     1     -12.177   8.322  21.011  0.00  0.00    -0.423 OA
BRANCH   6  23
ATOM     23  C   UNL     1     -11.491   8.575  19.832  0.00  0.00    +0.132 A 
ATOM     26  C   UNL     1     -10.841   9.785  19.681  0.00  0.00    +0.046 A 
ATOM     27  C   UNL     1     -11.477   7.609  18.844  0.00  0.00    +0.046 A 
ATOM     31  C   UNL     1     -10.150  10.038  18.495  0.00  0.00    +0.004 A 
ATOM     32  C   UNL     1     -10.788   7.863  17.659  0.00  0.00    +0.004 A 
ATOM     34  C   UNL     1     -10.124   9.078  17.484  0.00  0.00    +0.000 A 
ENDBRANCH   6  23
ENDBRANCH  20   6
ENDBRANCH  16   8
TORSDOF 6
ENDMDL
MODEL 5
REMARK VINA RESULT:      -7.9     23.744     26.685
REMARK  Name = 11886185
REMARK  6 active torsions:
REMARK  status: ('A' for Active; 'I' for Inactive)
REMARK    1  A    between atoms: O_6  and  C_20
REMARK    2  A    between atoms: O_6  and  C_23
REMARK    3  A    between atoms: N_8  and  C_16
REMARK    4  A    between atoms: N_9  and  C_17
REMARK    5  A    between atoms: N_12  and  C_22
REMARK    6  A    between atoms: C_28  and  C_33
REMARK                            x       y       z     vdW  Elec       q    Type
REMARK                         _______ _______ _______ _____ _____    ______ ____
ROOT
ATOM      4  O   UNL     1      12.074   5.544  -0.881  0.00  0.00    -0.370 OA
ATOM      5  O   UNL     1      12.868   3.001   0.792  0.00  0.00    -0.370 OA
ATOM     14  C   UNL     1      11.741   3.339  -0.038  0.00  0.00    +0.176 C 
ATOM     15  C   UNL     1      11.447   4.809   0.183  0.00  0.00    +0.172 C 
ATOM     16  C   UNL     1      12.129   3.239  -1.500  0.00  0.00    +0.171 C 
ATOM     17  C   UNL     1      12.111   5.130   1.503  0.00  0.00    +0.131 C 
ATOM     18  C   UNL     1      12.676   4.629  -1.806  0.00  0.00    +0.190 C 
ATOM     19  C   UNL     1      13.284   4.166   1.517  0.00  0.00    +0.185 C 
ENDROOT
BRANCH  17   9
ATOM      7  O   UNL     1      11.679   6.832   3.767  0.00  0.00    -0.252 OA
ATOM      9  N   UNL     1      11.219   4.883   2.611  0.00  0.00    -0.292 N 
ATOM     12  N   UNL     1      10.139   5.269   4.601  0.00  0.00    -0.269 N 
ATOM     21  C   UNL     1      11.065   5.771   3.682  0.00  0.00    +0.304 C 
ATOM     35  H   UNL     1      10.626   4.059   2.579  0.00  0.00    +0.151 HD
ATOM     36  H   UNL     1       9.720   4.368   4.378  0.00  0.00    +0.156 HD
BRANCH  12  22
ATOM     22  C   UNL     1       9.707   5.861   5.810  0.00  0.00    +0.035 A 
ATOM     24  C   UNL     1       9.787   5.136   6.987  0.00  0.00    +0.035 A 
ATOM     25  C   UNL     1       9.214   7.155   5.793  0.00  0.00    +0.023 A 
ATOM     28  C   UNL     1       9.362   5.720   8.180  0.00  0.00    +0.057 A 
ATOM     29  C   UNL     1       8.789   7.741   6.986  0.00  0.00    +0.002 A 
ATOM     30  C   UNL     1       8.864   7.023   8.180  0.00  0.00    +0.012 A 
BRANCH  28  33
ATOM      1  F   UNL     1       9.543   3.603   9.278  0.00  0.00    -0.166 F 
ATOM      2  F   UNL     1       8.356   5.126  10.268  0.00  0.00    -0.166 F 
ATOM      3  F   UNL     1      10.522   5.305  10.214  0.00  0.00    -0.166 F 
ATOM     33  C   UNL     1       9.442   4.954   9.457  0.00  0.00    +0.417 C 
ENDBRANCH  28  33
ENDBRANCH  12  22
ENDBRANCH  17   9
BRANCH  16   8
ATOM      8  N   UNL     1      11.014   2.810  -2.349  0.00  0.00    -0.187 N 
ATOM     10  N   UNL     1      10.560   1.555  -2.303  0.00  0.00    -0.041 NA
ATOM     11  N   UNL     1       9.399   2.750  -3.784  0.00  0.00    -0.071 NA
ATOM     13  N   UNL     1       9.569   1.523  -3.185  0.00  0.00    -0.020 NA
ATOM     20  C   UNL     1      10.307   3.534  -3.250  0.00  0.00    +0.342 A 
BRANCH  20   6
ATOM      6  O   UNL     1      10.513   4.808  -3.528  0.00  0.00    -0.423 OA
BRANCH   6  23
ATOM     23  C   UNL     1       9.479   5.731  -3.609  0.00  0.00    +0.132 A 
ATOM     26  C   UNL     1       9.170   6.283  -4.837  0.00  0.00    +0.046 A 
ATOM     27  C   UNL     1       8.791   6.069  -2.460  0.00  0.00    +0.046 A 
ATOM     31  C   UNL     1       8.131   7.211  -4.918  0.00  0.00    +0.004 A 
ATOM     32  C   UNL     1       7.753   6.997  -2.541  0.00  0.00    +0.004 A 
ATOM     34  C   UNL     1       7.423   7.568  -3.771  0.00  0.00    +0.000 A 
ENDBRANCH   6  23
ENDBRANCH  20   6
ENDBRANCH  16   8
TORSDOF 6
ENDMDL
MODEL 6
REMARK VINA RESULT:      -7.8     17.946     20.732
REMARK  Name = 11886185
REMARK  6 active torsions:
REMARK  status: ('A' for Active; 'I' for Inactive)
REMARK    1  A    between atoms: O_6  and  C_20
REMARK    2  A    between atoms: O_6  and  C_23
REMARK    3  A    between atoms: N_8  and  C_16
REMARK    4  A    between atoms: N_9  and  C_17
REMARK    5  A    between atoms: N_12  and  C_22
REMARK    6  A    between atoms: C_28  and  C_33
REMARK                            x       y       z     vdW  Elec       q    Type
REMARK                         _______ _______ _______ _____ _____    ______ ____
ROOT
ATOM      4  O   UNL     1     -18.133   4.774  24.717  0.00  0.00    -0.370 OA
ATOM      5  O   UNL     1     -16.048   2.420  24.773  0.00  0.00    -0.370 OA
ATOM     14  C   UNL     1     -16.189   3.647  25.512  0.00  0.00    +0.176 C 
ATOM     15  C   UNL     1     -16.709   4.694  24.547  0.00  0.00    +0.172 C 
ATOM     16  C   UNL     1     -17.284   3.501  26.550  0.00  0.00    +0.171 C 
ATOM     17  C   UNL     1     -16.374   4.142  23.180  0.00  0.00    +0.131 C 
ATOM     18  C   UNL     1     -18.539   3.905  25.783  0.00  0.00    +0.190 C 
ATOM     19  C   UNL     1     -16.439   2.644  23.411  0.00  0.00    +0.185 C 
ENDROOT
BRANCH  17   9
ATOM      7  O   UNL     1     -15.685   6.555  21.798  0.00  0.00    -0.252 OA
ATOM      9  N   UNL     1     -15.055   4.550  22.761  0.00  0.00    -0.292 N 
ATOM     12  N   UNL     1     -13.438   5.876  21.810  0.00  0.00    -0.269 N 
ATOM     21  C   UNL     1     -14.802   5.751  22.088  0.00  0.00    +0.304 C 
ATOM     35  H   UNL     1     -14.264   3.970  23.024  0.00  0.00    +0.151 HD
ATOM     36  H   UNL     1     -12.839   5.113  22.119  0.00  0.00    +0.156 HD
BRANCH  12  22
ATOM     22  C   UNL     1     -12.780   6.938  21.147  0.00  0.00    +0.035 A 
ATOM     24  C   UNL     1     -12.959   8.235  21.600  0.00  0.00    +0.035 A 
ATOM     25  C   UNL     1     -11.969   6.659  20.060  0.00  0.00    +0.023 A 
ATOM     28  C   UNL     1     -12.309   9.282  20.947  0.00  0.00    +0.057 A 
ATOM     29  C   UNL     1     -11.318   7.706  19.406  0.00  0.00    +0.002 A 
ATOM     30  C   UNL     1     -11.488   9.018  19.851  0.00  0.00    +0.012 A 
BRANCH  28  33
ATOM      1  F   UNL     1     -11.957  10.916  22.658  0.00  0.00    -0.166 F 
ATOM      2  F   UNL     1     -13.799  11.064  21.521  0.00  0.00    -0.166 F 
ATOM      3  F   UNL     1     -11.906  11.598  20.593  0.00  0.00    -0.166 F 
ATOM     33  C   UNL     1     -12.490  10.684  21.422  0.00  0.00    +0.417 C 
ENDBRANCH  28  33
ENDBRANCH  12  22
ENDBRANCH  17   9
BRANCH  16   8
ATOM      8  N   UNL     1     -17.019   4.281  27.762  0.00  0.00    -0.187 N 
ATOM     10  N   UNL     1     -17.789   5.322  28.089  0.00  0.00    -0.041 NA
ATOM     11  N   UNL     1     -16.179   5.036  29.604  0.00  0.00    -0.071 NA
ATOM     13  N   UNL     1     -17.270   5.783  29.220  0.00  0.00    -0.020 NA
ATOM     20  C   UNL     1     -16.042   4.109  28.683  0.00  0.00    +0.342 A 
BRANCH  20   6
ATOM      6  O   UNL     1     -15.120   3.166  28.644  0.00  0.00    -0.423 OA
BRANCH   6  23
ATOM     23  C   UNL     1     -15.042   2.157  29.594  0.00  0.00    +0.132 A 
ATOM     26  C   UNL     1     -14.241   2.342  30.704  0.00  0.00    +0.046 A 
ATOM     27  C   UNL     1     -15.769   0.998  29.401  0.00  0.00    +0.046 A 
ATOM     31  C   UNL     1     -14.164   1.327  31.659  0.00  0.00    +0.004 A 
ATOM     32  C   UNL     1     -15.691  -0.017  30.355  0.00  0.00    +0.004 A 
ATOM     34  C   UNL     1     -14.888   0.148  31.485  0.00  0.00    +0.000 A 
ENDBRANCH   6  23
ENDBRANCH  20   6
ENDBRANCH  16   8
TORSDOF 6
ENDMDL
MODEL 7
REMARK VINA RESULT:      -7.8      1.729      2.346
REMARK  Name = 11886185
REMARK  6 active torsions:
REMARK  status: ('A' for Active; 'I' for Inactive)
REMARK    1  A    between atoms: O_6  and  C_20
REMARK    2  A    between atoms: O_6  and  C_23
REMARK    3  A    between atoms: N_8  and  C_16
REMARK    4  A    between atoms: N_9  and  C_17
REMARK    5  A    between atoms: N_12  and  C_22
REMARK    6  A    between atoms: C_28  and  C_33
REMARK                            x       y       z     vdW  Elec       q    Type
REMARK                         _______ _______ _______ _____ _____    ______ ____
ROOT
ATOM      4  O   UNL     1      -4.902 -10.663  18.018  0.00  0.00    -0.370 OA
ATOM      5  O   UNL     1      -6.603 -11.485  15.503  0.00  0.00    -0.370 OA
ATOM     14  C   UNL     1      -5.442 -10.656  15.696  0.00  0.00    +0.176 C 
ATOM     15  C   UNL     1      -5.624  -9.930  17.014  0.00  0.00    +0.172 C 
ATOM     16  C   UNL     1      -4.216 -11.524  15.899  0.00  0.00    +0.171 C 
ATOM     17  C   UNL     1      -7.111 -10.004  17.280  0.00  0.00    +0.131 C 
ATOM     18  C   UNL     1      -4.208 -11.758  17.406  0.00  0.00    +0.190 C 
ATOM     19  C   UNL     1      -7.494 -11.312  16.614  0.00  0.00    +0.185 C 
ENDROOT
BRANCH  17   9
ATOM      7  O   UNL     1      -9.948  -9.652  17.090  0.00  0.00    -0.252 OA
ATOM      9  N   UNL     1      -7.804  -8.889  16.681  0.00  0.00    -0.292 N 
ATOM     12  N   UNL     1      -9.584  -7.609  15.993  0.00  0.00    -0.269 N 
ATOM     21  C   UNL     1      -9.200  -8.793  16.630  0.00  0.00    +0.304 C 
ATOM     35  H   UNL     1      -7.255  -8.106  16.339  0.00  0.00    +0.151 HD
ATOM     36  H   UNL     1      -8.833  -7.004  15.667  0.00  0.00    +0.156 HD
BRANCH  12  22
ATOM     22  C   UNL     1     -10.895  -7.143  15.742  0.00  0.00    +0.035 A 
ATOM     24  C   UNL     1     -11.971  -7.809  16.306  0.00  0.00    +0.035 A 
ATOM     25  C   UNL     1     -11.077  -6.030  14.939  0.00  0.00    +0.023 A 
ATOM     28  C   UNL     1     -13.264  -7.348  16.060  0.00  0.00    +0.057 A 
ATOM     29  C   UNL     1     -12.370  -5.569  14.692  0.00  0.00    +0.002 A 
ATOM     30  C   UNL     1     -13.464  -6.228  15.253  0.00  0.00    +0.012 A 
BRANCH  28  33
ATOM      1  F   UNL     1     -15.428  -7.211  17.071  0.00  0.00    -0.166 F 
ATOM      2  F   UNL     1     -14.118  -8.797  17.762  0.00  0.00    -0.166 F 
ATOM      3  F   UNL     1     -15.026  -8.922  15.790  0.00  0.00    -0.166 F 
ATOM     33  C   UNL     1     -14.434  -8.053  16.659  0.00  0.00    +0.417 C 
ENDBRANCH  28  33
ENDBRANCH  12  22
ENDBRANCH  17   9
BRANCH  16   8
ATOM      8  N   UNL     1      -2.998 -10.914  15.360  0.00  0.00    -0.187 N 
ATOM     10  N   UNL     1      -2.071 -10.400  16.172  0.00  0.00    -0.041 NA
ATOM     11  N   UNL     1      -1.458 -10.165  14.041  0.00  0.00    -0.071 NA
ATOM     13  N   UNL     1      -1.127  -9.943  15.359  0.00  0.00    -0.020 NA
ATOM     20  C   UNL     1      -2.624 -10.769  14.066  0.00  0.00    +0.342 A 
BRANCH  20   6
ATOM      6  O   UNL     1      -3.326 -11.173  13.024  0.00  0.00    -0.423 OA
BRANCH   6  23
ATOM     23  C   UNL     1      -3.763 -10.304  12.034  0.00  0.00    +0.132 A 
ATOM     26  C   UNL     1      -2.937 -10.045  10.958  0.00  0.00    +0.046 A 
ATOM     27  C   UNL     1      -5.011  -9.723  12.156  0.00  0.00    +0.046 A 
ATOM     31  C   UNL     1      -3.377  -9.172   9.962  0.00  0.00    +0.004 A 
ATOM     32  C   UNL     1      -5.450  -8.849  11.162  0.00  0.00    +0.004 A 
ATOM     34  C   UNL     1      -4.633  -8.573  10.065  0.00  0.00    +0.000 A 
ENDBRANCH   6  23
ENDBRANCH  20   6
ENDBRANCH  16   8
TORSDOF 6
ENDMDL
MODEL 8
REMARK VINA RESULT:      -7.7     24.445     27.657
REMARK  Name = 11886185
REMARK  6 active torsions:
REMARK  status: ('A' for Active; 'I' for Inactive)
REMARK    1  A    between atoms: O_6  and  C_20
REMARK    2  A    between atoms: O_6  and  C_23
REMARK    3  A    between atoms: N_8  and  C_16
REMARK    4  A    between atoms: N_9  and  C_17
REMARK    5  A    between atoms: N_12  and  C_22
REMARK    6  A    between atoms: C_28  and  C_33
REMARK                            x       y       z     vdW  Elec       q    Type
REMARK                         _______ _______ _______ _____ _____    ______ ____
ROOT
ATOM      4  O   UNL     1       8.646   7.315   6.643  0.00  0.00    -0.370 OA
ATOM      5  O   UNL     1      10.872   5.562   8.007  0.00  0.00    -0.370 OA
ATOM     14  C   UNL     1      10.898   6.705   7.133  0.00  0.00    +0.176 C 
ATOM     15  C   UNL     1       9.754   6.544   6.151  0.00  0.00    +0.172 C 
ATOM     16  C   UNL     1      10.561   7.959   7.915  0.00  0.00    +0.171 C 
ATOM     17  C   UNL     1       9.426   5.068   6.197  0.00  0.00    +0.131 C 
ATOM     18  C   UNL     1       9.039   8.020   7.828  0.00  0.00    +0.190 C 
ATOM     19  C   UNL     1       9.791   4.700   7.623  0.00  0.00    +0.185 C 
ENDROOT
BRANCH  17   9
ATOM      7  O   UNL     1      10.109   5.878   3.535  0.00  0.00    -0.252 OA
ATOM      9  N   UNL     1      10.220   4.327   5.247  0.00  0.00    -0.292 N 
ATOM     12  N   UNL     1      11.293   3.868   3.268  0.00  0.00    -0.269 N 
ATOM     21  C   UNL     1      10.509   4.796   3.960  0.00  0.00    +0.304 C 
ATOM     35  H   UNL     1      10.643   3.454   5.547  0.00  0.00    +0.151 HD
ATOM     36  H   UNL     1      11.536   3.016   3.768  0.00  0.00    +0.156 HD
BRANCH  12  22
ATOM     22  C   UNL     1      11.793   3.966   1.949  0.00  0.00    +0.035 A 
ATOM     24  C   UNL     1      13.162   3.985   1.742  0.00  0.00    +0.035 A 
ATOM     25  C   UNL     1      10.903   4.040   0.890  0.00  0.00    +0.023 A 
ATOM     28  C   UNL     1      13.656   4.080   0.441  0.00  0.00    +0.057 A 
ATOM     29  C   UNL     1      11.396   4.135  -0.411  0.00  0.00    +0.002 A 
ATOM     30  C   UNL     1      12.773   4.154  -0.636  0.00  0.00    +0.012 A 
BRANCH  28  33
ATOM      1  F   UNL     1      15.475   3.813  -1.089  0.00  0.00    -0.166 F 
ATOM      2  F   UNL     1      15.819   3.203   0.965  0.00  0.00    -0.166 F 
ATOM      3  F   UNL     1      15.686   5.316   0.468  0.00  0.00    -0.166 F 
ATOM     33  C   UNL     1      15.127   4.101   0.200  0.00  0.00    +0.417 C 
ENDBRANCH  28  33
ENDBRANCH  12  22
ENDBRANCH  17   9
BRANCH  16   8
ATOM      8  N   UNL     1      11.259   9.143   7.406  0.00  0.00    -0.187 N 
ATOM     10  N   UNL     1      10.650  10.331   7.361  0.00  0.00    -0.041 NA
ATOM     11  N   UNL     1      12.734  10.492   6.585  0.00  0.00    -0.071 NA
ATOM     13  N   UNL     1      11.559  11.156   6.856  0.00  0.00    -0.020 NA
ATOM     20  C   UNL     1      12.524   9.244   6.935  0.00  0.00    +0.342 A 
BRANCH  20   6
ATOM      6  O   UNL     1      13.383   8.245   6.850  0.00  0.00    -0.423 OA
BRANCH   6  23
ATOM     23  C   UNL     1      13.943   7.842   5.645  0.00  0.00    +0.132 A 
ATOM     26  C   UNL     1      13.109   7.561   4.580  0.00  0.00    +0.046 A 
ATOM     27  C   UNL     1      15.317   7.733   5.548  0.00  0.00    +0.046 A 
ATOM     31  C   UNL     1      13.672   7.156   3.369  0.00  0.00    +0.004 A 
ATOM     32  C   UNL     1      15.879   7.327   4.338  0.00  0.00    +0.004 A 
ATOM     34  C   UNL     1      15.057   7.038   3.248  0.00  0.00    +0.000 A 
ENDBRANCH   6  23
ENDBRANCH  20   6
ENDBRANCH  16   8
TORSDOF 6
ENDMDL
MODEL 9
REMARK VINA RESULT:      -7.7     25.237     27.470
REMARK  Name = 11886185
REMARK  6 active torsions:
REMARK  status: ('A' for Active; 'I' for Inactive)
REMARK    1  A    between atoms: O_6  and  C_20
REMARK    2  A    between atoms: O_6  and  C_23
REMARK    3  A    between atoms: N_8  and  C_16
REMARK    4  A    between atoms: N_9  and  C_17
REMARK    5  A    between atoms: N_12  and  C_22
REMARK    6  A    between atoms: C_28  and  C_33
REMARK                            x       y       z     vdW  Elec       q    Type
REMARK                         _______ _______ _______ _____ _____    ______ ____
ROOT
ATOM      4  O   UNL     1       9.839   5.831  -4.886  0.00  0.00    -0.370 OA
ATOM      5  O   UNL     1       8.613   6.550  -2.080  0.00  0.00    -0.370 OA
ATOM     14  C   UNL     1       8.923   5.312  -2.747  0.00  0.00    +0.176 C 
ATOM     15  C   UNL     1       8.610   5.506  -4.217  0.00  0.00    +0.172 C 
ATOM     16  C   UNL     1      10.418   5.062  -2.701  0.00  0.00    +0.171 C 
ATOM     17  C   UNL     1       7.668   6.689  -4.247  0.00  0.00    +0.131 C 
ATOM     18  C   UNL     1      10.924   5.776  -3.949  0.00  0.00    +0.190 C 
ATOM     19  C   UNL     1       8.121   7.492  -3.042  0.00  0.00    +0.185 C 
ENDROOT
BRANCH  17   9
ATOM      7  O   UNL     1       6.049   5.440  -6.254  0.00  0.00    -0.252 OA
ATOM      9  N   UNL     1       6.295   6.267  -4.109  0.00  0.00    -0.292 N 
ATOM     12  N   UNL     1       4.273   5.364  -4.721  0.00  0.00    -0.269 N 
ATOM     21  C   UNL     1       5.572   5.661  -5.143  0.00  0.00    +0.304 C 
ATOM     35  H   UNL     1       5.852   6.354  -3.199  0.00  0.00    +0.151 HD
ATOM     36  H   UNL     1       4.038   5.616  -3.763  0.00  0.00    +0.156 HD
BRANCH  12  22
ATOM     22  C   UNL     1       3.237   4.752  -5.463  0.00  0.00    +0.035 A 
ATOM     24  C   UNL     1       2.834   3.468  -5.135  0.00  0.00    +0.035 A 
ATOM     25  C   UNL     1       2.645   5.450  -6.502  0.00  0.00    +0.023 A 
ATOM     28  C   UNL     1       1.810   2.866  -5.867  0.00  0.00    +0.057 A 
ATOM     29  C   UNL     1       1.621   4.849  -7.234  0.00  0.00    +0.002 A 
ATOM     30  C   UNL     1       1.204   3.556  -6.916  0.00  0.00    +0.012 A 
BRANCH  28  33
ATOM      1  F   UNL     1       2.365   0.688  -5.047  0.00  0.00    -0.166 F 
ATOM      2  F   UNL     1       0.843   0.800  -6.589  0.00  0.00    -0.166 F 
ATOM      3  F   UNL     1       0.391   1.467  -4.570  0.00  0.00    -0.166 F 
ATOM     33  C   UNL     1       1.364   1.484  -5.527  0.00  0.00    +0.417 C 
ENDBRANCH  28  33
ENDBRANCH  12  22
ENDBRANCH  17   9
BRANCH  16   8
ATOM      8  N   UNL     1      10.747   3.636  -2.625  0.00  0.00    -0.187 N 
ATOM     10  N   UNL     1       9.813   2.705  -2.837  0.00  0.00    -0.041 NA
ATOM     11  N   UNL     1      11.778   1.751  -2.389  0.00  0.00    -0.071 NA
ATOM     13  N   UNL     1      10.451   1.550  -2.691  0.00  0.00    -0.020 NA
ATOM     20  C   UNL     1      11.939   3.055  -2.353  0.00  0.00    +0.342 A 
BRANCH  20   6
ATOM      6  O   UNL     1      13.059   3.704  -2.098  0.00  0.00    -0.423 OA
BRANCH   6  23
ATOM     23  C   UNL     1      13.659   3.699  -0.846  0.00  0.00    +0.132 A 
ATOM     26  C   UNL     1      12.912   3.320   0.252  0.00  0.00    +0.046 A 
ATOM     27  C   UNL     1      14.985   4.071  -0.737  0.00  0.00    +0.046 A 
ATOM     31  C   UNL     1      13.515   3.314   1.510  0.00  0.00    +0.004 A 
ATOM     32  C   UNL     1      15.587   4.065   0.521  0.00  0.00    +0.004 A 
ATOM     34  C   UNL     1      14.853   3.687   1.645  0.00  0.00    +0.000 A 
ENDBRANCH   6  23
ENDBRANCH  20   6
ENDBRANCH  16   8
TORSDOF 6
ENDMDL
MODEL 10
REMARK VINA RESULT:      -7.6     23.860     27.472
REMARK  Name = 11886185
REMARK  6 active torsions:
REMARK  status: ('A' for Active; 'I' for Inactive)
REMARK    1  A    between atoms: O_6  and  C_20
REMARK    2  A    between atoms: O_6  and  C_23
REMARK    3  A    between atoms: N_8  and  C_16
REMARK    4  A    between atoms: N_9  and  C_17
REMARK    5  A    between atoms: N_12  and  C_22
REMARK    6  A    between atoms: C_28  and  C_33
REMARK                            x       y       z     vdW  Elec       q    Type
REMARK                         _______ _______ _______ _____ _____    ______ ____
ROOT
ATOM      4  O   UNL     1      13.689   6.148  -0.027  0.00  0.00    -0.370 OA
ATOM      5  O   UNL     1      12.556   3.219   0.145  0.00  0.00    -0.370 OA
ATOM     14  C   UNL     1      12.035   4.463  -0.357  0.00  0.00    +0.176 C 
ATOM     15  C   UNL     1      12.522   5.559   0.570  0.00  0.00    +0.172 C 
ATOM     16  C   UNL     1      12.667   4.783  -1.698  0.00  0.00    +0.171 C 
ATOM     17  C   UNL     1      12.894   4.835   1.844  0.00  0.00    +0.131 C 
ATOM     18  C   UNL     1      13.925   5.552  -1.309  0.00  0.00    +0.190 C 
ATOM     19  C   UNL     1      13.327   3.475   1.328  0.00  0.00    +0.185 C 
ENDROOT
BRANCH  17   9
ATOM      7  O   UNL     1      12.336   6.469   4.130  0.00  0.00    -0.252 OA
ATOM      9  N   UNL     1      11.761   4.721   2.730  0.00  0.00    -0.292 N 
ATOM     12  N   UNL     1      10.385   5.218   4.501  0.00  0.00    -0.269 N 
ATOM     21  C   UNL     1      11.561   5.564   3.830  0.00  0.00    +0.304 C 
ATOM     35  H   UNL     1      11.041   4.040   2.508  0.00  0.00    +0.151 HD
ATOM     36  H   UNL     1       9.857   4.436   4.119  0.00  0.00    +0.156 HD
BRANCH  12  22
ATOM     22  C   UNL     1       9.834   5.823   5.654  0.00  0.00    +0.035 A 
ATOM     24  C   UNL     1       9.896   5.155   6.866  0.00  0.00    +0.035 A 
ATOM     25  C   UNL     1       9.244   7.072   5.548  0.00  0.00    +0.023 A 
ATOM     28  C   UNL     1       9.352   5.753   8.004  0.00  0.00    +0.057 A 
ATOM     29  C   UNL     1       8.701   7.670   6.685  0.00  0.00    +0.002 A 
ATOM     30  C   UNL     1       8.755   7.010   7.914  0.00  0.00    +0.012 A 
BRANCH  28  33
ATOM      1  F   UNL     1      10.540   5.324  10.035  0.00  0.00    -0.166 F 
ATOM      2  F   UNL     1       9.381   3.686   9.209  0.00  0.00    -0.166 F 
ATOM      3  F   UNL     1       8.368   5.373  10.134  0.00  0.00    -0.166 F 
ATOM     33  C   UNL     1       9.411   5.048   9.317  0.00  0.00    +0.417 C 
ENDBRANCH  28  33
ENDBRANCH  12  22
ENDBRANCH  17   9
BRANCH  16   8
ATOM      8  N   UNL     1      11.754   5.499  -2.593  0.00  0.00    -0.187 N 
ATOM     10  N   UNL     1      11.625   6.827  -2.522  0.00  0.00    -0.041 NA
ATOM     11  N   UNL     1      10.304   5.999  -4.116  0.00  0.00    -0.071 NA
ATOM     13  N   UNL     1      10.735   7.129  -3.459  0.00  0.00    -0.020 NA
ATOM     20  C   UNL     1      10.951   4.999  -3.561  0.00  0.00    +0.342 A 
BRANCH  20   6
ATOM      6  O   UNL     1      10.850   3.722  -3.878  0.00  0.00    -0.423 OA
BRANCH   6  23
ATOM     23  C   UNL     1      11.368   3.199  -5.055  0.00  0.00    +0.132 A 
ATOM     26  C   UNL     1      12.732   3.005  -5.158  0.00  0.00    +0.046 A 
ATOM     27  C   UNL     1      10.505   2.889  -6.088  0.00  0.00    +0.046 A 
ATOM     31  C   UNL     1      13.253   2.480  -6.341  0.00  0.00    +0.004 A 
ATOM     32  C   UNL     1      11.025   2.365  -7.271  0.00  0.00    +0.004 A 
ATOM     34  C   UNL     1      12.400   2.160  -7.397  0.00  0.00    +0.000 A 
ENDBRANCH   6  23
ENDBRANCH  20   6
ENDBRANCH  16   8
TORSDOF 6
ENDMDL
