MODEL 1
REMARK VINA RESULT:      -7.4      0.000      0.000
REMARK  Name = 75366945
REMARK  7 active torsions:
REMARK  status: ('A' for Active; 'I' for Inactive)
REMARK    1  A    between atoms: O_3  and  C_10
REMARK    2  A    between atoms: N_6  and  C_12
REMARK    3  A    between atoms: N_7  and  C_20
REMARK    4  A    between atoms: C_9  and  C_20
REMARK    5  A    between atoms: C_11  and  C_21
REMARK    6  A    between atoms: C_21  and  C_23
REMARK    7  A    between atoms: C_25  and  C_26
REMARK                            x       y       z     vdW  Elec       q    Type
REMARK                         _______ _______ _______ _____ _____    ______ ____
ROOT
ATOM      2  O   UNL     1      12.885  10.862  23.186  0.00  0.00    -0.369 OA
ATOM      9  C   UNL     1      11.528  10.542  23.520  0.00  0.00    +0.164 C 
ATOM     10  C   UNL     1      10.878  11.661  24.346  0.00  0.00    +0.145 C 
ATOM     11  C   UNL     1      13.067  12.106  22.504  0.00  0.00    +0.125 C 
ATOM     13  C   UNL     1      11.075  13.037  23.716  0.00  0.00    +0.036 C 
ATOM     14  C   UNL     1      12.537  13.265  23.346  0.00  0.00    +0.034 C 
ENDROOT
BRANCH  10   3
ATOM      3  O   UNL     1      11.480  11.684  25.643  0.00  0.00    -0.389 OA
ATOM     34  H   UNL     1      12.278  11.128  25.606  0.00  0.00    +0.210 HD
ENDBRANCH  10   3
BRANCH   9  20
ATOM     20  C   UNL     1      10.725  10.179  22.273  0.00  0.00    +0.140 C 
BRANCH  20   7
ATOM      4  O   UNL     1      10.491   8.052  20.352  0.00  0.00    -0.253 OA
ATOM      6  N   UNL     1      12.386   8.855  19.276  0.00  0.00    -0.297 N 
ATOM      7  N   UNL     1      11.590   9.932  21.160  0.00  0.00    -0.297 N 
ATOM     22  C   UNL     1      11.407   8.869  20.267  0.00  0.00    +0.300 C 
ATOM     32  H   UNL     1      13.139   9.532  19.345  0.00  0.00    +0.151 HD
ATOM     33  H   UNL     1      12.385  10.549  21.020  0.00  0.00    +0.150 HD
BRANCH   6  12
ATOM     12  C   UNL     1      12.434   7.864  18.225  0.00  0.00    +0.074 C 
ATOM     15  C   UNL     1      13.844   7.753  17.635  0.00  0.00    +0.022 C 
ATOM     16  C   UNL     1      11.398   8.166  17.137  0.00  0.00    +0.022 C 
ATOM     17  C   UNL     1      14.219   8.969  16.786  0.00  0.00    +0.002 C 
ATOM     18  C   UNL     1      11.777   9.379  16.289  0.00  0.00    +0.002 C 
ATOM     19  C   UNL     1      13.180   9.241  15.703  0.00  0.00    +0.000 C 
ENDBRANCH   6  12
ENDBRANCH  20   7
ENDBRANCH   9  20
BRANCH  11  21
ATOM     21  C   UNL     1      14.558  12.267  22.235  0.00  0.00    +0.090 C 
BRANCH  21  23
ATOM      5  O   UNL     1      15.389   9.597  19.961  0.00  0.00    -0.354 OA
ATOM      8  N   UNL     1      14.655  10.720  20.323  0.00  0.00    -0.083 NA
ATOM     23  C   UNL     1      15.129  11.070  21.522  0.00  0.00    +0.087 A 
ATOM     24  C   UNL     1      16.152  10.213  21.962  0.00  0.00    +0.076 A 
ATOM     25  C   UNL     1      16.277   9.305  20.945  0.00  0.00    +0.167 A 
BRANCH  25  26
ATOM      1  F   UNL     1      19.520   4.878  20.034  0.00  0.00    -0.205 F 
ATOM     26  C   UNL     1      17.113   8.164  20.711  0.00  0.00    +0.020 A 
ATOM     27  C   UNL     1      18.339   8.050  21.366  0.00  0.00    +0.014 A 
ATOM     28  C   UNL     1      16.699   7.166  19.827  0.00  0.00    +0.014 A 
ATOM     29  C   UNL     1      19.152   6.941  21.138  0.00  0.00    +0.039 A 
ATOM     30  C   UNL     1      17.513   6.056  19.599  0.00  0.00    +0.039 A 
ATOM     31  C   UNL     1      18.739   5.943  20.253  0.00  0.00    +0.123 A 
ENDBRANCH  25  26
ENDBRANCH  21  23
ENDBRANCH  11  21
TORSDOF 7
ENDMDL
MODEL 2
REMARK VINA RESULT:      -7.2     17.687     22.237
REMARK  Name = 75366945
REMARK  7 active torsions:
REMARK  status: ('A' for Active; 'I' for Inactive)
REMARK    1  A    between atoms: O_3  and  C_10
REMARK    2  A    between atoms: N_6  and  C_12
REMARK    3  A    between atoms: N_7  and  C_20
REMARK    4  A    between atoms: C_9  and  C_20
REMARK    5  A    between atoms: C_11  and  C_21
REMARK    6  A    between atoms: C_21  and  C_23
REMARK    7  A    between atoms: C_25  and  C_26
REMARK                            x       y       z     vdW  Elec       q    Type
REMARK                         _______ _______ _______ _____ _____    ______ ____
ROOT
ATOM      2  O   UNL     1      12.920   3.285   0.724  0.00  0.00    -0.369 OA
ATOM      9  C   UNL     1      13.403   4.098   1.801  0.00  0.00    +0.164 C 
ATOM     10  C   UNL     1      14.913   4.342   1.681  0.00  0.00    +0.145 C 
ATOM     11  C   UNL     1      13.206   3.778  -0.588  0.00  0.00    +0.125 C 
ATOM     13  C   UNL     1      15.317   4.819   0.289  0.00  0.00    +0.036 C 
ATOM     14  C   UNL     1      14.713   3.925  -0.790  0.00  0.00    +0.034 C 
ENDROOT
BRANCH  10   3
ATOM      3  O   UNL     1      15.599   3.113   1.938  0.00  0.00    -0.389 OA
ATOM     34  H   UNL     1      15.092   2.399   1.515  0.00  0.00    +0.210 HD
ENDBRANCH  10   3
BRANCH   9  20
ATOM     20  C   UNL     1      12.598   5.391   1.919  0.00  0.00    +0.140 C 
BRANCH  20   7
ATOM      4  O   UNL     1      10.155   4.421   3.084  0.00  0.00    -0.253 OA
ATOM      6  N   UNL     1      10.748   5.428   5.091  0.00  0.00    -0.297 N 
ATOM      7  N   UNL     1      12.151   5.595   3.263  0.00  0.00    -0.297 N 
ATOM     22  C   UNL     1      10.943   5.087   3.755  0.00  0.00    +0.300 C 
ATOM     32  H   UNL     1      11.425   6.046   5.526  0.00  0.00    +0.151 HD
ATOM     33  H   UNL     1      12.732   6.148   3.886  0.00  0.00    +0.150 HD
BRANCH   6  12
ATOM     12  C   UNL     1       9.580   5.031   5.846  0.00  0.00    +0.074 C 
ATOM     15  C   UNL     1       8.410   5.990   5.598  0.00  0.00    +0.022 C 
ATOM     16  C   UNL     1       9.902   4.923   7.340  0.00  0.00    +0.022 C 
ATOM     17  C   UNL     1       8.624   7.355   6.254  0.00  0.00    +0.002 C 
ATOM     18  C   UNL     1      10.112   6.288   7.994  0.00  0.00    +0.002 C 
ATOM     19  C   UNL     1       8.931   7.221   7.742  0.00  0.00    +0.000 C 
ENDBRANCH   6  12
ENDBRANCH  20   7
ENDBRANCH   9  20
BRANCH  11  21
ATOM     21  C   UNL     1      12.618   2.791  -1.588  0.00  0.00    +0.090 C 
BRANCH  21  23
ATOM      5  O   UNL     1       9.380   3.200  -3.119  0.00  0.00    -0.354 OA
ATOM      8  N   UNL     1      10.448   2.421  -2.689  0.00  0.00    -0.083 NA
ATOM     23  C   UNL     1      11.318   3.287  -2.163  0.00  0.00    +0.087 A 
ATOM     24  C   UNL     1      10.859   4.613  -2.233  0.00  0.00    +0.076 A 
ATOM     25  C   UNL     1       9.637   4.504  -2.842  0.00  0.00    +0.167 A 
BRANCH  25  26
ATOM      1  F   UNL     1       5.678   8.112  -4.340  0.00  0.00    -0.205 F 
ATOM     26  C   UNL     1       8.617   5.435  -3.228  0.00  0.00    +0.020 A 
ATOM     27  C   UNL     1       8.360   6.555  -2.439  0.00  0.00    +0.014 A 
ATOM     28  C   UNL     1       7.881   5.218  -4.394  0.00  0.00    +0.014 A 
ATOM     29  C   UNL     1       7.367   7.460  -2.815  0.00  0.00    +0.039 A 
ATOM     30  C   UNL     1       6.888   6.123  -4.770  0.00  0.00    +0.039 A 
ATOM     31  C   UNL     1       6.631   7.244  -3.980  0.00  0.00    +0.123 A 
ENDBRANCH  25  26
ENDBRANCH  21  23
ENDBRANCH  11  21
TORSDOF 7
ENDMDL
MODEL 3
REMARK VINA RESULT:      -7.0     27.265     29.299
REMARK  Name = 75366945
REMARK  7 active torsions:
REMARK  status: ('A' for Active; 'I' for Inactive)
REMARK    1  A    between atoms: O_3  and  C_10
REMARK    2  A    between atoms: N_6  and  C_12
REMARK    3  A    between atoms: N_7  and  C_20
REMARK    4  A    between atoms: C_9  and  C_20
REMARK    5  A    between atoms: C_11  and  C_21
REMARK    6  A    between atoms: C_21  and  C_23
REMARK    7  A    between atoms: C_25  and  C_26
REMARK                            x       y       z     vdW  Elec       q    Type
REMARK                         _______ _______ _______ _____ _____    ______ ____
ROOT
ATOM      2  O   UNL     1      -4.674  -9.258  11.758  0.00  0.00    -0.369 OA
ATOM      9  C   UNL     1      -5.966  -9.041  11.176  0.00  0.00    +0.164 C 
ATOM     10  C   UNL     1      -5.919  -9.180   9.648  0.00  0.00    +0.145 C 
ATOM     11  C   UNL     1      -4.057 -10.505  11.426  0.00  0.00    +0.125 C 
ATOM     13  C   UNL     1      -5.223 -10.463   9.202  0.00  0.00    +0.036 C 
ATOM     14  C   UNL     1      -3.884 -10.633   9.914  0.00  0.00    +0.034 C 
ENDROOT
BRANCH  10   3
ATOM      3  O   UNL     1      -5.188  -8.076   9.108  0.00  0.00    -0.389 OA
ATOM     34  H   UNL     1      -4.676  -7.679   9.835  0.00  0.00    +0.210 HD
ENDBRANCH  10   3
BRANCH   9  20
ATOM     20  C   UNL     1      -7.019  -9.937  11.823  0.00  0.00    +0.140 C 
BRANCH  20   7
ATOM      4  O   UNL     1      -7.841 -11.170  14.288  0.00  0.00    -0.253 OA
ATOM      6  N   UNL     1      -8.563  -9.099  15.049  0.00  0.00    -0.297 N 
ATOM      7  N   UNL     1      -7.625  -9.288  12.946  0.00  0.00    -0.297 N 
ATOM     22  C   UNL     1      -7.997  -9.963  14.114  0.00  0.00    +0.300 C 
ATOM     32  H   UNL     1      -8.714  -8.134  14.772  0.00  0.00    +0.151 HD
ATOM     33  H   UNL     1      -7.807  -8.290  12.885  0.00  0.00    +0.150 HD
BRANCH   6  12
ATOM     12  C   UNL     1      -9.035  -9.535  16.345  0.00  0.00    +0.074 C 
ATOM     15  C   UNL     1     -10.357 -10.300  16.221  0.00  0.00    +0.022 C 
ATOM     16  C   UNL     1      -9.166  -8.351  17.309  0.00  0.00    +0.022 C 
ATOM     17  C   UNL     1     -11.532  -9.384  15.873  0.00  0.00    +0.002 C 
ATOM     18  C   UNL     1     -10.342  -7.440  16.960  0.00  0.00    +0.002 C 
ATOM     19  C   UNL     1     -11.648  -8.222  16.853  0.00  0.00    +0.000 C 
ENDBRANCH   6  12
ENDBRANCH  20   7
ENDBRANCH   9  20
BRANCH  11  21
ATOM     21  C   UNL     1      -2.709 -10.552  12.133  0.00  0.00    +0.090 C 
BRANCH  21  23
ATOM      5  O   UNL     1      -2.309 -10.397  15.712  0.00  0.00    -0.354 OA
ATOM      8  N   UNL     1      -1.828 -10.270  14.414  0.00  0.00    -0.083 NA
ATOM     23  C   UNL     1      -2.864 -10.581  13.630  0.00  0.00    +0.087 A 
ATOM     24  C   UNL     1      -4.012 -10.912  14.370  0.00  0.00    +0.076 A 
ATOM     25  C   UNL     1      -3.611 -10.780  15.673  0.00  0.00    +0.167 A 
BRANCH  25  26
ATOM      1  F   UNL     1      -6.081 -11.444  20.612  0.00  0.00    -0.205 F 
ATOM     26  C   UNL     1      -4.248 -10.952  16.945  0.00  0.00    +0.020 A 
ATOM     27  C   UNL     1      -5.490 -10.366  17.189  0.00  0.00    +0.014 A 
ATOM     28  C   UNL     1      -3.624 -11.704  17.941  0.00  0.00    +0.014 A 
ATOM     29  C   UNL     1      -6.109 -10.532  18.427  0.00  0.00    +0.039 A 
ATOM     30  C   UNL     1      -4.244 -11.870  19.180  0.00  0.00    +0.039 A 
ATOM     31  C   UNL     1      -5.486 -11.285  19.423  0.00  0.00    +0.123 A 
ENDBRANCH  25  26
ENDBRANCH  21  23
ENDBRANCH  11  21
TORSDOF 7
ENDMDL
MODEL 4
REMARK VINA RESULT:      -6.9      3.626      7.757
REMARK  Name = 75366945
REMARK  7 active torsions:
REMARK  status: ('A' for Active; 'I' for Inactive)
REMARK    1  A    between atoms: O_3  and  C_10
REMARK    2  A    between atoms: N_6  and  C_12
REMARK    3  A    between atoms: N_7  and  C_20
REMARK    4  A    between atoms: C_9  and  C_20
REMARK    5  A    between atoms: C_11  and  C_21
REMARK    6  A    between atoms: C_21  and  C_23
REMARK    7  A    between atoms: C_25  and  C_26
REMARK                            x       y       z     vdW  Elec       q    Type
REMARK                         _______ _______ _______ _____ _____    ______ ____
ROOT
ATOM      2  O   UNL     1      19.468   6.186  22.229  0.00  0.00    -0.369 OA
ATOM      9  C   UNL     1      20.352   6.845  23.145  0.00  0.00    +0.164 C 
ATOM     10  C   UNL     1      21.789   6.326  23.004  0.00  0.00    +0.145 C 
ATOM     11  C   UNL     1      19.852   6.258  20.853  0.00  0.00    +0.125 C 
ATOM     13  C   UNL     1      22.263   6.315  21.553  0.00  0.00    +0.036 C 
ATOM     14  C   UNL     1      21.235   5.643  20.648  0.00  0.00    +0.034 C 
ENDROOT
BRANCH  10   3
ATOM      3  O   UNL     1      21.843   4.982  23.491  0.00  0.00    -0.389 OA
ATOM     34  H   UNL     1      22.536   4.516  22.991  0.00  0.00    +0.210 HD
ENDBRANCH  10   3
BRANCH   9  20
ATOM     20  C   UNL     1      20.251   8.363  23.013  0.00  0.00    +0.140 C 
BRANCH  20   7
ATOM      4  O   UNL     1      19.324  11.043  22.539  0.00  0.00    -0.253 OA
ATOM      6  N   UNL     1      17.196  10.205  22.140  0.00  0.00    -0.297 N 
ATOM      7  N   UNL     1      18.919   8.760  22.672  0.00  0.00    -0.297 N 
ATOM     22  C   UNL     1      18.548  10.093  22.457  0.00  0.00    +0.300 C 
ATOM     32  H   UNL     1      16.630   9.363  22.174  0.00  0.00    +0.151 HD
ATOM     33  H   UNL     1      18.205   8.042  22.598  0.00  0.00    +0.150 HD
BRANCH   6  12
ATOM     12  C   UNL     1      16.549  11.470  21.869  0.00  0.00    +0.074 C 
ATOM     15  C   UNL     1      15.099  11.465  22.363  0.00  0.00    +0.022 C 
ATOM     16  C   UNL     1      16.628  11.819  20.379  0.00  0.00    +0.022 C 
ATOM     17  C   UNL     1      14.192  10.583  21.503  0.00  0.00    +0.002 C 
ATOM     18  C   UNL     1      15.718  10.938  19.523  0.00  0.00    +0.002 C 
ATOM     19  C   UNL     1      14.278  10.958  20.027  0.00  0.00    +0.000 C 
ENDBRANCH   6  12
ENDBRANCH  20   7
ENDBRANCH   9  20
BRANCH  11  21
ATOM     21  C   UNL     1      18.800   5.512  20.044  0.00  0.00    +0.090 C 
BRANCH  21  23
ATOM      5  O   UNL     1      15.973   7.697  20.524  0.00  0.00    -0.354 OA
ATOM      8  N   UNL     1      17.209   7.184  20.900  0.00  0.00    -0.083 NA
ATOM     23  C   UNL     1      17.509   6.282  19.961  0.00  0.00    +0.087 A 
ATOM     24  C   UNL     1      16.509   6.183  18.978  0.00  0.00    +0.076 A 
ATOM     25  C   UNL     1      15.567   7.093  19.378  0.00  0.00    +0.167 A 
BRANCH  25  26
ATOM      1  F   UNL     1      10.652   8.760  17.377  0.00  0.00    -0.205 F 
ATOM     26  C   UNL     1      14.300   7.524  18.863  0.00  0.00    +0.020 A 
ATOM     27  C   UNL     1      13.153   7.410  19.647  0.00  0.00    +0.014 A 
ATOM     28  C   UNL     1      14.216   8.056  17.576  0.00  0.00    +0.014 A 
ATOM     29  C   UNL     1      11.921   7.827  19.146  0.00  0.00    +0.039 A 
ATOM     30  C   UNL     1      12.983   8.474  17.074  0.00  0.00    +0.039 A 
ATOM     31  C   UNL     1      11.835   8.359  17.858  0.00  0.00    +0.123 A 
ENDBRANCH  25  26
ENDBRANCH  21  23
ENDBRANCH  11  21
TORSDOF 7
ENDMDL
MODEL 5
REMARK VINA RESULT:      -6.7      2.375      6.160
REMARK  Name = 75366945
REMARK  7 active torsions:
REMARK  status: ('A' for Active; 'I' for Inactive)
REMARK    1  A    between atoms: O_3  and  C_10
REMARK    2  A    between atoms: N_6  and  C_12
REMARK    3  A    between atoms: N_7  and  C_20
REMARK    4  A    between atoms: C_9  and  C_20
REMARK    5  A    between atoms: C_11  and  C_21
REMARK    6  A    between atoms: C_21  and  C_23
REMARK    7  A    between atoms: C_25  and  C_26
REMARK                            x       y       z     vdW  Elec       q    Type
REMARK                         _______ _______ _______ _____ _____    ______ ____
ROOT
ATOM      2  O   UNL     1      13.386   8.909  18.843  0.00  0.00    -0.369 OA
ATOM      9  C   UNL     1      12.604   9.771  19.680  0.00  0.00    +0.164 C 
ATOM     10  C   UNL     1      11.574   8.974  20.492  0.00  0.00    +0.145 C 
ATOM     11  C   UNL     1      14.056   7.844  19.521  0.00  0.00    +0.125 C 
ATOM     13  C   UNL     1      12.197   7.778  21.208  0.00  0.00    +0.036 C 
ATOM     14  C   UNL     1      13.052   6.954  20.250  0.00  0.00    +0.034 C 
ENDROOT
BRANCH  10   3
ATOM      3  O   UNL     1      10.572   8.476  19.602  0.00  0.00    -0.389 OA
ATOM     34  H   UNL     1      10.923   8.544  18.697  0.00  0.00    +0.210 HD
ENDBRANCH  10   3
BRANCH   9  20
ATOM     20  C   UNL     1      13.498  10.651  20.552  0.00  0.00    +0.140 C 
BRANCH  20   7
ATOM      4  O   UNL     1      13.888  10.921  23.388  0.00  0.00    -0.253 OA
ATOM      6  N   UNL     1      12.066  12.357  23.472  0.00  0.00    -0.297 N 
ATOM      7  N   UNL     1      12.715  11.442  21.452  0.00  0.00    -0.297 N 
ATOM     22  C   UNL     1      12.973  11.520  22.826  0.00  0.00    +0.300 C 
ATOM     32  H   UNL     1      11.303  12.742  22.925  0.00  0.00    +0.151 HD
ATOM     33  H   UNL     1      11.927  11.961  21.078  0.00  0.00    +0.150 HD
BRANCH   6  12
ATOM     12  C   UNL     1      12.103  12.617  24.895  0.00  0.00    +0.074 C 
ATOM     15  C   UNL     1      10.712  12.977  25.426  0.00  0.00    +0.022 C 
ATOM     16  C   UNL     1      13.126  13.708  25.228  0.00  0.00    +0.022 C 
ATOM     17  C   UNL     1      10.257  14.367  24.977  0.00  0.00    +0.002 C 
ATOM     18  C   UNL     1      12.667  15.095  24.780  0.00  0.00    +0.002 C 
ATOM     19  C   UNL     1      11.285  15.437  25.331  0.00  0.00    +0.000 C 
ENDBRANCH   6  12
ENDBRANCH  20   7
ENDBRANCH   9  20
BRANCH  11  21
ATOM     21  C   UNL     1      14.829   7.049  18.476  0.00  0.00    +0.090 C 
BRANCH  21  23
ATOM      5  O   UNL     1      17.960   5.391  19.140  0.00  0.00    -0.354 OA
ATOM      8  N   UNL     1      16.785   5.555  18.417  0.00  0.00    -0.083 NA
ATOM     23  C   UNL     1      16.160   6.581  19.002  0.00  0.00    +0.087 A 
ATOM     24  C   UNL     1      16.885   7.096  20.090  0.00  0.00    +0.076 A 
ATOM     25  C   UNL     1      18.008   6.314  20.134  0.00  0.00    +0.167 A 
BRANCH  25  26
ATOM      1  F   UNL     1      22.522   6.138  23.379  0.00  0.00    -0.205 F 
ATOM     26  C   UNL     1      19.172   6.269  20.969  0.00  0.00    +0.020 A 
ATOM     27  C   UNL     1      20.261   5.477  20.607  0.00  0.00    +0.014 A 
ATOM     28  C   UNL     1      19.215   7.018  22.146  0.00  0.00    +0.014 A 
ATOM     29  C   UNL     1      21.393   5.432  21.421  0.00  0.00    +0.039 A 
ATOM     30  C   UNL     1      20.347   6.974  22.960  0.00  0.00    +0.039 A 
ATOM     31  C   UNL     1      21.436   6.181  22.598  0.00  0.00    +0.123 A 
ENDBRANCH  25  26
ENDBRANCH  21  23
ENDBRANCH  11  21
TORSDOF 7
ENDMDL
MODEL 6
REMARK VINA RESULT:      -6.7      1.391      2.168
REMARK  Name = 75366945
REMARK  7 active torsions:
REMARK  status: ('A' for Active; 'I' for Inactive)
REMARK    1  A    between atoms: O_3  and  C_10
REMARK    2  A    between atoms: N_6  and  C_12
REMARK    3  A    between atoms: N_7  and  C_20
REMARK    4  A    between atoms: C_9  and  C_20
REMARK    5  A    between atoms: C_11  and  C_21
REMARK    6  A    between atoms: C_21  and  C_23
REMARK    7  A    between atoms: C_25  and  C_26
REMARK                            x       y       z     vdW  Elec       q    Type
REMARK                         _______ _______ _______ _____ _____    ______ ____
ROOT
ATOM      2  O   UNL     1      13.634  11.865  24.119  0.00  0.00    -0.369 OA
ATOM      9  C   UNL     1      12.450  11.735  24.916  0.00  0.00    +0.164 C 
ATOM     10  C   UNL     1      12.222  12.982  25.782  0.00  0.00    +0.145 C 
ATOM     11  C   UNL     1      13.681  13.024  23.282  0.00  0.00    +0.125 C 
ATOM     13  C   UNL     1      12.311  14.274  24.975  0.00  0.00    +0.036 C 
ATOM     14  C   UNL     1      13.574  14.297  24.119  0.00  0.00    +0.034 C 
ENDROOT
BRANCH  10   3
ATOM      3  O   UNL     1      13.230  13.030  26.795  0.00  0.00    -0.389 OA
ATOM     34  H   UNL     1      12.814  13.367  27.608  0.00  0.00    +0.210 HD
ENDBRANCH  10   3
BRANCH   9  20
ATOM     20  C   UNL     1      11.241  11.379  24.054  0.00  0.00    +0.140 C 
BRANCH  20   7
ATOM      4  O   UNL     1       9.923   9.204  22.714  0.00  0.00    -0.253 OA
ATOM      6  N   UNL     1      11.557   9.269  21.064  0.00  0.00    -0.297 N 
ATOM      7  N   UNL     1      11.649  10.753  22.833  0.00  0.00    -0.297 N 
ATOM     22  C   UNL     1      10.949   9.694  22.243  0.00  0.00    +0.300 C 
ATOM     32  H   UNL     1      12.442   9.693  20.808  0.00  0.00    +0.151 HD
ATOM     33  H   UNL     1      12.496  11.083  22.381  0.00  0.00    +0.150 HD
BRANCH   6  12
ATOM     12  C   UNL     1      11.040   8.189  20.253  0.00  0.00    +0.074 C 
ATOM     15  C   UNL     1      11.632   6.843  20.685  0.00  0.00    +0.022 C 
ATOM     16  C   UNL     1      11.288   8.453  18.764  0.00  0.00    +0.022 C 
ATOM     17  C   UNL     1      13.105   6.702  20.300  0.00  0.00    +0.002 C 
ATOM     18  C   UNL     1      12.761   8.308  18.382  0.00  0.00    +0.002 C 
ATOM     19  C   UNL     1      13.324   6.957  18.812  0.00  0.00    +0.000 C 
ENDBRANCH   6  12
ENDBRANCH  20   7
ENDBRANCH   9  20
BRANCH  11  21
ATOM     21  C   UNL     1      14.999  12.984  22.518  0.00  0.00    +0.090 C 
BRANCH  21  23
ATOM      5  O   UNL     1      14.882   9.768  20.896  0.00  0.00    -0.354 OA
ATOM      8  N   UNL     1      14.305  10.970  21.285  0.00  0.00    -0.083 NA
ATOM     23  C   UNL     1      15.270  11.620  21.942  0.00  0.00    +0.087 A 
ATOM     24  C   UNL     1      16.465  10.883  21.999  0.00  0.00    +0.076 A 
ATOM     25  C   UNL     1      16.168   9.727  21.327  0.00  0.00    +0.167 A 
BRANCH  25  26
ATOM      1  F   UNL     1      19.002   5.115  20.049  0.00  0.00    -0.205 F 
ATOM     26  C   UNL     1      16.899   8.539  20.997  0.00  0.00    +0.020 A 
ATOM     27  C   UNL     1      16.371   7.626  20.083  0.00  0.00    +0.014 A 
ATOM     28  C   UNL     1      18.138   8.295  21.590  0.00  0.00    +0.014 A 
ATOM     29  C   UNL     1      17.081   6.470  19.763  0.00  0.00    +0.039 A 
ATOM     30  C   UNL     1      18.848   7.138  21.270  0.00  0.00    +0.039 A 
ATOM     31  C   UNL     1      18.321   6.225  20.356  0.00  0.00    +0.123 A 
ENDBRANCH  25  26
ENDBRANCH  21  23
ENDBRANCH  11  21
TORSDOF 7
ENDMDL
MODEL 7
REMARK VINA RESULT:      -6.7      3.958      5.715
REMARK  Name = 75366945
REMARK  7 active torsions:
REMARK  status: ('A' for Active; 'I' for Inactive)
REMARK    1  A    between atoms: O_3  and  C_10
REMARK    2  A    between atoms: N_6  and  C_12
REMARK    3  A    between atoms: N_7  and  C_20
REMARK    4  A    between atoms: C_9  and  C_20
REMARK    5  A    between atoms: C_11  and  C_21
REMARK    6  A    between atoms: C_21  and  C_23
REMARK    7  A    between atoms: C_25  and  C_26
REMARK                            x       y       z     vdW  Elec       q    Type
REMARK                         _______ _______ _______ _____ _____    ______ ____
ROOT
ATOM      2  O   UNL     1      13.941   7.345  18.144  0.00  0.00    -0.369 OA
ATOM      9  C   UNL     1      13.437   8.287  17.188  0.00  0.00    +0.164 C 
ATOM     10  C   UNL     1      11.936   8.536  17.388  0.00  0.00    +0.145 C 
ATOM     11  C   UNL     1      13.706   7.682  19.514  0.00  0.00    +0.125 C 
ATOM     13  C   UNL     1      11.586   8.849  18.840  0.00  0.00    +0.036 C 
ATOM     14  C   UNL     1      12.209   7.825  19.784  0.00  0.00    +0.034 C 
ENDROOT
BRANCH  10   3
ATOM      3  O   UNL     1      11.220   7.357  17.011  0.00  0.00    -0.389 OA
ATOM     34  H   UNL     1      10.307   7.621  16.804  0.00  0.00    +0.210 HD
ENDBRANCH  10   3
BRANCH   9  20
ATOM     20  C   UNL     1      14.260   9.574  17.197  0.00  0.00    +0.140 C 
BRANCH  20   7
ATOM      4  O   UNL     1      14.814  10.449  14.515  0.00  0.00    -0.253 OA
ATOM      6  N   UNL     1      13.117  12.022  14.710  0.00  0.00    -0.297 N 
ATOM      7  N   UNL     1      13.590  10.616  16.481  0.00  0.00    -0.297 N 
ATOM     22  C   UNL     1      13.921  10.983  15.171  0.00  0.00    +0.300 C 
ATOM     32  H   UNL     1      12.462  12.440  15.362  0.00  0.00    +0.151 HD
ATOM     33  H   UNL     1      12.847  11.124  16.952  0.00  0.00    +0.150 HD
BRANCH   6  12
ATOM     12  C   UNL     1      13.246  12.595  13.388  0.00  0.00    +0.074 C 
ATOM     15  C   UNL     1      13.422  14.115  13.460  0.00  0.00    +0.022 C 
ATOM     16  C   UNL     1      12.053  12.214  12.505  0.00  0.00    +0.022 C 
ATOM     17  C   UNL     1      12.135  14.833  13.869  0.00  0.00    +0.002 C 
ATOM     18  C   UNL     1      10.770  12.935  12.914  0.00  0.00    +0.002 C 
ATOM     19  C   UNL     1      10.966  14.448  12.968  0.00  0.00    +0.000 C 
ENDBRANCH   6  12
ENDBRANCH  20   7
ENDBRANCH   9  20
BRANCH  11  21
ATOM     21  C   UNL     1      14.309   6.574  20.368  0.00  0.00    +0.090 C 
BRANCH  21  23
ATOM      5  O   UNL     1      17.607   5.977  19.041  0.00  0.00    -0.354 OA
ATOM      8  N   UNL     1      16.223   6.009  18.926  0.00  0.00    -0.083 NA
ATOM     23  C   UNL     1      15.786   6.420  20.120  0.00  0.00    +0.087 A 
ATOM     24  C   UNL     1      16.839   6.658  21.020  0.00  0.00    +0.076 A 
ATOM     25  C   UNL     1      17.962   6.365  20.293  0.00  0.00    +0.167 A 
BRANCH  25  26
ATOM      1  F   UNL     1      23.425   6.438  21.336  0.00  0.00    -0.205 F 
ATOM     26  C   UNL     1      19.370   6.384  20.563  0.00  0.00    +0.020 A 
ATOM     27  C   UNL     1      19.972   7.545  21.047  0.00  0.00    +0.014 A 
ATOM     28  C   UNL     1      20.138   5.240  20.340  0.00  0.00    +0.014 A 
ATOM     29  C   UNL     1      21.342   7.563  21.309  0.00  0.00    +0.039 A 
ATOM     30  C   UNL     1      21.508   5.259  20.601  0.00  0.00    +0.039 A 
ATOM     31  C   UNL     1      22.111   6.420  21.086  0.00  0.00    +0.123 A 
ENDBRANCH  25  26
ENDBRANCH  21  23
ENDBRANCH  11  21
TORSDOF 7
ENDMDL
MODEL 8
REMARK VINA RESULT:      -6.5     29.198     31.089
REMARK  Name = 75366945
REMARK  7 active torsions:
REMARK  status: ('A' for Active; 'I' for Inactive)
REMARK    1  A    between atoms: O_3  and  C_10
REMARK    2  A    between atoms: N_6  and  C_12
REMARK    3  A    between atoms: N_7  and  C_20
REMARK    4  A    between atoms: C_9  and  C_20
REMARK    5  A    between atoms: C_11  and  C_21
REMARK    6  A    between atoms: C_21  and  C_23
REMARK    7  A    between atoms: C_25  and  C_26
REMARK                            x       y       z     vdW  Elec       q    Type
REMARK                         _______ _______ _______ _____ _____    ______ ____
ROOT
ATOM      2  O   UNL     1     -13.987   2.481  31.202  0.00  0.00    -0.369 OA
ATOM      9  C   UNL     1     -14.304   2.060  29.869  0.00  0.00    +0.164 C 
ATOM     10  C   UNL     1     -14.366   0.530  29.767  0.00  0.00    +0.145 C 
ATOM     11  C   UNL     1     -14.858   1.984  32.221  0.00  0.00    +0.125 C 
ATOM     13  C   UNL     1     -15.234  -0.091  30.858  0.00  0.00    +0.036 C 
ATOM     14  C   UNL     1     -14.860   0.457  32.231  0.00  0.00    +0.034 C 
ENDROOT
BRANCH  10   3
ATOM      3  O   UNL     1     -13.043   0.005  29.911  0.00  0.00    -0.389 OA
ATOM     34  H   UNL     1     -12.420   0.702  29.642  0.00  0.00    +0.210 HD
ENDBRANCH  10   3
BRANCH   9  20
ATOM     20  C   UNL     1     -15.573   2.742  29.363  0.00  0.00    +0.140 C 
BRANCH  20   7
ATOM      4  O   UNL     1     -17.030   2.323  26.920  0.00  0.00    -0.253 OA
ATOM      6  N   UNL     1     -15.669   3.887  25.874  0.00  0.00    -0.297 N 
ATOM      7  N   UNL     1     -15.342   3.388  28.107  0.00  0.00    -0.297 N 
ATOM     22  C   UNL     1     -16.100   3.127  26.959  0.00  0.00    +0.300 C 
ATOM     32  H   UNL     1     -14.843   4.464  25.998  0.00  0.00    +0.151 HD
ATOM     33  H   UNL     1     -14.582   4.058  28.041  0.00  0.00    +0.150 HD
BRANCH   6  12
ATOM     12  C   UNL     1     -16.279   3.814  24.565  0.00  0.00    +0.074 C 
ATOM     15  C   UNL     1     -15.245   4.062  23.461  0.00  0.00    +0.022 C 
ATOM     16  C   UNL     1     -17.458   4.786  24.452  0.00  0.00    +0.022 C 
ATOM     17  C   UNL     1     -14.799   5.523  23.397  0.00  0.00    +0.002 C 
ATOM     18  C   UNL     1     -17.008   6.245  24.385  0.00  0.00    +0.002 C 
ATOM     19  C   UNL     1     -15.988   6.470  23.272  0.00  0.00    +0.000 C 
ENDBRANCH   6  12
ENDBRANCH  20   7
ENDBRANCH   9  20
BRANCH  11  21
ATOM     21  C   UNL     1     -14.367   2.536  33.553  0.00  0.00    +0.090 C 
BRANCH  21  23
ATOM      5  O   UNL     1     -14.377   6.071  34.259  0.00  0.00    -0.354 OA
ATOM      8  N   UNL     1     -14.582   4.745  34.619  0.00  0.00    -0.083 NA
ATOM     23  C   UNL     1     -14.264   4.038  33.531  0.00  0.00    +0.087 A 
ATOM     24  C   UNL     1     -13.858   4.857  32.464  0.00  0.00    +0.076 A 
ATOM     25  C   UNL     1     -13.946   6.126  32.973  0.00  0.00    +0.167 A 
BRANCH  25  26
ATOM      1  F   UNL     1     -12.951  11.221  30.976  0.00  0.00    -0.205 F 
ATOM     26  C   UNL     1     -13.689   7.438  32.458  0.00  0.00    +0.020 A 
ATOM     27  C   UNL     1     -12.399   7.965  32.501  0.00  0.00    +0.014 A 
ATOM     28  C   UNL     1     -14.731   8.190  31.913  0.00  0.00    +0.014 A 
ATOM     29  C   UNL     1     -12.149   9.242  32.001  0.00  0.00    +0.039 A 
ATOM     30  C   UNL     1     -14.482   9.468  31.412  0.00  0.00    +0.039 A 
ATOM     31  C   UNL     1     -13.191   9.995  31.456  0.00  0.00    +0.123 A 
ENDBRANCH  25  26
ENDBRANCH  21  23
ENDBRANCH  11  21
TORSDOF 7
ENDMDL
MODEL 9
REMARK VINA RESULT:      -6.4     15.209     18.923
REMARK  Name = 75366945
REMARK  7 active torsions:
REMARK  status: ('A' for Active; 'I' for Inactive)
REMARK    1  A    between atoms: O_3  and  C_10
REMARK    2  A    between atoms: N_6  and  C_12
REMARK    3  A    between atoms: N_7  and  C_20
REMARK    4  A    between atoms: C_9  and  C_20
REMARK    5  A    between atoms: C_11  and  C_21
REMARK    6  A    between atoms: C_21  and  C_23
REMARK    7  A    between atoms: C_25  and  C_26
REMARK                            x       y       z     vdW  Elec       q    Type
REMARK                         _______ _______ _______ _____ _____    ______ ____
ROOT
ATOM      2  O   UNL     1      13.626   4.718   1.613  0.00  0.00    -0.369 OA
ATOM      9  C   UNL     1      14.941   5.251   1.408  0.00  0.00    +0.164 C 
ATOM     10  C   UNL     1      15.742   4.394   0.419  0.00  0.00    +0.145 C 
ATOM     11  C   UNL     1      12.851   4.536   0.426  0.00  0.00    +0.125 C 
ATOM     13  C   UNL     1      14.963   4.102  -0.860  0.00  0.00    +0.036 C 
ATOM     14  C   UNL     1      13.561   3.591  -0.542  0.00  0.00    +0.034 C 
ENDROOT
BRANCH  10   3
ATOM      3  O   UNL     1      16.049   3.142   1.039  0.00  0.00    -0.389 OA
ATOM     34  H   UNL     1      15.306   2.538   0.866  0.00  0.00    +0.210 HD
ENDBRANCH  10   3
BRANCH   9  20
ATOM     20  C   UNL     1      14.882   6.724   1.008  0.00  0.00    +0.140 C 
BRANCH  20   7
ATOM      4  O   UNL     1      15.952   7.421   3.584  0.00  0.00    -0.253 OA
ATOM      6  N   UNL     1      13.992   8.574   4.054  0.00  0.00    -0.297 N 
ATOM      7  N   UNL     1      14.237   7.504   2.021  0.00  0.00    -0.297 N 
ATOM     22  C   UNL     1      14.830   7.800   3.254  0.00  0.00    +0.300 C 
ATOM     32  H   UNL     1      13.056   8.766   3.713  0.00  0.00    +0.151 HD
ATOM     33  H   UNL     1      13.299   7.848   1.841  0.00  0.00    +0.150 HD
BRANCH   6  12
ATOM     12  C   UNL     1      14.357   9.021   5.380  0.00  0.00    +0.074 C 
ATOM     15  C   UNL     1      14.257   7.878   6.395  0.00  0.00    +0.022 C 
ATOM     16  C   UNL     1      13.507  10.222   5.808  0.00  0.00    +0.022 C 
ATOM     17  C   UNL     1      12.808   7.494   6.701  0.00  0.00    +0.002 C 
ATOM     18  C   UNL     1      12.061   9.834   6.116  0.00  0.00    +0.002 C 
ATOM     19  C   UNL     1      11.986   8.702   7.137  0.00  0.00    +0.000 C 
ENDBRANCH   6  12
ENDBRANCH  20   7
ENDBRANCH   9  20
BRANCH  11  21
ATOM     21  C   UNL     1      11.499   3.969   0.843  0.00  0.00    +0.090 C 
BRANCH  21  23
ATOM      5  O   UNL     1       9.771   6.450   2.806  0.00  0.00    -0.354 OA
ATOM      8  N   UNL     1      10.247   5.949   1.601  0.00  0.00    -0.083 NA
ATOM     23  C   UNL     1      10.853   4.802   1.919  0.00  0.00    +0.087 A 
ATOM     24  C   UNL     1      10.794   4.532   3.297  0.00  0.00    +0.076 A 
ATOM     25  C   UNL     1      10.103   5.597   3.809  0.00  0.00    +0.167 A 
BRANCH  25  26
ATOM      1  F   UNL     1       8.437   7.092   8.901  0.00  0.00    -0.205 F 
ATOM     26  C   UNL     1       9.675   5.983   5.121  0.00  0.00    +0.020 A 
ATOM     27  C   UNL     1      10.002   5.192   6.223  0.00  0.00    +0.014 A 
ATOM     28  C   UNL     1       8.928   7.149   5.297  0.00  0.00    +0.014 A 
ATOM     29  C   UNL     1       9.585   5.567   7.499  0.00  0.00    +0.039 A 
ATOM     30  C   UNL     1       8.510   7.524   6.574  0.00  0.00    +0.039 A 
ATOM     31  C   UNL     1       8.838   6.733   7.675  0.00  0.00    +0.123 A 
ENDBRANCH  25  26
ENDBRANCH  21  23
ENDBRANCH  11  21
TORSDOF 7
ENDMDL
MODEL 10
REMARK VINA RESULT:      -6.4      3.280      5.681
REMARK  Name = 75366945
REMARK  7 active torsions:
REMARK  status: ('A' for Active; 'I' for Inactive)
REMARK    1  A    between atoms: O_3  and  C_10
REMARK    2  A    between atoms: N_6  and  C_12
REMARK    3  A    between atoms: N_7  and  C_20
REMARK    4  A    between atoms: C_9  and  C_20
REMARK    5  A    between atoms: C_11  and  C_21
REMARK    6  A    between atoms: C_21  and  C_23
REMARK    7  A    between atoms: C_25  and  C_26
REMARK                            x       y       z     vdW  Elec       q    Type
REMARK                         _______ _______ _______ _____ _____    ______ ____
ROOT
ATOM      2  O   UNL     1      13.983   7.762  19.098  0.00  0.00    -0.369 OA
ATOM      9  C   UNL     1      13.429   8.508  18.006  0.00  0.00    +0.164 C 
ATOM     10  C   UNL     1      11.913   8.294  17.897  0.00  0.00    +0.145 C 
ATOM     11  C   UNL     1      13.387   8.015  20.373  0.00  0.00    +0.125 C 
ATOM     13  C   UNL     1      11.201   8.490  19.232  0.00  0.00    +0.036 C 
ATOM     14  C   UNL     1      11.893   7.702  20.341  0.00  0.00    +0.034 C 
ENDROOT
BRANCH  10   3
ATOM      3  O   UNL     1      11.668   6.953  17.464  0.00  0.00    -0.389 OA
ATOM     34  H   UNL     1      10.899   6.973  16.867  0.00  0.00    +0.210 HD
ENDBRANCH  10   3
BRANCH   9  20
ATOM     20  C   UNL     1      13.818   9.982  18.093  0.00  0.00    +0.140 C 
BRANCH  20   7
ATOM      4  O   UNL     1      14.813  12.352  19.381  0.00  0.00    -0.253 OA
ATOM      6  N   UNL     1      16.777  11.219  19.883  0.00  0.00    -0.297 N 
ATOM      7  N   UNL     1      15.089  10.140  18.731  0.00  0.00    -0.297 N 
ATOM     22  C   UNL     1      15.500  11.333  19.338  0.00  0.00    +0.300 C 
ATOM     32  H   UNL     1      17.285  10.355  19.723  0.00  0.00    +0.151 HD
ATOM     33  H   UNL     1      15.731   9.353  18.730  0.00  0.00    +0.150 HD
BRANCH   6  12
ATOM     12  C   UNL     1      17.443  12.304  20.569  0.00  0.00    +0.074 C 
ATOM     15  C   UNL     1      18.136  13.242  19.576  0.00  0.00    +0.022 C 
ATOM     16  C   UNL     1      18.431  11.770  21.612  0.00  0.00    +0.022 C 
ATOM     17  C   UNL     1      19.376  12.609  18.942  0.00  0.00    +0.002 C 
ATOM     18  C   UNL     1      19.670  11.141  20.975  0.00  0.00    +0.002 C 
ATOM     19  C   UNL     1      20.349  12.097  19.999  0.00  0.00    +0.000 C 
ENDBRANCH   6  12
ENDBRANCH  20   7
ENDBRANCH   9  20
BRANCH  11  21
ATOM     21  C   UNL     1      14.103   7.142  21.395  0.00  0.00    +0.090 C 
BRANCH  21  23
ATOM      5  O   UNL     1      17.504   8.339  21.374  0.00  0.00    -0.354 OA
ATOM      8  N   UNL     1      16.132   8.533  21.488  0.00  0.00    -0.083 NA
ATOM     23  C   UNL     1      15.597   7.319  21.332  0.00  0.00    +0.087 A 
ATOM     24  C   UNL     1      16.573   6.331  21.116  0.00  0.00    +0.076 A 
ATOM     25  C   UNL     1      17.753   7.024  21.152  0.00  0.00    +0.167 A 
BRANCH  25  26
ATOM      1  F   UNL     1      23.114   5.640  20.617  0.00  0.00    -0.205 F 
ATOM     26  C   UNL     1      19.135   6.667  21.013  0.00  0.00    +0.020 A 
ATOM     27  C   UNL     1      19.486   5.434  20.464  0.00  0.00    +0.014 A 
ATOM     28  C   UNL     1      20.129   7.554  21.428  0.00  0.00    +0.014 A 
ATOM     29  C   UNL     1      20.829   5.087  20.330  0.00  0.00    +0.039 A 
ATOM     30  C   UNL     1      21.473   7.207  21.295  0.00  0.00    +0.039 A 
ATOM     31  C   UNL     1      21.824   5.974  20.745  0.00  0.00    +0.123 A 
ENDBRANCH  25  26
ENDBRANCH  21  23
ENDBRANCH  11  21
TORSDOF 7
ENDMDL
