MODEL 1
REMARK VINA RESULT:      -7.2      0.000      0.000
REMARK  Name = 45361539
REMARK  10 active torsions:
REMARK  status: ('A' for Active; 'I' for Inactive)
REMARK    1  A    between atoms: O_2  and  C_12
REMARK    2  A    between atoms: N_5  and  C_16
REMARK    3  A    between atoms: N_6  and  C_26
REMARK    4  A    between atoms: C_9  and  C_19
REMARK    5  A    between atoms: C_11  and  C_21
REMARK    6  A    between atoms: C_15  and  C_20
REMARK    7  A    between atoms: C_20  and  C_22
REMARK    8  A    between atoms: C_20  and  C_23
REMARK    9  A    between atoms: C_24  and  C_25
REMARK   10  A    between atoms: C_26  and  C_28
REMARK                            x       y       z     vdW  Elec       q    Type
REMARK                         _______ _______ _______ _____ _____    ______ ____
ROOT
ATOM      9  C   UNL     1     -15.304   7.393  20.990  0.00  0.00    -0.027 C 
ATOM     10  C   UNL     1     -14.018   6.541  21.256  0.00  0.00    +0.028 C 
ATOM     11  C   UNL     1     -14.160   5.713  22.583  0.00  0.00    +0.012 C 
ATOM     12  C   UNL     1     -12.733   7.412  21.145  0.00  0.00    +0.122 C 
ATOM     13  C   UNL     1     -15.177   8.106  19.623  0.00  0.00    +0.007 C 
ATOM     14  C   UNL     1     -16.528   6.450  20.918  0.00  0.00    +0.009 C 
ATOM     15  C   UNL     1     -12.663   8.204  19.819  0.00  0.00    +0.029 C 
ATOM     16  C   UNL     1     -15.435   4.825  22.529  0.00  0.00    +0.076 C 
ATOM     17  C   UNL     1     -13.941   8.989  19.526  0.00  0.00    +0.007 C 
ATOM     18  C   UNL     1     -16.702   5.600  22.169  0.00  0.00    +0.023 C 
ATOM     19  C   UNL     1     -15.547   8.461  22.088  0.00  0.00    +0.011 C 
ATOM     21  C   UNL     1     -12.939   4.829  22.891  0.00  0.00    +0.010 C 
ENDROOT
BRANCH  16   5
ATOM      4  O   UNL     1     -16.657   2.250  22.873  0.00  0.00    -0.268 OA
ATOM      5  N   UNL     1     -15.660   4.135  23.783  0.00  0.00    -0.307 N 
ATOM     24  C   UNL     1     -16.261   2.889  23.843  0.00  0.00    +0.264 C 
ATOM     36  H   UNL     1     -15.419   4.612  24.646  0.00  0.00    +0.149 HD
BRANCH  24  25
ATOM      7  N   UNL     1     -16.128   3.134  26.240  0.00  0.00    -0.247 NA
ATOM      8  N   UNL     1     -17.083   0.526  26.630  0.00  0.00    -0.259 NA
ATOM     25  C   UNL     1     -16.445   2.327  25.207  0.00  0.00    +0.143 A 
ATOM     27  C   UNL     1     -16.914   1.047  25.398  0.00  0.00    +0.143 A 
ATOM     29  C   UNL     1     -16.297   2.612  27.471  0.00  0.00    +0.131 A 
ATOM     32  C   UNL     1     -16.765   1.332  27.663  0.00  0.00    +0.130 A 
ENDBRANCH  24  25
ENDBRANCH  16   5
BRANCH  12   2
ATOM      2  O   UNL     1     -11.581   6.568  21.178  0.00  0.00    -0.391 OA
ATOM     37  H   UNL     1     -11.573   6.036  20.364  0.00  0.00    +0.210 HD
ENDBRANCH  12   2
BRANCH  15  20
ATOM     20  C   UNL     1     -11.459   9.153  19.786  0.00  0.00    +0.077 C 
ATOM     22  C   UNL     1     -11.705  10.346  20.701  0.00  0.00    +0.017 C 
BRANCH  20  23
ATOM      3  O   UNL     1     -11.155  10.782  18.020  0.00  0.00    -0.276 OA
ATOM      6  N   UNL     1     -10.991   8.529  17.491  0.00  0.00    -0.311 N 
ATOM     23  C   UNL     1     -11.188   9.599  18.351  0.00  0.00    +0.216 C 
ATOM     38  H   UNL     1     -10.982   7.581  17.853  0.00  0.00    +0.149 HD
BRANCH   6  26
ATOM     26  C   UNL     1     -10.721   8.700  16.082  0.00  0.00    +0.141 C 
BRANCH  26  28
ATOM      1 CL   UNL     1     -10.129   7.608  13.256  0.00  0.00    -0.083 Cl
ATOM     28  C   UNL     1     -11.884   8.278  15.231  0.00  0.00    -0.012 A 
ATOM     30  C   UNL     1     -11.704   7.774  13.943  0.00  0.00    +0.046 A 
ATOM     31  C   UNL     1     -13.168   8.401  15.759  0.00  0.00    +0.006 A 
ATOM     33  C   UNL     1     -12.809   7.393  13.183  0.00  0.00    +0.020 A 
ATOM     34  C   UNL     1     -14.275   8.020  14.999  0.00  0.00    +0.000 A 
ATOM     35  C   UNL     1     -14.094   7.516  13.710  0.00  0.00    +0.001 A 
ENDBRANCH  26  28
ENDBRANCH   6  26
ENDBRANCH  20  23
ENDBRANCH  15  20
TORSDOF 7
ENDMDL
MODEL 2
REMARK VINA RESULT:      -7.0      3.665      5.519
REMARK  Name = 45361539
REMARK  10 active torsions:
REMARK  status: ('A' for Active; 'I' for Inactive)
REMARK    1  A    between atoms: O_2  and  C_12
REMARK    2  A    between atoms: N_5  and  C_16
REMARK    3  A    between atoms: N_6  and  C_26
REMARK    4  A    between atoms: C_9  and  C_19
REMARK    5  A    between atoms: C_11  and  C_21
REMARK    6  A    between atoms: C_15  and  C_20
REMARK    7  A    between atoms: C_20  and  C_22
REMARK    8  A    between atoms: C_20  and  C_23
REMARK    9  A    between atoms: C_24  and  C_25
REMARK   10  A    between atoms: C_26  and  C_28
REMARK                            x       y       z     vdW  Elec       q    Type
REMARK                         _______ _______ _______ _____ _____    ______ ____
ROOT
ATOM      9  C   UNL     1     -11.349   8.151  19.216  0.00  0.00    -0.027 C 
ATOM     10  C   UNL     1     -12.808   8.663  18.981  0.00  0.00    +0.028 C 
ATOM     11  C   UNL     1     -13.856   7.552  19.346  0.00  0.00    +0.012 C 
ATOM     12  C   UNL     1     -12.965   9.291  17.566  0.00  0.00    +0.122 C 
ATOM     13  C   UNL     1     -10.349   9.303  18.957  0.00  0.00    +0.007 C 
ATOM     14  C   UNL     1     -11.197   7.719  20.693  0.00  0.00    +0.009 C 
ATOM     15  C   UNL     1     -11.897  10.371  17.273  0.00  0.00    +0.029 C 
ATOM     16  C   UNL     1     -13.645   7.072  20.810  0.00  0.00    +0.076 C 
ATOM     17  C   UNL     1     -10.473   9.893  17.559  0.00  0.00    +0.007 C 
ATOM     18  C   UNL     1     -12.205   6.660  21.113  0.00  0.00    +0.023 C 
ATOM     19  C   UNL     1     -10.982   6.958  18.296  0.00  0.00    +0.011 C 
ATOM     21  C   UNL     1     -15.317   7.999  19.165  0.00  0.00    +0.010 C 
ENDROOT
BRANCH  16   5
ATOM      4  O   UNL     1     -15.120   6.725  23.249  0.00  0.00    -0.268 OA
ATOM      5  N   UNL     1     -14.519   5.966  21.142  0.00  0.00    -0.307 N 
ATOM     24  C   UNL     1     -15.189   5.890  22.351  0.00  0.00    +0.264 C 
ATOM     36  H   UNL     1     -14.594   5.195  20.485  0.00  0.00    +0.149 HD
BRANCH  24  25
ATOM      7  N   UNL     1     -17.082   4.532  21.727  0.00  0.00    -0.247 NA
ATOM      8  N   UNL     1     -16.486   2.656  23.725  0.00  0.00    -0.259 NA
ATOM     25  C   UNL     1     -16.026   4.678  22.551  0.00  0.00    +0.143 A 
ATOM     27  C   UNL     1     -15.733   3.758  23.533  0.00  0.00    +0.143 A 
ATOM     29  C   UNL     1     -17.836   3.431  21.920  0.00  0.00    +0.131 A 
ATOM     32  C   UNL     1     -17.543   2.510  22.901  0.00  0.00    +0.130 A 
ENDBRANCH  24  25
ENDBRANCH  16   5
BRANCH  12   2
ATOM      2  O   UNL     1     -14.235   9.936  17.468  0.00  0.00    -0.391 OA
ATOM     37  H   UNL     1     -14.846   9.332  17.011  0.00  0.00    +0.210 HD
ENDBRANCH  12   2
BRANCH  15  20
ATOM     20  C   UNL     1     -11.987  10.882  15.830  0.00  0.00    +0.077 C 
ATOM     22  C   UNL     1     -11.193   9.972  14.900  0.00  0.00    +0.017 C 
BRANCH  20  23
ATOM      3  O   UNL     1     -11.902  13.207  16.504  0.00  0.00    -0.276 OA
ATOM      6  N   UNL     1     -10.533  12.504  14.768  0.00  0.00    -0.311 N 
ATOM     23  C   UNL     1     -11.487  12.322  15.757  0.00  0.00    +0.216 C 
ATOM     38  H   UNL     1     -10.204  11.711  14.228  0.00  0.00    +0.149 HD
BRANCH   6  26
ATOM     26  C   UNL     1      -9.913  13.783  14.506  0.00  0.00    +0.141 C 
BRANCH  26  28
ATOM      1 CL   UNL     1      -8.000  14.474  12.184  0.00  0.00    -0.083 Cl
ATOM     28  C   UNL     1      -8.436  13.759  14.778  0.00  0.00    -0.012 A 
ATOM     30  C   UNL     1      -7.504  14.058  13.786  0.00  0.00    +0.046 A 
ATOM     31  C   UNL     1      -8.006  13.427  16.062  0.00  0.00    +0.006 A 
ATOM     33  C   UNL     1      -6.141  14.025  14.077  0.00  0.00    +0.020 A 
ATOM     34  C   UNL     1      -6.642  13.394  16.354  0.00  0.00    +0.000 A 
ATOM     35  C   UNL     1      -5.709  13.693  15.360  0.00  0.00    +0.001 A 
ENDBRANCH  26  28
ENDBRANCH   6  26
ENDBRANCH  20  23
ENDBRANCH  15  20
TORSDOF 7
ENDMDL
MODEL 3
REMARK VINA RESULT:      -6.9     18.146     19.594
REMARK  Name = 45361539
REMARK  10 active torsions:
REMARK  status: ('A' for Active; 'I' for Inactive)
REMARK    1  A    between atoms: O_2  and  C_12
REMARK    2  A    between atoms: N_5  and  C_16
REMARK    3  A    between atoms: N_6  and  C_26
REMARK    4  A    between atoms: C_9  and  C_19
REMARK    5  A    between atoms: C_11  and  C_21
REMARK    6  A    between atoms: C_15  and  C_20
REMARK    7  A    between atoms: C_20  and  C_22
REMARK    8  A    between atoms: C_20  and  C_23
REMARK    9  A    between atoms: C_24  and  C_25
REMARK   10  A    between atoms: C_26  and  C_28
REMARK                            x       y       z     vdW  Elec       q    Type
REMARK                         _______ _______ _______ _____ _____    ______ ____
ROOT
ATOM      9  C   UNL     1      -4.656 -11.078  16.855  0.00  0.00    -0.027 C 
ATOM     10  C   UNL     1      -5.465 -10.466  15.663  0.00  0.00    +0.028 C 
ATOM     11  C   UNL     1      -7.010 -10.560  15.929  0.00  0.00    +0.012 C 
ATOM     12  C   UNL     1      -4.985 -11.046  14.301  0.00  0.00    +0.122 C 
ATOM     13  C   UNL     1      -3.142 -10.868  16.613  0.00  0.00    +0.007 C 
ATOM     14  C   UNL     1      -5.033 -10.331  18.156  0.00  0.00    +0.009 C 
ATOM     15  C   UNL     1      -3.455 -10.927  14.110  0.00  0.00    +0.029 C 
ATOM     16  C   UNL     1      -7.366  -9.871  17.277  0.00  0.00    +0.076 C 
ATOM     17  C   UNL     1      -2.662 -11.468  15.299  0.00  0.00    +0.007 C 
ATOM     18  C   UNL     1      -6.525 -10.364  18.453  0.00  0.00    +0.023 C 
ATOM     19  C   UNL     1      -4.925 -12.593  17.041  0.00  0.00    +0.011 C 
ATOM     21  C   UNL     1      -7.867  -9.950  14.806  0.00  0.00    +0.010 C 
ENDROOT
BRANCH  16   5
ATOM      4  O   UNL     1      -9.385  -7.828  17.287  0.00  0.00    -0.268 OA
ATOM      5  N   UNL     1      -8.766 -10.040  17.611  0.00  0.00    -0.307 N 
ATOM     24  C   UNL     1      -9.664  -8.987  17.585  0.00  0.00    +0.264 C 
ATOM     36  H   UNL     1      -9.080 -10.952  17.928  0.00  0.00    +0.149 HD
BRANCH  24  25
ATOM      7  N   UNL     1     -11.219  -9.919  19.176  0.00  0.00    -0.247 NA
ATOM      8  N   UNL     1     -13.394  -9.321  17.509  0.00  0.00    -0.259 NA
ATOM     25  C   UNL     1     -11.058  -9.317  17.981  0.00  0.00    +0.143 A 
ATOM     27  C   UNL     1     -12.125  -9.024  17.162  0.00  0.00    +0.143 A 
ATOM     29  C   UNL     1     -12.487 -10.216  19.523  0.00  0.00    +0.131 A 
ATOM     32  C   UNL     1     -13.555  -9.923  18.705  0.00  0.00    +0.130 A 
ENDBRANCH  24  25
ENDBRANCH  16   5
BRANCH  12   2
ATOM      2  O   UNL     1      -5.588 -10.314  13.232  0.00  0.00    -0.391 OA
ATOM     37  H   UNL     1      -6.308  -9.775  13.603  0.00  0.00    +0.210 HD
ENDBRANCH  12   2
BRANCH  15  20
ATOM     20  C   UNL     1      -2.987 -11.619  12.824  0.00  0.00    +0.077 C 
ATOM     22  C   UNL     1      -1.790 -12.517  13.116  0.00  0.00    +0.017 C 
BRANCH  20  23
ATOM      3  O   UNL     1      -1.571  -9.993  11.722  0.00  0.00    -0.276 OA
ATOM      6  N   UNL     1      -3.698 -10.365  10.876  0.00  0.00    -0.311 N 
ATOM     23  C   UNL     1      -2.653 -10.574  11.763  0.00  0.00    +0.216 C 
ATOM     38  H   UNL     1      -4.542 -10.923  10.945  0.00  0.00    +0.149 HD
BRANCH   6  26
ATOM     26  C   UNL     1      -3.620  -9.420   9.785  0.00  0.00    +0.141 C 
BRANCH  26  28
ATOM      1 CL   UNL     1      -4.426 -11.394   7.554  0.00  0.00    -0.083 Cl
ATOM     28  C   UNL     1      -4.949  -9.222   9.115  0.00  0.00    -0.012 A 
ATOM     30  C   UNL     1      -5.389 -10.068   8.099  0.00  0.00    +0.046 A 
ATOM     31  C   UNL     1      -5.749  -8.159   9.534  0.00  0.00    +0.006 A 
ATOM     33  C   UNL     1      -6.630  -9.853   7.501  0.00  0.00    +0.020 A 
ATOM     34  C   UNL     1      -6.991  -7.943   8.936  0.00  0.00    +0.000 A 
ATOM     35  C   UNL     1      -7.431  -8.791   7.918  0.00  0.00    +0.001 A 
ENDBRANCH  26  28
ENDBRANCH   6  26
ENDBRANCH  20  23
ENDBRANCH  15  20
TORSDOF 7
ENDMDL
MODEL 4
REMARK VINA RESULT:      -6.8     19.186     22.148
REMARK  Name = 45361539
REMARK  10 active torsions:
REMARK  status: ('A' for Active; 'I' for Inactive)
REMARK    1  A    between atoms: O_2  and  C_12
REMARK    2  A    between atoms: N_5  and  C_16
REMARK    3  A    between atoms: N_6  and  C_26
REMARK    4  A    between atoms: C_9  and  C_19
REMARK    5  A    between atoms: C_11  and  C_21
REMARK    6  A    between atoms: C_15  and  C_20
REMARK    7  A    between atoms: C_20  and  C_22
REMARK    8  A    between atoms: C_20  and  C_23
REMARK    9  A    between atoms: C_24  and  C_25
REMARK   10  A    between atoms: C_26  and  C_28
REMARK                            x       y       z     vdW  Elec       q    Type
REMARK                         _______ _______ _______ _____ _____    ______ ____
ROOT
ATOM      9  C   UNL     1      -3.331 -11.658  11.859  0.00  0.00    -0.027 C 
ATOM     10  C   UNL     1      -4.616 -10.955  12.409  0.00  0.00    +0.028 C 
ATOM     11  C   UNL     1      -5.263 -10.035  11.313  0.00  0.00    +0.012 C 
ATOM     12  C   UNL     1      -4.342 -10.271  13.779  0.00  0.00    +0.122 C 
ATOM     13  C   UNL     1      -2.785 -12.641  12.923  0.00  0.00    +0.007 C 
ATOM     14  C   UNL     1      -3.703 -12.481  10.604  0.00  0.00    +0.009 C 
ATOM     15  C   UNL     1      -3.699 -11.232  14.807  0.00  0.00    +0.029 C 
ATOM     16  C   UNL     1      -5.564 -10.858  10.029  0.00  0.00    +0.076 C 
ATOM     17  C   UNL     1      -2.478 -11.966  14.253  0.00  0.00    +0.007 C 
ATOM     18  C   UNL     1      -4.360 -11.646   9.515  0.00  0.00    +0.023 C 
ATOM     19  C   UNL     1      -2.212 -10.649  11.493  0.00  0.00    +0.011 C 
ATOM     21  C   UNL     1      -6.550  -9.333  11.778  0.00  0.00    +0.010 C 
ENDROOT
BRANCH  16   5
ATOM      4  O   UNL     1      -7.889 -11.323   8.410  0.00  0.00    -0.268 OA
ATOM      5  N   UNL     1      -6.053 -10.017   8.956  0.00  0.00    -0.307 N 
ATOM     24  C   UNL     1      -7.190 -10.329   8.231  0.00  0.00    +0.264 C 
ATOM     36  H   UNL     1      -5.507  -9.201   8.694  0.00  0.00    +0.149 HD
BRANCH  24  25
ATOM      7  N   UNL     1      -8.667  -8.652   7.323  0.00  0.00    -0.247 NA
ATOM      8  N   UNL     1      -7.082  -8.399   5.023  0.00  0.00    -0.259 NA
ATOM     25  C   UNL     1      -7.546  -9.379   7.145  0.00  0.00    +0.143 A 
ATOM     27  C   UNL     1      -6.768  -9.256   6.015  0.00  0.00    +0.143 A 
ATOM     29  C   UNL     1      -8.981  -7.796   6.330  0.00  0.00    +0.131 A 
ATOM     32  C   UNL     1      -8.203  -7.672   5.201  0.00  0.00    +0.130 A 
ENDBRANCH  24  25
ENDBRANCH  16   5
BRANCH  12   2
ATOM      2  O   UNL     1      -5.576  -9.831  14.349  0.00  0.00    -0.391 OA
ATOM     37  H   UNL     1      -5.503  -8.877  14.528  0.00  0.00    +0.210 HD
ENDBRANCH  12   2
BRANCH  15  20
ATOM     20  C   UNL     1      -3.318 -10.507  16.103  0.00  0.00    +0.077 C 
ATOM     22  C   UNL     1      -1.828 -10.672  16.378  0.00  0.00    +0.017 C 
BRANCH  20  23
ATOM      3  O   UNL     1      -3.707 -11.797  18.115  0.00  0.00    -0.276 OA
ATOM      6  N   UNL     1      -5.463 -10.566  17.229  0.00  0.00    -0.311 N 
ATOM     23  C   UNL     1      -4.159 -11.037  17.261  0.00  0.00    +0.216 C 
ATOM     38  H   UNL     1      -5.744  -9.899  16.519  0.00  0.00    +0.149 HD
BRANCH   6  26
ATOM     26  C   UNL     1      -6.449 -10.931  18.220  0.00  0.00    +0.141 C 
BRANCH  26  28
ATOM      1 CL   UNL     1      -8.929 -12.004  19.714  0.00  0.00    -0.083 Cl
ATOM     28  C   UNL     1      -7.766 -10.251  17.981  0.00  0.00    -0.012 A 
ATOM     30  C   UNL     1      -8.934 -10.672  18.615  0.00  0.00    +0.046 A 
ATOM     31  C   UNL     1      -7.802  -9.172  17.098  0.00  0.00    +0.006 A 
ATOM     33  C   UNL     1     -10.138 -10.014  18.367  0.00  0.00    +0.020 A 
ATOM     34  C   UNL     1      -9.007  -8.513  16.849  0.00  0.00    +0.000 A 
ATOM     35  C   UNL     1     -10.175  -8.935  17.484  0.00  0.00    +0.001 A 
ENDBRANCH  26  28
ENDBRANCH   6  26
ENDBRANCH  20  23
ENDBRANCH  15  20
TORSDOF 7
ENDMDL
MODEL 5
REMARK VINA RESULT:      -6.8     26.768     30.639
REMARK  Name = 45361539
REMARK  10 active torsions:
REMARK  status: ('A' for Active; 'I' for Inactive)
REMARK    1  A    between atoms: O_2  and  C_12
REMARK    2  A    between atoms: N_5  and  C_16
REMARK    3  A    between atoms: N_6  and  C_26
REMARK    4  A    between atoms: C_9  and  C_19
REMARK    5  A    between atoms: C_11  and  C_21
REMARK    6  A    between atoms: C_15  and  C_20
REMARK    7  A    between atoms: C_20  and  C_22
REMARK    8  A    between atoms: C_20  and  C_23
REMARK    9  A    between atoms: C_24  and  C_25
REMARK   10  A    between atoms: C_26  and  C_28
REMARK                            x       y       z     vdW  Elec       q    Type
REMARK                         _______ _______ _______ _____ _____    ______ ____
ROOT
ATOM      9  C   UNL     1      12.456   8.984  17.641  0.00  0.00    -0.027 C 
ATOM     10  C   UNL     1      13.106  10.286  18.217  0.00  0.00    +0.028 C 
ATOM     11  C   UNL     1      14.349  10.716  17.359  0.00  0.00    +0.012 C 
ATOM     12  C   UNL     1      13.362  10.159  19.746  0.00  0.00    +0.122 C 
ATOM     13  C   UNL     1      11.172   8.652  18.439  0.00  0.00    +0.007 C 
ATOM     14  C   UNL     1      12.046   9.232  16.171  0.00  0.00    +0.009 C 
ATOM     15  C   UNL     1      12.098   9.726  20.527  0.00  0.00    +0.029 C 
ATOM     16  C   UNL     1      13.940  10.890  15.869  0.00  0.00    +0.076 C 
ATOM     17  C   UNL     1      11.426   8.489  19.931  0.00  0.00    +0.007 C 
ATOM     18  C   UNL     1      13.207   9.679  15.294  0.00  0.00    +0.023 C 
ATOM     19  C   UNL     1      13.411   7.764  17.705  0.00  0.00    +0.011 C 
ATOM     21  C   UNL     1      15.022  12.009  17.853  0.00  0.00    +0.010 C 
ENDROOT
BRANCH  16   5
ATOM      4  O   UNL     1      13.950  12.432  13.446  0.00  0.00    -0.268 OA
ATOM      5  N   UNL     1      15.086  11.174  15.028  0.00  0.00    -0.307 N 
ATOM     24  C   UNL     1      14.987  11.931  13.874  0.00  0.00    +0.264 C 
ATOM     36  H   UNL     1      15.978  10.752  15.270  0.00  0.00    +0.149 HD
BRANCH  24  25
ATOM      7  N   UNL     1      16.138  12.129  11.764  0.00  0.00    -0.247 NA
ATOM      8  N   UNL     1      18.612  12.402  13.058  0.00  0.00    -0.259 NA
ATOM     25  C   UNL     1      16.247  12.109  13.108  0.00  0.00    +0.143 A 
ATOM     27  C   UNL     1      17.461  12.242  13.743  0.00  0.00    +0.143 A 
ATOM     29  C   UNL     1      17.289  12.287  11.079  0.00  0.00    +0.131 A 
ATOM     32  C   UNL     1      18.502  12.422  11.714  0.00  0.00    +0.130 A 
ENDBRANCH  24  25
ENDBRANCH  16   5
BRANCH  12   2
ATOM      2  O   UNL     1      13.750  11.430  20.272  0.00  0.00    -0.391 OA
ATOM     37  H   UNL     1      12.948  11.971  20.376  0.00  0.00    +0.210 HD
ENDBRANCH  12   2
BRANCH  15  20
ATOM     20  C   UNL     1      12.402   9.481  22.010  0.00  0.00    +0.077 C 
ATOM     22  C   UNL     1      11.550  10.397  22.879  0.00  0.00    +0.017 C 
BRANCH  20  23
ATOM      3  O   UNL     1      14.322  10.637  22.928  0.00  0.00    -0.276 OA
ATOM      6  N   UNL     1      14.676   8.699  21.702  0.00  0.00    -0.311 N 
ATOM     23  C   UNL     1      13.891   9.688  22.276  0.00  0.00    +0.216 C 
ATOM     38  H   UNL     1      14.239   7.920  21.222  0.00  0.00    +0.149 HD
BRANCH   6  26
ATOM     26  C   UNL     1      16.117   8.682  21.815  0.00  0.00    +0.141 C 
BRANCH  26  28
ATOM      1 CL   UNL     1      19.096   8.000  22.242  0.00  0.00    -0.083 Cl
ATOM     28  C   UNL     1      16.739   7.649  20.920  0.00  0.00    -0.012 A 
ATOM     30  C   UNL     1      18.078   7.283  21.046  0.00  0.00    +0.046 A 
ATOM     31  C   UNL     1      15.941   7.053  19.944  0.00  0.00    +0.006 A 
ATOM     33  C   UNL     1      18.620   6.319  20.197  0.00  0.00    +0.020 A 
ATOM     34  C   UNL     1      16.483   6.088  19.094  0.00  0.00    +0.000 A 
ATOM     35  C   UNL     1      17.823   5.722  19.220  0.00  0.00    +0.001 A 
ENDBRANCH  26  28
ENDBRANCH   6  26
ENDBRANCH  20  23
ENDBRANCH  15  20
TORSDOF 7
ENDMDL
MODEL 6
REMARK VINA RESULT:      -6.7     19.395     22.517
REMARK  Name = 45361539
REMARK  10 active torsions:
REMARK  status: ('A' for Active; 'I' for Inactive)
REMARK    1  A    between atoms: O_2  and  C_12
REMARK    2  A    between atoms: N_5  and  C_16
REMARK    3  A    between atoms: N_6  and  C_26
REMARK    4  A    between atoms: C_9  and  C_19
REMARK    5  A    between atoms: C_11  and  C_21
REMARK    6  A    between atoms: C_15  and  C_20
REMARK    7  A    between atoms: C_20  and  C_22
REMARK    8  A    between atoms: C_20  and  C_23
REMARK    9  A    between atoms: C_24  and  C_25
REMARK   10  A    between atoms: C_26  and  C_28
REMARK                            x       y       z     vdW  Elec       q    Type
REMARK                         _______ _______ _______ _____ _____    ______ ____
ROOT
ATOM      9  C   UNL     1      -6.884 -10.643  11.329  0.00  0.00    -0.027 C 
ATOM     10  C   UNL     1      -5.682  -9.875  10.685  0.00  0.00    +0.028 C 
ATOM     11  C   UNL     1      -5.918  -9.657   9.147  0.00  0.00    +0.012 C 
ATOM     12  C   UNL     1      -4.324 -10.532  11.066  0.00  0.00    +0.122 C 
ATOM     13  C   UNL     1      -6.673 -10.741  12.859  0.00  0.00    +0.007 C 
ATOM     14  C   UNL     1      -8.184  -9.842  11.083  0.00  0.00    +0.009 C 
ATOM     15  C   UNL     1      -4.163 -10.724  12.592  0.00  0.00    +0.029 C 
ATOM     16  C   UNL     1      -7.264  -8.917   8.909  0.00  0.00    +0.076 C 
ATOM     17  C   UNL     1      -5.363 -11.419  13.235  0.00  0.00    +0.007 C 
ATOM     18  C   UNL     1      -8.452  -9.576   9.609  0.00  0.00    +0.023 C 
ATOM     19  C   UNL     1      -7.051 -12.074  10.757  0.00  0.00    +0.011 C 
ATOM     21  C   UNL     1      -4.784  -8.881   8.455  0.00  0.00    +0.010 C 
ENDROOT
BRANCH  16   5
ATOM      4  O   UNL     1      -8.203  -6.572   7.544  0.00  0.00    -0.268 OA
ATOM      5  N   UNL     1      -7.570  -8.802   7.498  0.00  0.00    -0.307 N 
ATOM     24  C   UNL     1      -8.019  -7.621   6.933  0.00  0.00    +0.264 C 
ATOM     36  H   UNL     1      -7.504  -9.635   6.920  0.00  0.00    +0.149 HD
BRANCH  24  25
ATOM      7  N   UNL     1      -9.431  -7.040   5.066  0.00  0.00    -0.247 NA
ATOM      8  N   UNL     1      -7.747  -8.393   3.278  0.00  0.00    -0.259 NA
ATOM     25  C   UNL     1      -8.314  -7.673   5.477  0.00  0.00    +0.143 A 
ATOM     27  C   UNL     1      -7.487  -8.338   4.600  0.00  0.00    +0.143 A 
ATOM     29  C   UNL     1      -9.691  -7.096   3.744  0.00  0.00    +0.131 A 
ATOM     32  C   UNL     1      -8.864  -7.760   2.867  0.00  0.00    +0.130 A 
ENDBRANCH  24  25
ENDBRANCH  16   5
BRANCH  12   2
ATOM      2  O   UNL     1      -3.251  -9.689  10.645  0.00  0.00    -0.391 OA
ATOM     37  H   UNL     1      -2.446 -10.233  10.581  0.00  0.00    +0.210 HD
ENDBRANCH  12   2
BRANCH  15  20
ATOM     20  C   UNL     1      -2.880 -11.489  12.938  0.00  0.00    +0.077 C 
ATOM     22  C   UNL     1      -2.769 -12.743  12.077  0.00  0.00    +0.017 C 
BRANCH  20  23
ATOM      3  O   UNL     1      -2.777 -12.986  14.838  0.00  0.00    -0.276 OA
ATOM      6  N   UNL     1      -2.959 -10.707  15.230  0.00  0.00    -0.311 N 
ATOM     23  C   UNL     1      -2.864 -11.832  14.425  0.00  0.00    +0.216 C 
ATOM     38  H   UNL     1      -2.974  -9.783  14.811  0.00  0.00    +0.149 HD
BRANCH   6  26
ATOM     26  C   UNL     1      -2.967 -10.778  16.673  0.00  0.00    +0.141 C 
BRANCH  26  28
ATOM      1 CL   UNL     1      -3.578 -12.097  19.396  0.00  0.00    -0.083 Cl
ATOM     28  C   UNL     1      -4.350 -10.624  17.237  0.00  0.00    -0.012 A 
ATOM     30  C   UNL     1      -4.709 -11.187  18.460  0.00  0.00    +0.046 A 
ATOM     31  C   UNL     1      -5.286  -9.894  16.503  0.00  0.00    +0.006 A 
ATOM     33  C   UNL     1      -6.004 -11.022  18.951  0.00  0.00    +0.020 A 
ATOM     34  C   UNL     1      -6.581  -9.729  16.994  0.00  0.00    +0.000 A 
ATOM     35  C   UNL     1      -6.940 -10.294  18.218  0.00  0.00    +0.001 A 
ENDBRANCH  26  28
ENDBRANCH   6  26
ENDBRANCH  20  23
ENDBRANCH  15  20
TORSDOF 7
ENDMDL
MODEL 7
REMARK VINA RESULT:      -6.7     26.000     30.253
REMARK  Name = 45361539
REMARK  10 active torsions:
REMARK  status: ('A' for Active; 'I' for Inactive)
REMARK    1  A    between atoms: O_2  and  C_12
REMARK    2  A    between atoms: N_5  and  C_16
REMARK    3  A    between atoms: N_6  and  C_26
REMARK    4  A    between atoms: C_9  and  C_19
REMARK    5  A    between atoms: C_11  and  C_21
REMARK    6  A    between atoms: C_15  and  C_20
REMARK    7  A    between atoms: C_20  and  C_22
REMARK    8  A    between atoms: C_20  and  C_23
REMARK    9  A    between atoms: C_24  and  C_25
REMARK   10  A    between atoms: C_26  and  C_28
REMARK                            x       y       z     vdW  Elec       q    Type
REMARK                         _______ _______ _______ _____ _____    ______ ____
ROOT
ATOM      9  C   UNL     1       9.558   6.162   5.954  0.00  0.00    -0.027 C 
ATOM     10  C   UNL     1      10.464   7.380   5.572  0.00  0.00    +0.028 C 
ATOM     11  C   UNL     1       9.908   8.709   6.198  0.00  0.00    +0.012 C 
ATOM     12  C   UNL     1      10.734   7.424   4.041  0.00  0.00    +0.122 C 
ATOM     13  C   UNL     1      10.195   4.858   5.419  0.00  0.00    +0.007 C 
ATOM     14  C   UNL     1       9.484   6.052   7.495  0.00  0.00    +0.009 C 
ATOM     15  C   UNL     1      11.273   6.081   3.493  0.00  0.00    +0.029 C 
ATOM     16  C   UNL     1       9.766   8.560   7.739  0.00  0.00    +0.076 C 
ATOM     17  C   UNL     1      10.424   4.882   3.914  0.00  0.00    +0.007 C 
ATOM     18  C   UNL     1       8.975   7.323   8.161  0.00  0.00    +0.023 C 
ATOM     19  C   UNL     1       8.123   6.287   5.382  0.00  0.00    +0.011 C 
ATOM     21  C   UNL     1      10.769   9.945   5.885  0.00  0.00    +0.010 C 
ENDROOT
BRANCH  16   5
ATOM      4  O   UNL     1      11.071  10.586   9.300  0.00  0.00    -0.268 OA
ATOM      5  N   UNL     1       9.146   9.726   8.335  0.00  0.00    -0.307 N 
ATOM     24  C   UNL     1       9.866  10.649   9.073  0.00  0.00    +0.264 C 
ATOM     36  H   UNL     1       8.140   9.833   8.251  0.00  0.00    +0.149 HD
BRANCH  24  25
ATOM      7  N   UNL     1       8.597  12.678   8.763  0.00  0.00    -0.247 NA
ATOM      8  N   UNL     1       8.152  12.907  11.522  0.00  0.00    -0.259 NA
ATOM     25  C   UNL     1       9.080  11.776   9.641  0.00  0.00    +0.143 A 
ATOM     27  C   UNL     1       8.862  11.889  10.996  0.00  0.00    +0.143 A 
ATOM     29  C   UNL     1       7.889  13.697   9.289  0.00  0.00    +0.131 A 
ATOM     32  C   UNL     1       7.670  13.809  10.644  0.00  0.00    +0.130 A 
ENDBRANCH  24  25
ENDBRANCH  16   5
BRANCH  12   2
ATOM      2  O   UNL     1      11.729   8.409   3.759  0.00  0.00    -0.391 OA
ATOM     37  H   UNL     1      11.282   9.199   3.410  0.00  0.00    +0.210 HD
ENDBRANCH  12   2
BRANCH  15  20
ATOM     20  C   UNL     1      11.407   6.104   1.965  0.00  0.00    +0.077 C 
ATOM     22  C   UNL     1      10.064   5.792   1.315  0.00  0.00    +0.017 C 
BRANCH  20  23
ATOM      3  O   UNL     1      13.600   5.077   2.033  0.00  0.00    -0.276 OA
ATOM      6  N   UNL     1      12.050   4.283   0.500  0.00  0.00    -0.311 N 
ATOM     23  C   UNL     1      12.482   5.114   1.524  0.00  0.00    +0.216 C 
ATOM     38  H   UNL     1      11.093   4.341   0.169  0.00  0.00    +0.149 HD
BRANCH   6  26
ATOM     26  C   UNL     1      12.892   3.265  -0.087  0.00  0.00    +0.141 C 
BRANCH  26  28
ATOM      1 CL   UNL     1      14.974   5.030  -1.527  0.00  0.00    -0.083 Cl
ATOM     28  C   UNL     1      12.863   3.308  -1.587  0.00  0.00    -0.012 A 
ATOM     30  C   UNL     1      13.767   4.079  -2.315  0.00  0.00    +0.046 A 
ATOM     31  C   UNL     1      11.899   2.550  -2.252  0.00  0.00    +0.006 A 
ATOM     33  C   UNL     1      13.709   4.093  -3.708  0.00  0.00    +0.020 A 
ATOM     34  C   UNL     1      11.840   2.563  -3.646  0.00  0.00    +0.000 A 
ATOM     35  C   UNL     1      12.746   3.336  -4.374  0.00  0.00    +0.001 A 
ENDBRANCH  26  28
ENDBRANCH   6  26
ENDBRANCH  20  23
ENDBRANCH  15  20
TORSDOF 7
ENDMDL
MODEL 8
REMARK VINA RESULT:      -6.7      4.084      5.862
REMARK  Name = 45361539
REMARK  10 active torsions:
REMARK  status: ('A' for Active; 'I' for Inactive)
REMARK    1  A    between atoms: O_2  and  C_12
REMARK    2  A    between atoms: N_5  and  C_16
REMARK    3  A    between atoms: N_6  and  C_26
REMARK    4  A    between atoms: C_9  and  C_19
REMARK    5  A    between atoms: C_11  and  C_21
REMARK    6  A    between atoms: C_15  and  C_20
REMARK    7  A    between atoms: C_20  and  C_22
REMARK    8  A    between atoms: C_20  and  C_23
REMARK    9  A    between atoms: C_24  and  C_25
REMARK   10  A    between atoms: C_26  and  C_28
REMARK                            x       y       z     vdW  Elec       q    Type
REMARK                         _______ _______ _______ _____ _____    ______ ____
ROOT
ATOM      9  C   UNL     1     -11.434   8.235  19.607  0.00  0.00    -0.027 C 
ATOM     10  C   UNL     1     -12.747   9.080  19.702  0.00  0.00    +0.028 C 
ATOM     11  C   UNL     1     -14.008   8.147  19.782  0.00  0.00    +0.012 C 
ATOM     12  C   UNL     1     -12.795  10.173  18.596  0.00  0.00    +0.122 C 
ATOM     13  C   UNL     1     -10.209   9.179  19.644  0.00  0.00    +0.007 C 
ATOM     14  C   UNL     1     -11.346   7.301  20.837  0.00  0.00    +0.009 C 
ATOM     15  C   UNL     1     -11.520  11.049  18.570  0.00  0.00    +0.029 C 
ATOM     16  C   UNL     1     -13.873   7.162  20.978  0.00  0.00    +0.076 C 
ATOM     17  C   UNL     1     -10.232  10.226  18.539  0.00  0.00    +0.007 C 
ATOM     18  C   UNL     1     -12.555   6.389  20.983  0.00  0.00    +0.023 C 
ATOM     19  C   UNL     1     -11.367   7.383  18.314  0.00  0.00    +0.011 C 
ATOM     21  C   UNL     1     -15.336   8.915  19.905  0.00  0.00    +0.010 C 
ENDROOT
BRANCH  16   5
ATOM      4  O   UNL     1     -15.131   6.080  23.322  0.00  0.00    -0.268 OA
ATOM      5  N   UNL     1     -14.964   6.209  21.012  0.00  0.00    -0.307 N 
ATOM     24  C   UNL     1     -15.504   5.747  22.200  0.00  0.00    +0.264 C 
ATOM     36  H   UNL     1     -15.302   5.830  20.133  0.00  0.00    +0.149 HD
BRANCH  24  25
ATOM      7  N   UNL     1     -16.499   3.639  22.823  0.00  0.00    -0.247 NA
ATOM      8  N   UNL     1     -18.656   4.062  21.081  0.00  0.00    -0.259 NA
ATOM     25  C   UNL     1     -16.600   4.751  22.067  0.00  0.00    +0.143 A 
ATOM     27  C   UNL     1     -17.658   4.958  21.211  0.00  0.00    +0.143 A 
ATOM     29  C   UNL     1     -17.497   2.742  22.691  0.00  0.00    +0.131 A 
ATOM     32  C   UNL     1     -18.556   2.950  21.837  0.00  0.00    +0.130 A 
ENDBRANCH  24  25
ENDBRANCH  16   5
BRANCH  12   2
ATOM      2  O   UNL     1     -13.891  11.056  18.843  0.00  0.00    -0.391 OA
ATOM     37  H   UNL     1     -13.794  11.413  19.743  0.00  0.00    +0.210 HD
ENDBRANCH  12   2
BRANCH  15  20
ATOM     20  C   UNL     1     -11.529  12.032  17.392  0.00  0.00    +0.077 C 
ATOM     22  C   UNL     1     -11.074  11.329  16.119  0.00  0.00    +0.017 C 
BRANCH  20  23
ATOM      3  O   UNL     1     -11.028  14.177  18.398  0.00  0.00    -0.276 OA
ATOM      6  N   UNL     1      -9.382  13.129  17.143  0.00  0.00    -0.311 N 
ATOM     23  C   UNL     1     -10.643  13.233  17.712  0.00  0.00    +0.216 C 
ATOM     38  H   UNL     1      -9.123  12.292  16.633  0.00  0.00    +0.149 HD
BRANCH   6  26
ATOM     26  C   UNL     1      -8.367  14.145  17.303  0.00  0.00    +0.141 C 
BRANCH  26  28
ATOM      1 CL   UNL     1      -5.387  14.777  17.801  0.00  0.00    -0.083 Cl
ATOM     28  C   UNL     1      -7.454  14.220  16.113  0.00  0.00    -0.012 A 
ATOM     30  C   UNL     1      -6.095  14.500  16.251  0.00  0.00    +0.046 A 
ATOM     31  C   UNL     1      -7.997  14.001  14.848  0.00  0.00    +0.006 A 
ATOM     33  C   UNL     1      -5.278  14.560  15.122  0.00  0.00    +0.020 A 
ATOM     34  C   UNL     1      -7.180  14.061  13.718  0.00  0.00    +0.000 A 
ATOM     35  C   UNL     1      -5.820  14.342  13.856  0.00  0.00    +0.001 A 
ENDBRANCH  26  28
ENDBRANCH   6  26
ENDBRANCH  20  23
ENDBRANCH  15  20
TORSDOF 7
ENDMDL
MODEL 9
REMARK VINA RESULT:      -6.7     27.487     30.837
REMARK  Name = 45361539
REMARK  10 active torsions:
REMARK  status: ('A' for Active; 'I' for Inactive)
REMARK    1  A    between atoms: O_2  and  C_12
REMARK    2  A    between atoms: N_5  and  C_16
REMARK    3  A    between atoms: N_6  and  C_26
REMARK    4  A    between atoms: C_9  and  C_19
REMARK    5  A    between atoms: C_11  and  C_21
REMARK    6  A    between atoms: C_15  and  C_20
REMARK    7  A    between atoms: C_20  and  C_22
REMARK    8  A    between atoms: C_20  and  C_23
REMARK    9  A    between atoms: C_24  and  C_25
REMARK   10  A    between atoms: C_26  and  C_28
REMARK                            x       y       z     vdW  Elec       q    Type
REMARK                         _______ _______ _______ _____ _____    ______ ____
ROOT
ATOM      9  C   UNL     1      15.822   7.189  19.734  0.00  0.00    -0.027 C 
ATOM     10  C   UNL     1      16.289   8.629  20.130  0.00  0.00    +0.028 C 
ATOM     11  C   UNL     1      17.165   8.594  21.433  0.00  0.00    +0.012 C 
ATOM     12  C   UNL     1      15.093   9.622  20.155  0.00  0.00    +0.122 C 
ATOM     13  C   UNL     1      15.060   7.245  18.388  0.00  0.00    +0.007 C 
ATOM     14  C   UNL     1      17.066   6.292  19.533  0.00  0.00    +0.009 C 
ATOM     15  C   UNL     1      14.271   9.598  18.845  0.00  0.00    +0.029 C 
ATOM     16  C   UNL     1      18.371   7.631  21.246  0.00  0.00    +0.076 C 
ATOM     17  C   UNL     1      13.865   8.187  18.422  0.00  0.00    +0.007 C 
ATOM     18  C   UNL     1      17.969   6.240  20.757  0.00  0.00    +0.023 C 
ATOM     19  C   UNL     1      14.899   6.548  20.802  0.00  0.00    +0.011 C 
ATOM     21  C   UNL     1      17.683   9.977  21.865  0.00  0.00    +0.010 C 
ENDROOT
BRANCH  16   5
ATOM      4  O   UNL     1      21.218   7.317  21.461  0.00  0.00    -0.268 OA
ATOM      5  N   UNL     1      19.135   7.485  22.468  0.00  0.00    -0.307 N 
ATOM     24  C   UNL     1      20.512   7.339  22.466  0.00  0.00    +0.264 C 
ATOM     36  H   UNL     1      18.632   7.433  23.348  0.00  0.00    +0.149 HD
BRANCH  24  25
ATOM      7  N   UNL     1      20.319   6.898  24.830  0.00  0.00    -0.247 NA
ATOM      8  N   UNL     1      23.091   7.152  25.175  0.00  0.00    -0.259 NA
ATOM     25  C   UNL     1      21.145   7.173  23.800  0.00  0.00    +0.143 A 
ATOM     27  C   UNL     1      22.506   7.298  23.970  0.00  0.00    +0.143 A 
ATOM     29  C   UNL     1      20.905   6.753  26.035  0.00  0.00    +0.131 A 
ATOM     32  C   UNL     1      22.265   6.877  26.205  0.00  0.00    +0.130 A 
ENDBRANCH  24  25
ENDBRANCH  16   5
BRANCH  12   2
ATOM      2  O   UNL     1      15.582  10.956  20.306  0.00  0.00    -0.391 OA
ATOM     37  H   UNL     1      15.475  11.415  19.455  0.00  0.00    +0.210 HD
ENDBRANCH  12   2
BRANCH  15  20
ATOM     20  C   UNL     1      13.024  10.486  18.939  0.00  0.00    +0.077 C 
ATOM     22  C   UNL     1      13.396  11.943  18.691  0.00  0.00    +0.017 C 
BRANCH  20  23
ATOM      3  O   UNL     1      11.668   9.328  20.578  0.00  0.00    -0.276 OA
ATOM      6  N   UNL     1      12.628  11.357  21.165  0.00  0.00    -0.311 N 
ATOM     23  C   UNL     1      12.360  10.306  20.301  0.00  0.00    +0.216 C 
ATOM     38  H   UNL     1      13.252  12.103  20.879  0.00  0.00    +0.149 HD
BRANCH   6  26
ATOM     26  C   UNL     1      12.107  11.413  22.512  0.00  0.00    +0.141 C 
BRANCH  26  28
ATOM      1 CL   UNL     1      11.003  11.924  25.349  0.00  0.00    -0.083 Cl
ATOM     28  C   UNL     1      11.177  12.576  22.708  0.00  0.00    -0.012 A 
ATOM     30  C   UNL     1      10.634  12.877  23.956  0.00  0.00    +0.046 A 
ATOM     31  C   UNL     1      10.861  13.364  21.602  0.00  0.00    +0.006 A 
ATOM     33  C   UNL     1       9.775  13.966  24.099  0.00  0.00    +0.020 A 
ATOM     34  C   UNL     1      10.001  14.453  21.743  0.00  0.00    +0.000 A 
ATOM     35  C   UNL     1       9.458  14.754  22.993  0.00  0.00    +0.001 A 
ENDBRANCH  26  28
ENDBRANCH   6  26
ENDBRANCH  20  23
ENDBRANCH  15  20
TORSDOF 7
ENDMDL
MODEL 10
REMARK VINA RESULT:      -6.6     32.210     35.201
REMARK  Name = 45361539
REMARK  10 active torsions:
REMARK  status: ('A' for Active; 'I' for Inactive)
REMARK    1  A    between atoms: O_2  and  C_12
REMARK    2  A    between atoms: N_5  and  C_16
REMARK    3  A    between atoms: N_6  and  C_26
REMARK    4  A    between atoms: C_9  and  C_19
REMARK    5  A    between atoms: C_11  and  C_21
REMARK    6  A    between atoms: C_15  and  C_20
REMARK    7  A    between atoms: C_20  and  C_22
REMARK    8  A    between atoms: C_20  and  C_23
REMARK    9  A    between atoms: C_24  and  C_25
REMARK   10  A    between atoms: C_26  and  C_28
REMARK                            x       y       z     vdW  Elec       q    Type
REMARK                         _______ _______ _______ _____ _____    ______ ____
ROOT
ATOM      9  C   UNL     1      20.564   7.704  22.045  0.00  0.00    -0.027 C 
ATOM     10  C   UNL     1      20.231   6.721  20.875  0.00  0.00    +0.028 C 
ATOM     11  C   UNL     1      18.702   6.362  20.865  0.00  0.00    +0.012 C 
ATOM     12  C   UNL     1      21.203   5.506  20.865  0.00  0.00    +0.122 C 
ATOM     13  C   UNL     1      22.051   8.126  21.958  0.00  0.00    +0.007 C 
ATOM     14  C   UNL     1      19.704   8.980  21.893  0.00  0.00    +0.009 C 
ATOM     15  C   UNL     1      22.689   5.933  20.883  0.00  0.00    +0.029 C 
ATOM     16  C   UNL     1      17.845   7.657  20.787  0.00  0.00    +0.076 C 
ATOM     17  C   UNL     1      23.006   6.941  21.988  0.00  0.00    +0.007 C 
ATOM     18  C   UNL     1      18.210   8.692  21.850  0.00  0.00    +0.023 C 
ATOM     19  C   UNL     1      20.306   7.079  23.440  0.00  0.00    +0.011 C 
ATOM     21  C   UNL     1      18.298   5.418  19.719  0.00  0.00    +0.010 C 
ENDROOT
BRANCH  16   5
ATOM      4  O   UNL     1      15.716   9.000  19.406  0.00  0.00    -0.268 OA
ATOM      5  N   UNL     1      16.429   7.370  20.893  0.00  0.00    -0.307 N 
ATOM     24  C   UNL     1      15.476   8.078  20.182  0.00  0.00    +0.264 C 
ATOM     36  H   UNL     1      16.129   6.661  21.556  0.00  0.00    +0.149 HD
BRANCH  24  25
ATOM      7  N   UNL     1      13.546   7.991  21.626  0.00  0.00    -0.247 NA
ATOM      8  N   UNL     1      12.049   6.658  19.666  0.00  0.00    -0.259 NA
ATOM     25  C   UNL     1      14.064   7.680  20.421  0.00  0.00    +0.143 A 
ATOM     27  C   UNL     1      13.330   7.025  19.459  0.00  0.00    +0.143 A 
ATOM     29  C   UNL     1      12.266   7.623  21.833  0.00  0.00    +0.131 A 
ATOM     32  C   UNL     1      11.531   6.969  20.871  0.00  0.00    +0.130 A 
ENDBRANCH  24  25
ENDBRANCH  16   5
BRANCH  12   2
ATOM      2  O   UNL     1      21.010   4.750  19.669  0.00  0.00    -0.391 OA
ATOM     37  H   UNL     1      20.077   4.834  19.405  0.00  0.00    +0.210 HD
ENDBRANCH  12   2
BRANCH  15  20
ATOM     20  C   UNL     1      23.627   4.726  21.005  0.00  0.00    +0.077 C 
ATOM     22  C   UNL     1      23.403   4.021  22.338  0.00  0.00    +0.017 C 
BRANCH  20  23
ATOM      3  O   UNL     1      25.842   5.287  21.806  0.00  0.00    -0.276 OA
ATOM      6  N   UNL     1      25.413   5.439  19.531  0.00  0.00    -0.311 N 
ATOM     23  C   UNL     1      25.077   5.176  20.851  0.00  0.00    +0.216 C 
ATOM     38  H   UNL     1      24.739   5.272  18.793  0.00  0.00    +0.149 HD
BRANCH   6  26
ATOM     26  C   UNL     1      26.731   5.882  19.135  0.00  0.00    +0.141 C 
BRANCH  26  28
ATOM      1 CL   UNL     1      25.684   8.747  19.608  0.00  0.00    -0.083 Cl
ATOM     28  C   UNL     1      26.680   6.817  17.961  0.00  0.00    -0.012 A 
ATOM     30  C   UNL     1      26.220   8.127  18.088  0.00  0.00    +0.046 A 
ATOM     31  C   UNL     1      27.106   6.345  16.720  0.00  0.00    +0.006 A 
ATOM     33  C   UNL     1      26.188   8.966  16.974  0.00  0.00    +0.020 A 
ATOM     34  C   UNL     1      27.074   7.183  15.605  0.00  0.00    +0.000 A 
ATOM     35  C   UNL     1      26.614   8.494  15.733  0.00  0.00    +0.001 A 
ENDBRANCH  26  28
ENDBRANCH   6  26
ENDBRANCH  20  23
ENDBRANCH  15  20
TORSDOF 7
ENDMDL
