MODEL 1
REMARK VINA RESULT:      -6.8      0.000      0.000
REMARK  Name = 11882990
REMARK  14 active torsions:
REMARK  status: ('A' for Active; 'I' for Inactive)
REMARK    1  A    between atoms: O_2  and  C_15
REMARK    2  A    between atoms: O_3  and  C_20
REMARK    3  A    between atoms: N_8  and  C_26
REMARK    4  A    between atoms: C_10  and  C_18
REMARK    5  A    between atoms: C_12  and  C_20
REMARK    6  A    between atoms: C_12  and  C_21
REMARK    7  A    between atoms: C_13  and  C_23
REMARK    8  A    between atoms: C_23  and  C_24
REMARK    9  A    between atoms: C_26  and  C_28
REMARK   10  A    between atoms: C_27  and  C_29
REMARK   11  A    between atoms: C_35  and  C_38
REMARK   12  A    between atoms: C_38  and  C_39
REMARK   13  A    between atoms: C_38  and  C_40
REMARK   14  A    between atoms: C_38  and  C_41
REMARK                            x       y       z     vdW  Elec       q    Type
REMARK                         _______ _______ _______ _____ _____    ______ ____
ROOT
ATOM      1  S   UNL     1      -7.303 -12.085  12.459  0.00  0.00    -0.057 S 
ATOM      5  O   UNL     1      -3.202 -11.916  10.263  0.00  0.00    -0.270 OA
ATOM      7  N   UNL     1      -4.751 -11.802  12.780  0.00  0.00    -0.229 NA
ATOM      9  N   UNL     1      -5.536 -12.115  10.523  0.00  0.00    -0.261 N 
ATOM     10  C   UNL     1      -5.432 -11.073  16.504  0.00  0.00    -0.019 C 
ATOM     11  C   UNL     1      -6.718 -12.011  16.535  0.00  0.00    +0.011 C 
ATOM     12  C   UNL     1      -7.559 -12.031  17.870  0.00  0.00    +0.021 C 
ATOM     13  C   UNL     1      -4.517 -11.531  15.276  0.00  0.00    +0.054 C 
ATOM     14  C   UNL     1      -4.623 -11.265  17.814  0.00  0.00    +0.010 C 
ATOM     15  C   UNL     1      -6.594 -12.183  19.079  0.00  0.00    +0.123 C 
ATOM     16  C   UNL     1      -7.582 -11.833  15.252  0.00  0.00    +0.049 C 
ATOM     17  C   UNL     1      -5.464 -11.160  19.079  0.00  0.00    +0.032 C 
ATOM     18  C   UNL     1      -5.784  -9.573  16.354  0.00  0.00    +0.012 C 
ATOM     19  C   UNL     1      -5.340 -11.719  14.029  0.00  0.00    +0.058 A 
ATOM     21  C   UNL     1      -8.491 -13.275  17.862  0.00  0.00    +0.016 C 
ATOM     22  C   UNL     1      -6.711 -11.870  14.042  0.00  0.00    +0.015 A 
ATOM     25  C   UNL     1      -5.690 -11.988  11.878  0.00  0.00    +0.165 A 
ATOM     27  C   UNL     1      -4.328 -12.072   9.807  0.00  0.00    +0.250 C 
ATOM     45  H   UNL     1      -6.405 -12.293  10.031  0.00  0.00    +0.157 HD
ENDROOT
BRANCH  27  29
ATOM     29  C   UNL     1      -4.453 -12.270   8.338  0.00  0.00    +0.037 A 
ATOM     31  C   UNL     1      -4.167 -13.513   7.773  0.00  0.00    +0.013 A 
ATOM     32  C   UNL     1      -4.857 -11.211   7.524  0.00  0.00    +0.013 A 
ATOM     35  C   UNL     1      -4.689 -12.639   5.583  0.00  0.00    -0.042 A 
ATOM     36  C   UNL     1      -4.285 -13.698   6.397  0.00  0.00    +0.005 A 
ATOM     37  C   UNL     1      -4.975 -11.396   6.147  0.00  0.00    +0.005 A 
BRANCH  35  38
ATOM     38  C   UNL     1      -4.815 -12.836   4.110  0.00  0.00    -0.013 C 
ATOM     39  C   UNL     1      -5.949 -11.945   3.515  0.00  0.00    +0.015 C 
ATOM     40  C   UNL     1      -5.151 -14.319   3.763  0.00  0.00    +0.015 C 
ATOM     41  C   UNL     1      -3.536 -12.493   3.275  0.00  0.00    +0.015 C 
ENDBRANCH  35  38
ENDBRANCH  27  29
BRANCH  15   2
ATOM      2  O   UNL     1      -7.311 -12.075  20.309  0.00  0.00    -0.391 OA
ATOM     42  H   UNL     1      -7.157 -12.892  20.813  0.00  0.00    +0.210 HD
ENDBRANCH  15   2
BRANCH  12  20
ATOM     20  C   UNL     1      -8.492 -10.815  18.057  0.00  0.00    +0.165 C 
BRANCH  20   3
ATOM      3  O   UNL     1      -9.616 -11.242  18.792  0.00  0.00    -0.394 OA
ATOM     43  H   UNL     1      -9.446 -11.038  19.727  0.00  0.00    +0.209 HD
ENDBRANCH  20   3
ENDBRANCH  12  20
BRANCH  13  23
ATOM     23  C   UNL     1      -3.301 -10.631  15.018  0.00  0.00    +0.106 C 
BRANCH  23  24
ATOM      4  O   UNL     1      -1.016 -11.192  15.585  0.00  0.00    -0.276 OA
ATOM      8  N   UNL     1      -2.136 -12.436  13.974  0.00  0.00    -0.308 N 
ATOM     24  C   UNL     1      -2.019 -11.425  14.916  0.00  0.00    +0.214 C 
ATOM     44  H   UNL     1      -3.017 -12.557  13.482  0.00  0.00    +0.149 HD
BRANCH   8  26
ATOM     26  C   UNL     1      -1.064 -13.353  13.663  0.00  0.00    +0.178 C 
BRANCH  26  28
ATOM      6  O   UNL     1      -2.699 -14.916  14.545  0.00  0.00    -0.466 OA
ATOM     28  C   UNL     1      -1.535 -14.761  13.861  0.00  0.00    +0.122 A 
ATOM     30  C   UNL     1      -1.028 -15.984  13.488  0.00  0.00    +0.046 A 
ATOM     33  C   UNL     1      -1.939 -16.953  13.974  0.00  0.00    +0.041 A 
ATOM     34  C   UNL     1      -2.938 -16.252  14.609  0.00  0.00    +0.195 A 
ENDBRANCH  26  28
ENDBRANCH   8  26
ENDBRANCH  23  24
ENDBRANCH  13  23
TORSDOF 9
ENDMDL
MODEL 2
REMARK VINA RESULT:      -6.5      5.509     12.112
REMARK  Name = 11882990
REMARK  14 active torsions:
REMARK  status: ('A' for Active; 'I' for Inactive)
REMARK    1  A    between atoms: O_2  and  C_15
REMARK    2  A    between atoms: O_3  and  C_20
REMARK    3  A    between atoms: N_8  and  C_26
REMARK    4  A    between atoms: C_10  and  C_18
REMARK    5  A    between atoms: C_12  and  C_20
REMARK    6  A    between atoms: C_12  and  C_21
REMARK    7  A    between atoms: C_13  and  C_23
REMARK    8  A    between atoms: C_23  and  C_24
REMARK    9  A    between atoms: C_26  and  C_28
REMARK   10  A    between atoms: C_27  and  C_29
REMARK   11  A    between atoms: C_35  and  C_38
REMARK   12  A    between atoms: C_38  and  C_39
REMARK   13  A    between atoms: C_38  and  C_40
REMARK   14  A    between atoms: C_38  and  C_41
REMARK                            x       y       z     vdW  Elec       q    Type
REMARK                         _______ _______ _______ _____ _____    ______ ____
ROOT
ATOM      1  S   UNL     1      -7.904  -7.965   6.379  0.00  0.00    -0.057 S 
ATOM      5  O   UNL     1      -5.038 -11.618   6.712  0.00  0.00    -0.270 OA
ATOM      7  N   UNL     1      -7.008 -10.060   5.152  0.00  0.00    -0.229 NA
ATOM      9  N   UNL     1      -6.150  -9.645   7.365  0.00  0.00    -0.261 N 
ATOM     10  C   UNL     1      -9.554  -9.344   2.346  0.00  0.00    -0.019 C 
ATOM     11  C   UNL     1      -9.497  -7.772   2.586  0.00  0.00    +0.011 C 
ATOM     12  C   UNL     1     -10.491  -6.881   1.745  0.00  0.00    +0.021 C 
ATOM     13  C   UNL     1      -8.214  -9.983   2.938  0.00  0.00    +0.054 C 
ATOM     14  C   UNL     1      -9.601  -9.631   0.822  0.00  0.00    +0.010 C 
ATOM     15  C   UNL     1     -10.446  -7.330   0.258  0.00  0.00    +0.123 C 
ATOM     16  C   UNL     1      -9.480  -7.429   4.105  0.00  0.00    +0.049 C 
ATOM     17  C   UNL     1     -10.657  -8.829   0.075  0.00  0.00    +0.032 C 
ATOM     18  C   UNL     1     -10.781 -10.011   3.014  0.00  0.00    +0.012 C 
ATOM     19  C   UNL     1      -7.919  -9.442   4.313  0.00  0.00    +0.058 A 
ATOM     21  C   UNL     1     -10.014  -5.403   1.796  0.00  0.00    +0.016 C 
ATOM     22  C   UNL     1      -8.483  -8.286   4.810  0.00  0.00    +0.015 A 
ATOM     25  C   UNL     1      -6.927  -9.373   6.271  0.00  0.00    +0.165 A 
ATOM     27  C   UNL     1      -5.269 -10.728   7.523  0.00  0.00    +0.250 C 
ATOM     45  H   UNL     1      -6.222  -8.946   8.098  0.00  0.00    +0.157 HD
ENDROOT
BRANCH  27  29
ATOM     29  C   UNL     1      -4.525 -10.760   8.810  0.00  0.00    +0.037 A 
ATOM     31  C   UNL     1      -4.344 -11.969   9.482  0.00  0.00    +0.013 A 
ATOM     32  C   UNL     1      -4.006  -9.580   9.345  0.00  0.00    +0.013 A 
ATOM     35  C   UNL     1      -3.127 -10.819  11.223  0.00  0.00    -0.042 A 
ATOM     36  C   UNL     1      -3.646 -11.999  10.688  0.00  0.00    +0.005 A 
ATOM     37  C   UNL     1      -3.308  -9.610  10.551  0.00  0.00    +0.005 A 
BRANCH  35  38
ATOM     38  C   UNL     1      -2.380 -10.850  12.514  0.00  0.00    -0.013 C 
ATOM     39  C   UNL     1      -1.194  -9.836  12.506  0.00  0.00    +0.015 C 
ATOM     40  C   UNL     1      -1.787 -12.265  12.792  0.00  0.00    +0.015 C 
ATOM     41  C   UNL     1      -3.221 -10.494  13.785  0.00  0.00    +0.015 C 
ENDBRANCH  35  38
ENDBRANCH  27  29
BRANCH  15   2
ATOM      2  O   UNL     1     -11.429  -6.632  -0.508  0.00  0.00    -0.391 OA
ATOM     42  H   UNL     1     -11.092  -6.551  -1.416  0.00  0.00    +0.210 HD
ENDBRANCH  15   2
BRANCH  12  20
ATOM     20  C   UNL     1     -11.942  -6.868   2.274  0.00  0.00    +0.165 C 
BRANCH  20   3
ATOM      3  O   UNL     1     -12.470  -5.580   2.054  0.00  0.00    -0.394 OA
ATOM     43  H   UNL     1     -12.284  -5.050   2.848  0.00  0.00    +0.209 HD
ENDBRANCH  20   3
ENDBRANCH  12  20
BRANCH  13  23
ATOM     23  C   UNL     1      -8.176 -11.517   2.916  0.00  0.00    +0.106 C 
BRANCH  23  24
ATOM      4  O   UNL     1      -6.920 -12.170   0.953  0.00  0.00    -0.276 OA
ATOM      8  N   UNL     1      -5.943 -12.356   3.054  0.00  0.00    -0.308 N 
ATOM     24  C   UNL     1      -6.968 -12.042   2.174  0.00  0.00    +0.214 C 
ATOM     44  H   UNL     1      -6.077 -12.199   4.049  0.00  0.00    +0.149 HD
BRANCH   8  26
ATOM     26  C   UNL     1      -4.668 -12.884   2.624  0.00  0.00    +0.178 C 
BRANCH  26  28
ATOM      6  O   UNL     1      -4.382 -14.351   4.538  0.00  0.00    -0.466 OA
ATOM     28  C   UNL     1      -3.875 -13.314   3.821  0.00  0.00    +0.122 A 
ATOM     30  C   UNL     1      -2.698 -12.872   4.377  0.00  0.00    +0.046 A 
ATOM     33  C   UNL     1      -2.466 -13.690   5.509  0.00  0.00    +0.041 A 
ATOM     34  C   UNL     1      -3.519 -14.574   5.563  0.00  0.00    +0.195 A 
ENDBRANCH  26  28
ENDBRANCH   8  26
ENDBRANCH  23  24
ENDBRANCH  13  23
TORSDOF 9
ENDMDL
MODEL 3
REMARK VINA RESULT:      -6.5     31.123     33.679
REMARK  Name = 11882990
REMARK  14 active torsions:
REMARK  status: ('A' for Active; 'I' for Inactive)
REMARK    1  A    between atoms: O_2  and  C_15
REMARK    2  A    between atoms: O_3  and  C_20
REMARK    3  A    between atoms: N_8  and  C_26
REMARK    4  A    between atoms: C_10  and  C_18
REMARK    5  A    between atoms: C_12  and  C_20
REMARK    6  A    between atoms: C_12  and  C_21
REMARK    7  A    between atoms: C_13  and  C_23
REMARK    8  A    between atoms: C_23  and  C_24
REMARK    9  A    between atoms: C_26  and  C_28
REMARK   10  A    between atoms: C_27  and  C_29
REMARK   11  A    between atoms: C_35  and  C_38
REMARK   12  A    between atoms: C_38  and  C_39
REMARK   13  A    between atoms: C_38  and  C_40
REMARK   14  A    between atoms: C_38  and  C_41
REMARK                            x       y       z     vdW  Elec       q    Type
REMARK                         _______ _______ _______ _____ _____    ______ ____
ROOT
ATOM      1  S   UNL     1      -4.754  12.402  33.773  0.00  0.00    -0.057 S 
ATOM      5  O   UNL     1      -7.123   9.469  36.503  0.00  0.00    -0.270 OA
ATOM      7  N   UNL     1      -4.626  10.936  35.901  0.00  0.00    -0.229 NA
ATOM      9  N   UNL     1      -6.714  10.926  34.697  0.00  0.00    -0.261 N 
ATOM     10  C   UNL     1      -0.879  11.814  36.125  0.00  0.00    -0.019 C 
ATOM     11  C   UNL     1      -1.093  13.246  35.462  0.00  0.00    +0.011 C 
ATOM     12  C   UNL     1       0.200  14.098  35.162  0.00  0.00    +0.021 C 
ATOM     13  C   UNL     1      -2.278  11.337  36.731  0.00  0.00    +0.054 C 
ATOM     14  C   UNL     1       0.142  11.933  37.287  0.00  0.00    +0.010 C 
ATOM     15  C   UNL     1       1.129  14.073  36.408  0.00  0.00    +0.123 C 
ATOM     16  C   UNL     1      -2.089  13.175  34.266  0.00  0.00    +0.049 C 
ATOM     17  C   UNL     1       1.423  12.665  36.911  0.00  0.00    +0.032 C 
ATOM     18  C   UNL     1      -0.364  10.756  35.119  0.00  0.00    +0.012 C 
ATOM     19  C   UNL     1      -3.396  11.548  35.742  0.00  0.00    +0.058 A 
ATOM     21  C   UNL     1      -0.213  15.577  34.922  0.00  0.00    +0.016 C 
ATOM     22  C   UNL     1      -3.296  12.390  34.655  0.00  0.00    +0.015 A 
ATOM     25  C   UNL     1      -5.417  11.307  34.918  0.00  0.00    +0.165 A 
ATOM     27  C   UNL     1      -7.477  10.048  35.483  0.00  0.00    +0.250 C 
ATOM     45  H   UNL     1      -7.137  11.378  33.893  0.00  0.00    +0.157 HD
ENDROOT
BRANCH  27  29
ATOM     29  C   UNL     1      -8.875   9.835  35.023  0.00  0.00    +0.037 A 
ATOM     31  C   UNL     1      -9.847   9.391  35.920  0.00  0.00    +0.013 A 
ATOM     32  C   UNL     1      -9.217  10.082  33.692  0.00  0.00    +0.013 A 
ATOM     35  C   UNL     1     -11.498   9.439  34.158  0.00  0.00    -0.042 A 
ATOM     36  C   UNL     1     -11.157   9.192  35.489  0.00  0.00    +0.005 A 
ATOM     37  C   UNL     1     -10.527   9.883  33.260  0.00  0.00    +0.005 A 
BRANCH  35  38
ATOM     38  C   UNL     1     -12.900   9.226  33.695  0.00  0.00    -0.013 C 
ATOM     39  C   UNL     1     -13.920   9.940  34.636  0.00  0.00    +0.015 C 
ATOM     40  C   UNL     1     -13.264   7.710  33.670  0.00  0.00    +0.015 C 
ATOM     41  C   UNL     1     -13.220   9.755  32.258  0.00  0.00    +0.015 C 
ENDBRANCH  35  38
ENDBRANCH  27  29
BRANCH  15   2
ATOM      2  O   UNL     1       2.366  14.727  36.125  0.00  0.00    -0.391 OA
ATOM     42  H   UNL     1       3.083  14.102  36.329  0.00  0.00    +0.210 HD
ENDBRANCH  15   2
BRANCH  12  20
ATOM     20  C   UNL     1       0.969  13.670  33.892  0.00  0.00    +0.165 C 
BRANCH  20   3
ATOM      3  O   UNL     1       1.775  14.754  33.490  0.00  0.00    -0.394 OA
ATOM     43  H   UNL     1       1.774  15.401  34.215  0.00  0.00    +0.209 HD
ENDBRANCH  20   3
ENDBRANCH  12  20
BRANCH  13  23
ATOM     23  C   UNL     1      -2.278   9.905  37.282  0.00  0.00    +0.106 C 
BRANCH  23  24
ATOM      4  O   UNL     1      -2.423  10.647  39.581  0.00  0.00    -0.276 OA
ATOM      8  N   UNL     1      -3.634   8.785  38.900  0.00  0.00    -0.308 N 
ATOM     24  C   UNL     1      -2.764   9.849  38.713  0.00  0.00    +0.214 C 
ATOM     44  H   UNL     1      -3.866   8.189  38.110  0.00  0.00    +0.149 HD
BRANCH   8  26
ATOM     26  C   UNL     1      -4.253   8.485  40.170  0.00  0.00    +0.178 C 
BRANCH  26  28
ATOM      6  O   UNL     1      -4.306   6.692  41.807  0.00  0.00    -0.466 OA
ATOM     28  C   UNL     1      -3.683   7.212  40.717  0.00  0.00    +0.122 A 
ATOM     30  C   UNL     1      -2.623   6.419  40.343  0.00  0.00    +0.046 A 
ATOM     33  C   UNL     1      -2.593   5.343  41.263  0.00  0.00    +0.041 A 
ATOM     34  C   UNL     1      -3.637   5.555  42.133  0.00  0.00    +0.195 A 
ENDBRANCH  26  28
ENDBRANCH   8  26
ENDBRANCH  23  24
ENDBRANCH  13  23
TORSDOF 9
ENDMDL
MODEL 4
REMARK VINA RESULT:      -6.4      3.394      6.347
REMARK  Name = 11882990
REMARK  14 active torsions:
REMARK  status: ('A' for Active; 'I' for Inactive)
REMARK    1  A    between atoms: O_2  and  C_15
REMARK    2  A    between atoms: O_3  and  C_20
REMARK    3  A    between atoms: N_8  and  C_26
REMARK    4  A    between atoms: C_10  and  C_18
REMARK    5  A    between atoms: C_12  and  C_20
REMARK    6  A    between atoms: C_12  and  C_21
REMARK    7  A    between atoms: C_13  and  C_23
REMARK    8  A    between atoms: C_23  and  C_24
REMARK    9  A    between atoms: C_26  and  C_28
REMARK   10  A    between atoms: C_27  and  C_29
REMARK   11  A    between atoms: C_35  and  C_38
REMARK   12  A    between atoms: C_38  and  C_39
REMARK   13  A    between atoms: C_38  and  C_40
REMARK   14  A    between atoms: C_38  and  C_41
REMARK                            x       y       z     vdW  Elec       q    Type
REMARK                         _______ _______ _______ _____ _____    ______ ____
ROOT
ATOM      1  S   UNL     1      -4.250  -9.902   9.683  0.00  0.00    -0.057 S 
ATOM      5  O   UNL     1      -8.751  -8.940   8.985  0.00  0.00    -0.270 OA
ATOM      7  N   UNL     1      -6.566  -9.719  10.820  0.00  0.00    -0.229 NA
ATOM      9  N   UNL     1      -6.474  -9.246   8.459  0.00  0.00    -0.261 N 
ATOM     10  C   UNL     1      -4.950 -11.098  14.038  0.00  0.00    -0.019 C 
ATOM     11  C   UNL     1      -3.537 -10.447  13.702  0.00  0.00    +0.011 C 
ATOM     12  C   UNL     1      -2.342 -10.785  14.675  0.00  0.00    +0.021 C 
ATOM     13  C   UNL     1      -6.068 -10.297  13.225  0.00  0.00    +0.054 C 
ATOM     14  C   UNL     1      -5.242 -10.942  15.554  0.00  0.00    +0.010 C 
ATOM     15  C   UNL     1      -2.818 -10.623  16.146  0.00  0.00    +0.123 C 
ATOM     16  C   UNL     1      -3.182 -10.605  12.194  0.00  0.00    +0.049 C 
ATOM     17  C   UNL     1      -4.098 -11.392  16.452  0.00  0.00    +0.032 C 
ATOM     18  C   UNL     1      -5.023 -12.600  13.671  0.00  0.00    +0.012 C 
ATOM     19  C   UNL     1      -5.654 -10.097  11.790  0.00  0.00    +0.058 A 
ATOM     21  C   UNL     1      -1.195  -9.762  14.444  0.00  0.00    +0.016 C 
ATOM     22  C   UNL     1      -4.352 -10.222  11.352  0.00  0.00    +0.015 A 
ATOM     25  C   UNL     1      -5.939  -9.595   9.671  0.00  0.00    +0.165 A 
ATOM     27  C   UNL     1      -7.819  -8.945   8.189  0.00  0.00    +0.250 C 
ATOM     45  H   UNL     1      -5.784  -9.173   7.718  0.00  0.00    +0.157 HD
ENDROOT
BRANCH  27  29
ATOM     29  C   UNL     1      -8.115  -8.566   6.782  0.00  0.00    +0.037 A 
ATOM     31  C   UNL     1      -9.146  -7.669   6.502  0.00  0.00    +0.013 A 
ATOM     32  C   UNL     1      -7.361  -9.108   5.740  0.00  0.00    +0.013 A 
ATOM     35  C   UNL     1      -8.668  -7.855   4.142  0.00  0.00    -0.042 A 
ATOM     36  C   UNL     1      -9.423  -7.313   5.183  0.00  0.00    +0.005 A 
ATOM     37  C   UNL     1      -7.638  -8.753   4.421  0.00  0.00    +0.005 A 
BRANCH  35  38
ATOM     38  C   UNL     1      -8.964  -7.475   2.730  0.00  0.00    -0.013 C 
ATOM     39  C   UNL     1     -10.298  -8.118   2.240  0.00  0.00    +0.015 C 
ATOM     40  C   UNL     1      -7.832  -7.949   1.767  0.00  0.00    +0.015 C 
ATOM     41  C   UNL     1      -9.120  -5.941   2.465  0.00  0.00    +0.015 C 
ENDBRANCH  35  38
ENDBRANCH  27  29
BRANCH  15   2
ATOM      2  O   UNL     1      -1.801 -11.046  17.053  0.00  0.00    -0.391 OA
ATOM     42  H   UNL     1      -1.189 -10.301  17.179  0.00  0.00    +0.210 HD
ENDBRANCH  15   2
BRANCH  12  20
ATOM     20  C   UNL     1      -1.708 -12.176  14.451  0.00  0.00    +0.165 C 
BRANCH  20   3
ATOM      3  O   UNL     1      -0.416 -12.158  15.013  0.00  0.00    -0.394 OA
ATOM     43  H   UNL     1       0.149 -11.627  14.427  0.00  0.00    +0.209 HD
ENDBRANCH  20   3
ENDBRANCH  12  20
BRANCH  13  23
ATOM     23  C   UNL     1      -7.479 -10.893  13.325  0.00  0.00    +0.106 C 
BRANCH  23  24
ATOM      4  O   UNL     1      -8.584  -9.172  14.619  0.00  0.00    -0.276 OA
ATOM      8  N   UNL     1      -8.492 -11.343  15.442  0.00  0.00    -0.308 N 
ATOM     24  C   UNL     1      -8.241 -10.346  14.511  0.00  0.00    +0.214 C 
ATOM     44  H   UNL     1      -8.179 -12.291  15.251  0.00  0.00    +0.149 HD
BRANCH   8  26
ATOM     26  C   UNL     1      -9.202 -11.108  16.679  0.00  0.00    +0.178 C 
BRANCH  26  28
ATOM      6  O   UNL     1      -8.132 -12.198  18.566  0.00  0.00    -0.466 OA
ATOM     28  C   UNL     1      -8.227 -11.068  17.816  0.00  0.00    +0.122 A 
ATOM     30  C   UNL     1      -7.371 -10.101  18.288  0.00  0.00    +0.046 A 
ATOM     33  C   UNL     1      -6.707 -10.673  19.400  0.00  0.00    +0.041 A 
ATOM     34  C   UNL     1      -7.205 -11.948  19.528  0.00  0.00    +0.195 A 
ENDBRANCH  26  28
ENDBRANCH   8  26
ENDBRANCH  23  24
ENDBRANCH  13  23
TORSDOF 9
ENDMDL
MODEL 5
REMARK VINA RESULT:      -6.4      5.285     10.410
REMARK  Name = 11882990
REMARK  14 active torsions:
REMARK  status: ('A' for Active; 'I' for Inactive)
REMARK    1  A    between atoms: O_2  and  C_15
REMARK    2  A    between atoms: O_3  and  C_20
REMARK    3  A    between atoms: N_8  and  C_26
REMARK    4  A    between atoms: C_10  and  C_18
REMARK    5  A    between atoms: C_12  and  C_20
REMARK    6  A    between atoms: C_12  and  C_21
REMARK    7  A    between atoms: C_13  and  C_23
REMARK    8  A    between atoms: C_23  and  C_24
REMARK    9  A    between atoms: C_26  and  C_28
REMARK   10  A    between atoms: C_27  and  C_29
REMARK   11  A    between atoms: C_35  and  C_38
REMARK   12  A    between atoms: C_38  and  C_39
REMARK   13  A    between atoms: C_38  and  C_40
REMARK   14  A    between atoms: C_38  and  C_41
REMARK                            x       y       z     vdW  Elec       q    Type
REMARK                         _______ _______ _______ _____ _____    ______ ____
ROOT
ATOM      1  S   UNL     1      -7.102  -9.982   5.177  0.00  0.00    -0.057 S 
ATOM      5  O   UNL     1      -7.609  -8.785   9.647  0.00  0.00    -0.270 OA
ATOM      7  N   UNL     1      -6.306 -10.465   7.591  0.00  0.00    -0.229 NA
ATOM      9  N   UNL     1      -7.974  -8.747   7.319  0.00  0.00    -0.261 N 
ATOM     10  C   UNL     1      -4.260 -13.417   6.188  0.00  0.00    -0.019 C 
ATOM     11  C   UNL     1      -4.025 -12.692   4.790  0.00  0.00    +0.011 C 
ATOM     12  C   UNL     1      -3.289 -13.521   3.667  0.00  0.00    +0.021 C 
ATOM     13  C   UNL     1      -4.599 -12.295   7.274  0.00  0.00    +0.054 C 
ATOM     14  C   UNL     1      -2.957 -14.138   6.620  0.00  0.00    +0.010 C 
ATOM     15  C   UNL     1      -2.038 -14.212   4.279  0.00  0.00    +0.123 C 
ATOM     16  C   UNL     1      -5.317 -11.977   4.295  0.00  0.00    +0.049 C 
ATOM     17  C   UNL     1      -2.350 -15.018   5.535  0.00  0.00    +0.032 C 
ATOM     18  C   UNL     1      -5.409 -14.453   6.142  0.00  0.00    +0.012 C 
ATOM     19  C   UNL     1      -5.624 -11.324   6.748  0.00  0.00    +0.058 A 
ATOM     21  C   UNL     1      -2.787 -12.547   2.565  0.00  0.00    +0.016 C 
ATOM     22  C   UNL     1      -5.918 -11.185   5.407  0.00  0.00    +0.015 A 
ATOM     25  C   UNL     1      -7.117  -9.718   6.873  0.00  0.00    +0.165 A 
ATOM     27  C   UNL     1      -8.169  -8.344   8.650  0.00  0.00    +0.250 C 
ATOM     45  H   UNL     1      -8.471  -8.272   6.572  0.00  0.00    +0.157 HD
ENDROOT
BRANCH  27  29
ATOM     29  C   UNL     1      -9.146  -7.239   8.843  0.00  0.00    +0.037 A 
ATOM     31  C   UNL     1     -10.396  -7.501   9.403  0.00  0.00    +0.013 A 
ATOM     32  C   UNL     1      -8.811  -5.938   8.464  0.00  0.00    +0.013 A 
ATOM     35  C   UNL     1     -10.975  -5.165   9.206  0.00  0.00    -0.042 A 
ATOM     36  C   UNL     1     -11.311  -6.465   9.585  0.00  0.00    +0.005 A 
ATOM     37  C   UNL     1      -9.725  -4.902   8.645  0.00  0.00    +0.005 A 
BRANCH  35  38
ATOM     38  C   UNL     1     -11.954  -4.056   9.399  0.00  0.00    -0.013 C 
ATOM     39  C   UNL     1     -13.377  -4.466   8.909  0.00  0.00    +0.015 C 
ATOM     40  C   UNL     1     -11.531  -2.782   8.603  0.00  0.00    +0.015 C 
ATOM     41  C   UNL     1     -12.145  -3.578  10.877  0.00  0.00    +0.015 C 
ENDBRANCH  35  38
ENDBRANCH  27  29
BRANCH  15   2
ATOM      2  O   UNL     1      -1.422 -15.074   3.323  0.00  0.00    -0.391 OA
ATOM     42  H   UNL     1      -1.777 -14.844   2.447  0.00  0.00    +0.210 HD
ENDBRANCH  15   2
BRANCH  12  20
ATOM     20  C   UNL     1      -4.184 -14.547   2.938  0.00  0.00    +0.165 C 
BRANCH  20   3
ATOM      3  O   UNL     1      -3.818 -14.550   1.577  0.00  0.00    -0.394 OA
ATOM     43  H   UNL     1      -3.597 -15.466   1.337  0.00  0.00    +0.209 HD
ENDBRANCH  20   3
ENDBRANCH  12  20
BRANCH  13  23
ATOM     23  C   UNL     1      -4.997 -12.841   8.651  0.00  0.00    +0.106 C 
BRANCH  23  24
ATOM      4  O   UNL     1      -3.407 -13.099  10.458  0.00  0.00    -0.276 OA
ATOM      8  N   UNL     1      -4.082 -10.969   9.821  0.00  0.00    -0.308 N 
ATOM     24  C   UNL     1      -4.071 -12.354   9.743  0.00  0.00    +0.214 C 
ATOM     44  H   UNL     1      -4.656 -10.440   9.171  0.00  0.00    +0.149 HD
BRANCH   8  26
ATOM     26  C   UNL     1      -3.293 -10.226  10.777  0.00  0.00    +0.178 C 
BRANCH  26  28
ATOM      6  O   UNL     1      -3.144 -10.672  13.159  0.00  0.00    -0.466 OA
ATOM     28  C   UNL     1      -3.943 -10.298  12.125  0.00  0.00    +0.122 A 
ATOM     30  C   UNL     1      -5.223 -10.058  12.566  0.00  0.00    +0.046 A 
ATOM     33  C   UNL     1      -5.210 -10.300  13.961  0.00  0.00    +0.041 A 
ATOM     34  C   UNL     1      -3.923 -10.671  14.272  0.00  0.00    +0.195 A 
ENDBRANCH  26  28
ENDBRANCH   8  26
ENDBRANCH  23  24
ENDBRANCH  13  23
TORSDOF 9
ENDMDL
MODEL 6
REMARK VINA RESULT:      -6.3     25.271     28.243
REMARK  Name = 11882990
REMARK  14 active torsions:
REMARK  status: ('A' for Active; 'I' for Inactive)
REMARK    1  A    between atoms: O_2  and  C_15
REMARK    2  A    between atoms: O_3  and  C_20
REMARK    3  A    between atoms: N_8  and  C_26
REMARK    4  A    between atoms: C_10  and  C_18
REMARK    5  A    between atoms: C_12  and  C_20
REMARK    6  A    between atoms: C_12  and  C_21
REMARK    7  A    between atoms: C_13  and  C_23
REMARK    8  A    between atoms: C_23  and  C_24
REMARK    9  A    between atoms: C_26  and  C_28
REMARK   10  A    between atoms: C_27  and  C_29
REMARK   11  A    between atoms: C_35  and  C_38
REMARK   12  A    between atoms: C_38  and  C_39
REMARK   13  A    between atoms: C_38  and  C_40
REMARK   14  A    between atoms: C_38  and  C_41
REMARK                            x       y       z     vdW  Elec       q    Type
REMARK                         _______ _______ _______ _____ _____    ______ ____
ROOT
ATOM      1  S   UNL     1      10.019   8.632   0.389  0.00  0.00    -0.057 S 
ATOM      5  O   UNL     1       7.493   8.129   4.266  0.00  0.00    -0.270 OA
ATOM      7  N   UNL     1       9.754   7.263   2.569  0.00  0.00    -0.229 NA
ATOM      9  N   UNL     1       8.162   9.033   2.195  0.00  0.00    -0.261 N 
ATOM     10  C   UNL     1      12.561   4.944   1.300  0.00  0.00    -0.019 C 
ATOM     11  C   UNL     1      13.280   6.120   0.502  0.00  0.00    +0.011 C 
ATOM     12  C   UNL     1      14.526   5.728  -0.383  0.00  0.00    +0.021 C 
ATOM     13  C   UNL     1      11.649   5.604   2.434  0.00  0.00    +0.054 C 
ATOM     14  C   UNL     1      13.632   4.058   1.988  0.00  0.00    +0.010 C 
ATOM     15  C   UNL     1      15.469   4.807   0.440  0.00  0.00    +0.123 C 
ATOM     16  C   UNL     1      12.247   7.023  -0.234  0.00  0.00    +0.049 C 
ATOM     17  C   UNL     1      14.753   3.612   1.059  0.00  0.00    +0.032 C 
ATOM     18  C   UNL     1      11.685   4.049   0.391  0.00  0.00    +0.012 C 
ATOM     19  C   UNL     1      10.835   6.744   1.879  0.00  0.00    +0.058 A 
ATOM     21  C   UNL     1      15.325   7.015  -0.732  0.00  0.00    +0.016 C 
ATOM     22  C   UNL     1      11.131   7.378   0.690  0.00  0.00    +0.015 A 
ATOM     25  C   UNL     1       9.243   8.256   1.874  0.00  0.00    +0.165 A 
ATOM     27  C   UNL     1       7.364   8.929   3.347  0.00  0.00    +0.250 C 
ATOM     45  H   UNL     1       7.978   9.770   1.522  0.00  0.00    +0.157 HD
ENDROOT
BRANCH  27  29
ATOM     29  C   UNL     1       6.268   9.927   3.454  0.00  0.00    +0.037 A 
ATOM     31  C   UNL     1       5.238   9.938   2.513  0.00  0.00    +0.013 A 
ATOM     32  C   UNL     1       6.268  10.855   4.497  0.00  0.00    +0.013 A 
ATOM     35  C   UNL     1       4.211  11.801   3.657  0.00  0.00    -0.042 A 
ATOM     36  C   UNL     1       4.210  10.874   2.614  0.00  0.00    +0.005 A 
ATOM     37  C   UNL     1       5.241  11.791   4.598  0.00  0.00    +0.005 A 
BRANCH  35  38
ATOM     38  C   UNL     1       3.112  12.804   3.765  0.00  0.00    -0.013 C 
ATOM     39  C   UNL     1       2.389  12.704   5.144  0.00  0.00    +0.015 C 
ATOM     40  C   UNL     1       2.037  12.589   2.655  0.00  0.00    +0.015 C 
ATOM     41  C   UNL     1       3.552  14.300   3.634  0.00  0.00    +0.015 C 
ENDBRANCH  35  38
ENDBRANCH  27  29
BRANCH  15   2
ATOM      2  O   UNL     1      16.540   4.329  -0.373  0.00  0.00    -0.391 OA
ATOM     42  H   UNL     1      16.566   3.361  -0.289  0.00  0.00    +0.210 HD
ENDBRANCH  15   2
BRANCH  12  20
ATOM     20  C   UNL     1      14.169   5.081  -1.740  0.00  0.00    +0.165 C 
BRANCH  20   3
ATOM      3  O   UNL     1      15.195   5.398  -2.652  0.00  0.00    -0.394 OA
ATOM     43  H   UNL     1      14.778   5.815  -3.426  0.00  0.00    +0.209 HD
ENDBRANCH  20   3
ENDBRANCH  12  20
BRANCH  13  23
ATOM     23  C   UNL     1      10.771   4.609   3.204  0.00  0.00    +0.106 C 
BRANCH  23  24
ATOM      4  O   UNL     1       9.850   4.462   5.437  0.00  0.00    -0.276 OA
ATOM      8  N   UNL     1      11.623   5.905   5.022  0.00  0.00    -0.308 N 
ATOM     24  C   UNL     1      10.672   4.959   4.672  0.00  0.00    +0.214 C 
ATOM     44  H   UNL     1      12.270   6.244   4.315  0.00  0.00    +0.149 HD
BRANCH   8  26
ATOM     26  C   UNL     1      11.759   6.430   6.361  0.00  0.00    +0.178 C 
BRANCH  26  28
ATOM      6  O   UNL     1       9.883   7.352   7.597  0.00  0.00    -0.466 OA
ATOM     28  C   UNL     1      10.760   7.526   6.573  0.00  0.00    +0.122 A 
ATOM     30  C   UNL     1      10.523   8.720   5.933  0.00  0.00    +0.046 A 
ATOM     33  C   UNL     1       9.432   9.319   6.608  0.00  0.00    +0.041 A 
ATOM     34  C   UNL     1       9.079   8.448   7.611  0.00  0.00    +0.195 A 
ENDBRANCH  26  28
ENDBRANCH   8  26
ENDBRANCH  23  24
ENDBRANCH  13  23
TORSDOF 9
ENDMDL
MODEL 7
REMARK VINA RESULT:      -6.3      3.955      7.171
REMARK  Name = 11882990
REMARK  14 active torsions:
REMARK  status: ('A' for Active; 'I' for Inactive)
REMARK    1  A    between atoms: O_2  and  C_15
REMARK    2  A    between atoms: O_3  and  C_20
REMARK    3  A    between atoms: N_8  and  C_26
REMARK    4  A    between atoms: C_10  and  C_18
REMARK    5  A    between atoms: C_12  and  C_20
REMARK    6  A    between atoms: C_12  and  C_21
REMARK    7  A    between atoms: C_13  and  C_23
REMARK    8  A    between atoms: C_23  and  C_24
REMARK    9  A    between atoms: C_26  and  C_28
REMARK   10  A    between atoms: C_27  and  C_29
REMARK   11  A    between atoms: C_35  and  C_38
REMARK   12  A    between atoms: C_38  and  C_39
REMARK   13  A    between atoms: C_38  and  C_40
REMARK   14  A    between atoms: C_38  and  C_41
REMARK                            x       y       z     vdW  Elec       q    Type
REMARK                         _______ _______ _______ _____ _____    ______ ____
ROOT
ATOM      1  S   UNL     1      -5.110 -10.086  10.006  0.00  0.00    -0.057 S 
ATOM      5  O   UNL     1      -9.584  -8.823   9.773  0.00  0.00    -0.270 OA
ATOM      7  N   UNL     1      -7.264  -9.697  11.385  0.00  0.00    -0.229 NA
ATOM      9  N   UNL     1      -7.408  -9.312   9.011  0.00  0.00    -0.261 N 
ATOM     10  C   UNL     1      -5.391 -11.078  14.459  0.00  0.00    -0.019 C 
ATOM     11  C   UNL     1      -3.984 -10.544  13.941  0.00  0.00    +0.011 C 
ATOM     12  C   UNL     1      -2.712 -10.935  14.789  0.00  0.00    +0.021 C 
ATOM     13  C   UNL     1      -6.537 -10.227  13.742  0.00  0.00    +0.054 C 
ATOM     14  C   UNL     1      -5.497 -10.850  15.989  0.00  0.00    +0.010 C 
ATOM     15  C   UNL     1      -3.005 -10.688  16.295  0.00  0.00    +0.123 C 
ATOM     16  C   UNL     1      -3.814 -10.779  12.411  0.00  0.00    +0.049 C 
ATOM     17  C   UNL     1      -4.292 -11.351  16.774  0.00  0.00    +0.032 C 
ATOM     18  C   UNL     1      -5.607 -12.583  14.166  0.00  0.00    +0.012 C 
ATOM     19  C   UNL     1      -6.276 -10.106  12.263  0.00  0.00    +0.058 A 
ATOM     21  C   UNL     1      -1.531 -10.006  14.389  0.00  0.00    +0.016 C 
ATOM     22  C   UNL     1      -5.043 -10.341  11.689  0.00  0.00    +0.015 A 
ATOM     25  C   UNL     1      -6.764  -9.657  10.169  0.00  0.00    +0.165 A 
ATOM     27  C   UNL     1      -8.752  -8.923   8.879  0.00  0.00    +0.250 C 
ATOM     45  H   UNL     1      -6.804  -9.315   8.195  0.00  0.00    +0.157 HD
ENDROOT
BRANCH  27  29
ATOM     29  C   UNL     1      -9.179  -8.572   7.499  0.00  0.00    +0.037 A 
ATOM     31  C   UNL     1      -8.427  -7.674   6.741  0.00  0.00    +0.013 A 
ATOM     32  C   UNL     1     -10.335  -9.142   6.961  0.00  0.00    +0.013 A 
ATOM     35  C   UNL     1      -9.983  -7.916   4.910  0.00  0.00    -0.042 A 
ATOM     36  C   UNL     1      -8.828  -7.346   5.447  0.00  0.00    +0.005 A 
ATOM     37  C   UNL     1     -10.736  -8.813   5.667  0.00  0.00    +0.005 A 
BRANCH  35  38
ATOM     38  C   UNL     1     -10.413  -7.565   3.525  0.00  0.00    -0.013 C 
ATOM     39  C   UNL     1     -10.554  -8.839   2.636  0.00  0.00    +0.015 C 
ATOM     40  C   UNL     1      -9.382  -6.620   2.833  0.00  0.00    +0.015 C 
ATOM     41  C   UNL     1     -11.790  -6.828   3.416  0.00  0.00    +0.015 C 
ENDBRANCH  35  38
ENDBRANCH  27  29
BRANCH  15   2
ATOM      2  O   UNL     1      -1.923 -11.153  17.101  0.00  0.00    -0.391 OA
ATOM     42  H   UNL     1      -1.748 -12.078  16.855  0.00  0.00    +0.210 HD
ENDBRANCH  15   2
BRANCH  12  20
ATOM     20  C   UNL     1      -2.204 -12.375  14.554  0.00  0.00    +0.165 C 
BRANCH  20   3
ATOM      3  O   UNL     1      -0.811 -12.381  14.761  0.00  0.00    -0.394 OA
ATOM     43  H   UNL     1      -0.413 -11.808  14.083  0.00  0.00    +0.209 HD
ENDBRANCH  20   3
ENDBRANCH  12  20
BRANCH  13  23
ATOM     23  C   UNL     1      -7.964 -10.714  14.023  0.00  0.00    +0.106 C 
BRANCH  23  24
ATOM      4  O   UNL     1      -9.757  -9.100  13.833  0.00  0.00    -0.276 OA
ATOM      8  N   UNL     1      -8.526  -9.219  15.800  0.00  0.00    -0.308 N 
ATOM     24  C   UNL     1      -8.859  -9.597  14.508  0.00  0.00    +0.214 C 
ATOM     44  H   UNL     1      -7.773  -9.704  16.281  0.00  0.00    +0.149 HD
BRANCH   8  26
ATOM     26  C   UNL     1      -9.212  -8.169  16.518  0.00  0.00    +0.178 C 
BRANCH  26  28
ATOM      6  O   UNL     1      -9.920  -9.617  18.334  0.00  0.00    -0.466 OA
ATOM     28  C   UNL     1     -10.307  -8.765  17.349  0.00  0.00    +0.122 A 
ATOM     30  C   UNL     1     -11.676  -8.634  17.335  0.00  0.00    +0.046 A 
ATOM     33  C   UNL     1     -12.161  -9.459  18.379  0.00  0.00    +0.041 A 
ATOM     34  C   UNL     1     -11.053 -10.035  18.956  0.00  0.00    +0.195 A 
ENDBRANCH  26  28
ENDBRANCH   8  26
ENDBRANCH  23  24
ENDBRANCH  13  23
TORSDOF 9
ENDMDL
MODEL 8
REMARK VINA RESULT:      -6.3      9.300     13.449
REMARK  Name = 11882990
REMARK  14 active torsions:
REMARK  status: ('A' for Active; 'I' for Inactive)
REMARK    1  A    between atoms: O_2  and  C_15
REMARK    2  A    between atoms: O_3  and  C_20
REMARK    3  A    between atoms: N_8  and  C_26
REMARK    4  A    between atoms: C_10  and  C_18
REMARK    5  A    between atoms: C_12  and  C_20
REMARK    6  A    between atoms: C_12  and  C_21
REMARK    7  A    between atoms: C_13  and  C_23
REMARK    8  A    between atoms: C_23  and  C_24
REMARK    9  A    between atoms: C_26  and  C_28
REMARK   10  A    between atoms: C_27  and  C_29
REMARK   11  A    between atoms: C_35  and  C_38
REMARK   12  A    between atoms: C_38  and  C_39
REMARK   13  A    between atoms: C_38  and  C_40
REMARK   14  A    between atoms: C_38  and  C_41
REMARK                            x       y       z     vdW  Elec       q    Type
REMARK                         _______ _______ _______ _____ _____    ______ ____
ROOT
ATOM      1  S   UNL     1      -2.838 -12.533   3.725  0.00  0.00    -0.057 S 
ATOM      5  O   UNL     1      -1.868 -14.585  -0.339  0.00  0.00    -0.270 OA
ATOM      7  N   UNL     1      -3.853 -13.417   1.516  0.00  0.00    -0.229 NA
ATOM      9  N   UNL     1      -1.470 -13.650   1.788  0.00  0.00    -0.261 N 
ATOM     10  C   UNL     1      -7.343 -12.655   2.966  0.00  0.00    -0.019 C 
ATOM     11  C   UNL     1      -6.805 -11.431   3.831  0.00  0.00    +0.011 C 
ATOM     12  C   UNL     1      -7.832 -10.733   4.803  0.00  0.00    +0.021 C 
ATOM     13  C   UNL     1      -6.310 -12.910   1.774  0.00  0.00    +0.054 C 
ATOM     14  C   UNL     1      -8.719 -12.286   2.352  0.00  0.00    +0.010 C 
ATOM     15  C   UNL     1      -9.164 -10.478   4.043  0.00  0.00    +0.123 C 
ATOM     16  C   UNL     1      -5.437 -11.764   4.497  0.00  0.00    +0.049 C 
ATOM     17  C   UNL     1      -9.713 -11.723   3.358  0.00  0.00    +0.032 C 
ATOM     18  C   UNL     1      -7.503 -13.953   3.796  0.00  0.00    +0.012 C 
ATOM     19  C   UNL     1      -4.891 -12.913   2.279  0.00  0.00    +0.058 A 
ATOM     21  C   UNL     1      -7.268  -9.348   5.227  0.00  0.00    +0.016 C 
ATOM     22  C   UNL     1      -4.518 -12.378   3.495  0.00  0.00    +0.015 A 
ATOM     25  C   UNL     1      -2.727 -13.276   2.181  0.00  0.00    +0.165 A 
ATOM     27  C   UNL     1      -1.118 -14.271   0.578  0.00  0.00    +0.250 C 
ATOM     45  H   UNL     1      -0.746 -13.401   2.454  0.00  0.00    +0.157 HD
ENDROOT
BRANCH  27  29
ATOM     29  C   UNL     1       0.334 -14.539   0.400  0.00  0.00    +0.037 A 
ATOM     31  C   UNL     1       1.257 -14.023   1.310  0.00  0.00    +0.013 A 
ATOM     32  C   UNL     1       0.774 -15.308  -0.679  0.00  0.00    +0.013 A 
ATOM     35  C   UNL     1       3.057 -15.044   0.066  0.00  0.00    -0.042 A 
ATOM     36  C   UNL     1       2.617 -14.275   1.144  0.00  0.00    +0.005 A 
ATOM     37  C   UNL     1       2.135 -15.560  -0.846  0.00  0.00    +0.005 A 
BRANCH  35  38
ATOM     38  C   UNL     1       4.513 -15.314  -0.114  0.00  0.00    -0.013 C 
ATOM     39  C   UNL     1       5.172 -15.775   1.223  0.00  0.00    +0.015 C 
ATOM     40  C   UNL     1       5.270 -14.038  -0.596  0.00  0.00    +0.015 C 
ATOM     41  C   UNL     1       4.866 -16.426  -1.157  0.00  0.00    +0.015 C 
ENDBRANCH  35  38
ENDBRANCH  27  29
BRANCH  15   2
ATOM      2  O   UNL     1     -10.158  -9.965   4.930  0.00  0.00    -0.391 OA
ATOM     42  H   UNL     1     -10.067 -10.433   5.777  0.00  0.00    +0.210 HD
ENDBRANCH  15   2
BRANCH  12  20
ATOM     20  C   UNL     1      -8.087 -11.498   6.121  0.00  0.00    +0.165 C 
BRANCH  20   3
ATOM      3  O   UNL     1      -8.234 -10.547   7.150  0.00  0.00    -0.394 OA
ATOM     43  H   UNL     1      -7.347 -10.355   7.499  0.00  0.00    +0.209 HD
ENDBRANCH  20   3
ENDBRANCH  12  20
BRANCH  13  23
ATOM     23  C   UNL     1      -6.609 -14.154   0.928  0.00  0.00    +0.106 C 
BRANCH  23  24
ATOM      4  O   UNL     1      -7.786 -14.354  -1.178  0.00  0.00    -0.276 OA
ATOM      8  N   UNL     1      -6.086 -12.785  -0.959  0.00  0.00    -0.308 N 
ATOM     24  C   UNL     1      -6.916 -13.802  -0.510  0.00  0.00    +0.214 C 
ATOM     44  H   UNL     1      -5.405 -12.382  -0.321  0.00  0.00    +0.149 HD
BRANCH   8  26
ATOM     26  C   UNL     1      -6.152 -12.245  -2.298  0.00  0.00    +0.178 C 
BRANCH  26  28
ATOM      6  O   UNL     1      -7.508 -10.582  -1.162  0.00  0.00    -0.466 OA
ATOM     28  C   UNL     1      -6.759 -10.877  -2.258  0.00  0.00    +0.122 A 
ATOM     30  C   UNL     1      -6.725  -9.807  -3.121  0.00  0.00    +0.046 A 
ATOM     33  C   UNL     1      -7.502  -8.789  -2.517  0.00  0.00    +0.041 A 
ATOM     34  C   UNL     1      -7.956  -9.310  -1.328  0.00  0.00    +0.195 A 
ENDBRANCH  26  28
ENDBRANCH   8  26
ENDBRANCH  23  24
ENDBRANCH  13  23
TORSDOF 9
ENDMDL
MODEL 9
REMARK VINA RESULT:      -6.2      4.657      7.599
REMARK  Name = 11882990
REMARK  14 active torsions:
REMARK  status: ('A' for Active; 'I' for Inactive)
REMARK    1  A    between atoms: O_2  and  C_15
REMARK    2  A    between atoms: O_3  and  C_20
REMARK    3  A    between atoms: N_8  and  C_26
REMARK    4  A    between atoms: C_10  and  C_18
REMARK    5  A    between atoms: C_12  and  C_20
REMARK    6  A    between atoms: C_12  and  C_21
REMARK    7  A    between atoms: C_13  and  C_23
REMARK    8  A    between atoms: C_23  and  C_24
REMARK    9  A    between atoms: C_26  and  C_28
REMARK   10  A    between atoms: C_27  and  C_29
REMARK   11  A    between atoms: C_35  and  C_38
REMARK   12  A    between atoms: C_38  and  C_39
REMARK   13  A    between atoms: C_38  and  C_40
REMARK   14  A    between atoms: C_38  and  C_41
REMARK                            x       y       z     vdW  Elec       q    Type
REMARK                         _______ _______ _______ _____ _____    ______ ____
ROOT
ATOM      1  S   UNL     1      -6.598 -10.897  12.614  0.00  0.00    -0.057 S 
ATOM      5  O   UNL     1     -10.242  -8.556  10.907  0.00  0.00    -0.270 OA
ATOM      7  N   UNL     1      -8.795  -9.678  13.230  0.00  0.00    -0.229 NA
ATOM      9  N   UNL     1      -8.210  -9.751  10.894  0.00  0.00    -0.261 N 
ATOM     10  C   UNL     1      -8.285 -10.867  16.862  0.00  0.00    -0.019 C 
ATOM     11  C   UNL     1      -6.698 -10.843  16.731  0.00  0.00    +0.011 C 
ATOM     12  C   UNL     1      -5.869 -11.382  17.960  0.00  0.00    +0.021 C 
ATOM     13  C   UNL     1      -8.887  -9.901  15.741  0.00  0.00    +0.054 C 
ATOM     14  C   UNL     1      -8.695 -10.317  18.253  0.00  0.00    +0.010 C 
ATOM     15  C   UNL     1      -6.439 -10.770  19.270  0.00  0.00    +0.123 C 
ATOM     16  C   UNL     1      -6.232 -11.416  15.360  0.00  0.00    +0.049 C 
ATOM     17  C   UNL     1      -7.945 -10.955  19.415  0.00  0.00    +0.032 C 
ATOM     18  C   UNL     1      -8.881 -12.286  16.694  0.00  0.00    +0.012 C 
ATOM     19  C   UNL     1      -8.239 -10.153  14.404  0.00  0.00    +0.058 A 
ATOM     21  C   UNL     1      -4.396 -10.903  17.827  0.00  0.00    +0.016 C 
ATOM     22  C   UNL     1      -7.040 -10.818  14.257  0.00  0.00    +0.015 A 
ATOM     25  C   UNL     1      -8.020 -10.017  12.223  0.00  0.00    +0.165 A 
ATOM     27  C   UNL     1      -9.286  -9.052  10.322  0.00  0.00    +0.250 C 
ATOM     45  H   UNL     1      -7.453 -10.079  10.303  0.00  0.00    +0.157 HD
ENDROOT
BRANCH  27  29
ATOM     29  C   UNL     1      -9.221  -8.882   8.846  0.00  0.00    +0.037 A 
ATOM     31  C   UNL     1      -9.007  -7.618   8.296  0.00  0.00    +0.013 A 
ATOM     32  C   UNL     1      -9.373  -9.990   8.009  0.00  0.00    +0.013 A 
ATOM     35  C   UNL     1      -9.097  -8.567   6.077  0.00  0.00    -0.042 A 
ATOM     36  C   UNL     1      -8.946  -7.460   6.913  0.00  0.00    +0.005 A 
ATOM     37  C   UNL     1      -9.312  -9.831   6.626  0.00  0.00    +0.005 A 
BRANCH  35  38
ATOM     38  C   UNL     1      -9.032  -8.398   4.596  0.00  0.00    -0.013 C 
ATOM     39  C   UNL     1      -7.561  -8.208   4.113  0.00  0.00    +0.015 C 
ATOM     40  C   UNL     1      -9.846  -7.151   4.131  0.00  0.00    +0.015 C 
ATOM     41  C   UNL     1      -9.593  -9.596   3.759  0.00  0.00    +0.015 C 
ENDBRANCH  35  38
ENDBRANCH  27  29
BRANCH  15   2
ATOM      2  O   UNL     1      -5.795 -11.337  20.411  0.00  0.00    -0.391 OA
ATOM     42  H   UNL     1      -4.876 -11.019  20.420  0.00  0.00    +0.210 HD
ENDBRANCH  15   2
BRANCH  12  20
ATOM     20  C   UNL     1      -5.796 -12.922  18.057  0.00  0.00    +0.165 C 
BRANCH  20   3
ATOM      3  O   UNL     1      -4.517 -13.265  18.538  0.00  0.00    -0.394 OA
ATOM     43  H   UNL     1      -3.979 -12.455  18.535  0.00  0.00    +0.209 HD
ENDBRANCH  20   3
ENDBRANCH  12  20
BRANCH  13  23
ATOM     23  C   UNL     1     -10.418  -9.922  15.637  0.00  0.00    +0.106 C 
BRANCH  23  24
ATOM      4  O   UNL     1     -11.861  -8.591  17.052  0.00  0.00    -0.276 OA
ATOM      8  N   UNL     1     -10.554  -7.545  15.441  0.00  0.00    -0.308 N 
ATOM     24  C   UNL     1     -11.038  -8.639  16.142  0.00  0.00    +0.214 C 
ATOM     44  H   UNL     1      -9.860  -7.689  14.712  0.00  0.00    +0.149 HD
BRANCH   8  26
ATOM     26  C   UNL     1     -10.975  -6.188  15.707  0.00  0.00    +0.178 C 
BRANCH  26  28
ATOM      6  O   UNL     1     -11.893  -5.012  13.791  0.00  0.00    -0.466 OA
ATOM     28  C   UNL     1     -12.144  -5.846  14.835  0.00  0.00    +0.122 A 
ATOM     30  C   UNL     1     -13.471  -6.204  14.858  0.00  0.00    +0.046 A 
ATOM     33  C   UNL     1     -14.075  -5.549  13.757  0.00  0.00    +0.041 A 
ATOM     34  C   UNL     1     -13.073  -4.837  13.140  0.00  0.00    +0.195 A 
ENDBRANCH  26  28
ENDBRANCH   8  26
ENDBRANCH  23  24
ENDBRANCH  13  23
TORSDOF 9
ENDMDL
MODEL 10
REMARK VINA RESULT:      -6.1      6.023     12.535
REMARK  Name = 11882990
REMARK  14 active torsions:
REMARK  status: ('A' for Active; 'I' for Inactive)
REMARK    1  A    between atoms: O_2  and  C_15
REMARK    2  A    between atoms: O_3  and  C_20
REMARK    3  A    between atoms: N_8  and  C_26
REMARK    4  A    between atoms: C_10  and  C_18
REMARK    5  A    between atoms: C_12  and  C_20
REMARK    6  A    between atoms: C_12  and  C_21
REMARK    7  A    between atoms: C_13  and  C_23
REMARK    8  A    between atoms: C_23  and  C_24
REMARK    9  A    between atoms: C_26  and  C_28
REMARK   10  A    between atoms: C_27  and  C_29
REMARK   11  A    between atoms: C_35  and  C_38
REMARK   12  A    between atoms: C_38  and  C_39
REMARK   13  A    between atoms: C_38  and  C_40
REMARK   14  A    between atoms: C_38  and  C_41
REMARK                            x       y       z     vdW  Elec       q    Type
REMARK                         _______ _______ _______ _____ _____    ______ ____
ROOT
ATOM      1  S   UNL     1      -5.992 -11.113   5.744  0.00  0.00    -0.057 S 
ATOM      5  O   UNL     1      -6.829  -8.697   9.634  0.00  0.00    -0.270 OA
ATOM      7  N   UNL     1      -7.501  -9.307   6.819  0.00  0.00    -0.229 NA
ATOM      9  N   UNL     1      -5.771 -10.248   8.209  0.00  0.00    -0.261 N 
ATOM     10  C   UNL     1      -9.122  -8.787   3.360  0.00  0.00    -0.019 C 
ATOM     11  C   UNL     1      -8.896 -10.305   2.937  0.00  0.00    +0.011 C 
ATOM     12  C   UNL     1      -9.283 -10.704   1.461  0.00  0.00    +0.021 C 
ATOM     13  C   UNL     1      -9.092  -8.709   4.956  0.00  0.00    +0.054 C 
ATOM     14  C   UNL     1     -10.519  -8.320   2.874  0.00  0.00    +0.010 C 
ATOM     15  C   UNL     1     -10.684 -10.120   1.124  0.00  0.00    +0.123 C 
ATOM     16  C   UNL     1      -7.491 -10.814   3.376  0.00  0.00    +0.049 C 
ATOM     17  C   UNL     1     -10.797  -8.626   1.409  0.00  0.00    +0.032 C 
ATOM     18  C   UNL     1      -8.050  -7.834   2.777  0.00  0.00    +0.012 C 
ATOM     19  C   UNL     1      -7.923  -9.479   5.513  0.00  0.00    +0.058 A 
ATOM     21  C   UNL     1      -9.392 -12.251   1.366  0.00  0.00    +0.016 C 
ATOM     22  C   UNL     1      -7.230 -10.431   4.794  0.00  0.00    +0.015 A 
ATOM     25  C   UNL     1      -6.486 -10.111   7.048  0.00  0.00    +0.165 A 
ATOM     27  C   UNL     1      -5.977  -9.549   9.410  0.00  0.00    +0.250 C 
ATOM     45  H   UNL     1      -5.055 -10.965   8.161  0.00  0.00    +0.157 HD
ENDROOT
BRANCH  27  29
ATOM     29  C   UNL     1      -5.069  -9.922  10.526  0.00  0.00    +0.037 A 
ATOM     31  C   UNL     1      -3.737 -10.247  10.265  0.00  0.00    +0.013 A 
ATOM     32  C   UNL     1      -5.548  -9.948  11.837  0.00  0.00    +0.013 A 
ATOM     35  C   UNL     1      -3.365 -10.620  12.622  0.00  0.00    -0.042 A 
ATOM     36  C   UNL     1      -2.886 -10.596  11.312  0.00  0.00    +0.005 A 
ATOM     37  C   UNL     1      -4.697 -10.297  12.884  0.00  0.00    +0.005 A 
BRANCH  35  38
ATOM     38  C   UNL     1      -2.455 -10.995  13.743  0.00  0.00    -0.013 C 
ATOM     39  C   UNL     1      -1.401  -9.876  14.013  0.00  0.00    +0.015 C 
ATOM     40  C   UNL     1      -1.676 -12.308  13.426  0.00  0.00    +0.015 C 
ATOM     41  C   UNL     1      -3.154 -11.248  15.120  0.00  0.00    +0.015 C 
ENDBRANCH  35  38
ENDBRANCH  27  29
BRANCH  15   2
ATOM      2  O   UNL     1     -11.009 -10.352  -0.246  0.00  0.00    -0.391 OA
ATOM     42  H   UNL     1     -10.177 -10.360  -0.750  0.00  0.00    +0.210 HD
ENDBRANCH  15   2
BRANCH  12  20
ATOM     20  C   UNL     1      -8.244 -10.295   0.393  0.00  0.00    +0.165 C 
BRANCH  20   3
ATOM      3  O   UNL     1      -8.204 -11.311  -0.582  0.00  0.00    -0.394 OA
ATOM     43  H   UNL     1      -8.687 -12.075  -0.225  0.00  0.00    +0.209 HD
ENDBRANCH  20   3
ENDBRANCH  12  20
BRANCH  13  23
ATOM     23  C   UNL     1      -9.152  -7.286   5.525  0.00  0.00    +0.106 C 
BRANCH  23  24
ATOM      4  O   UNL     1     -11.400  -7.098   6.401  0.00  0.00    -0.276 OA
ATOM      8  N   UNL     1      -9.596  -7.107   7.866  0.00  0.00    -0.308 N 
ATOM     24  C   UNL     1     -10.192  -7.155   6.615  0.00  0.00    +0.214 C 
ATOM     44  H   UNL     1      -8.585  -7.177   7.938  0.00  0.00    +0.149 HD
BRANCH   8  26
ATOM     26  C   UNL     1     -10.348  -6.980   9.094  0.00  0.00    +0.178 C 
BRANCH  26  28
ATOM      6  O   UNL     1     -11.927  -5.341   9.940  0.00  0.00    -0.466 OA
ATOM     28  C   UNL     1     -10.754  -5.551   9.287  0.00  0.00    +0.122 A 
ATOM     30  C   UNL     1     -10.177  -4.353   8.935  0.00  0.00    +0.046 A 
ATOM     33  C   UNL     1     -11.052  -3.342   9.401  0.00  0.00    +0.041 A 
ATOM     34  C   UNL     1     -12.101  -3.995  10.005  0.00  0.00    +0.195 A 
ENDBRANCH  26  28
ENDBRANCH   8  26
ENDBRANCH  23  24
ENDBRANCH  13  23
TORSDOF 9
ENDMDL
