MODEL 1
REMARK VINA RESULT:      -6.8      0.000      0.000
REMARK  Name = 26743127
REMARK  9 active torsions:
REMARK  status: ('A' for Active; 'I' for Inactive)
REMARK    1  A    between atoms: S_1  and  C_20
REMARK    2  A    between atoms: S_1  and  C_24
REMARK    3  A    between atoms: N_6  and  C_19
REMARK    4  A    between atoms: C_8  and  C_14
REMARK    5  A    between atoms: C_9  and  C_13
REMARK    6  A    between atoms: C_13  and  C_15
REMARK    7  A    between atoms: C_14  and  C_16
REMARK    8  A    between atoms: C_18  and  C_20
REMARK    9  A    between atoms: C_19  and  C_21
REMARK                            x       y       z     vdW  Elec       q    Type
REMARK                         _______ _______ _______ _____ _____    ______ ____
ROOT
ATOM      5  N   UNL     1     -18.771   4.347  27.171  0.00  0.00    -0.316 NA
ATOM      8  C   UNL     1     -16.871   2.366  28.191  0.00  0.00    +0.004 C 
ATOM      9  C   UNL     1     -16.565   3.208  26.928  0.00  0.00    +0.012 C 
ATOM     10  C   UNL     1     -18.384   2.241  28.416  0.00  0.00    +0.019 C 
ATOM     11  C   UNL     1     -17.328   4.543  27.007  0.00  0.00    +0.085 C 
ATOM     12  C   UNL     1     -19.068   3.607  28.396  0.00  0.00    +0.081 C 
ATOM     31  H   UNL     1     -19.148   3.845  26.369  0.00  0.00    +0.122 HD
ENDROOT
BRANCH   9  13
ATOM     13  C   UNL     1     -16.870   2.483  25.611  0.00  0.00    +0.064 C 
BRANCH  13  15
ATOM      4  O   UNL     1     -15.832   3.682  22.379  0.00  0.00    -0.359 OA
ATOM      7  N   UNL     1     -16.606   2.871  23.199  0.00  0.00    -0.083 NA
ATOM     15  C   UNL     1     -16.230   3.177  24.444  0.00  0.00    +0.084 A 
ATOM     17  C   UNL     1     -15.231   4.166  24.472  0.00  0.00    +0.071 A 
ATOM     18  C   UNL     1     -15.017   4.449  23.149  0.00  0.00    +0.148 A 
BRANCH  18  20
ATOM     20  C   UNL     1     -14.124   5.372  22.439  0.00  0.00    +0.151 C 
BRANCH  20   1
ATOM      1  S   UNL     1     -14.966   6.327  21.127  0.00  0.00    -0.117 S 
BRANCH   1  24
ATOM     24  C   UNL     1     -13.600   7.262  20.455  0.00  0.00    +0.008 A 
ATOM     26  C   UNL     1     -13.844   8.347  19.612  0.00  0.00    +0.015 A 
ATOM     27  C   UNL     1     -12.288   6.908  20.774  0.00  0.00    +0.015 A 
ATOM     28  C   UNL     1     -12.777   9.077  19.088  0.00  0.00    +0.001 A 
ATOM     29  C   UNL     1     -11.222   7.637  20.250  0.00  0.00    +0.001 A 
ATOM     30  C   UNL     1     -11.466   8.722  19.406  0.00  0.00    +0.000 A 
ENDBRANCH   1  24
ENDBRANCH  20   1
ENDBRANCH  18  20
ENDBRANCH  13  15
ENDBRANCH   9  13
BRANCH   8  14
ATOM     14  C   UNL     1     -16.207   0.990  28.179  0.00  0.00    +0.099 C 
BRANCH  14  16
ATOM      3  O   UNL     1     -16.052  -0.193  30.283  0.00  0.00    -0.276 OA
ATOM      6  N   UNL     1     -14.435   1.385  29.741  0.00  0.00    -0.311 N 
ATOM     16  C   UNL     1     -15.584   0.642  29.513  0.00  0.00    +0.214 C 
ATOM     32  H   UNL     1     -14.147   2.088  29.068  0.00  0.00    +0.149 HD
BRANCH   6  19
ATOM     19  C   UNL     1     -13.638   1.259  30.939  0.00  0.00    +0.146 C 
BRANCH  19  21
ATOM      2  S   UNL     1     -14.663   1.972  33.420  0.00  0.00    -0.100 S 
ATOM     21  C   UNL     1     -13.925   2.356  31.923  0.00  0.00    +0.007 A 
ATOM     22  C   UNL     1     -13.672   3.705  31.802  0.00  0.00    +0.013 A 
ATOM     23  C   UNL     1     -14.090   4.432  32.953  0.00  0.00    +0.008 A 
ATOM     25  C   UNL     1     -14.646   3.613  33.910  0.00  0.00    +0.045 A 
ENDBRANCH  19  21
ENDBRANCH   6  19
ENDBRANCH  14  16
ENDBRANCH   8  14
TORSDOF 9
ENDMDL
MODEL 2
REMARK VINA RESULT:      -6.8     19.371     20.829
REMARK  Name = 26743127
REMARK  9 active torsions:
REMARK  status: ('A' for Active; 'I' for Inactive)
REMARK    1  A    between atoms: S_1  and  C_20
REMARK    2  A    between atoms: S_1  and  C_24
REMARK    3  A    between atoms: N_6  and  C_19
REMARK    4  A    between atoms: C_8  and  C_14
REMARK    5  A    between atoms: C_9  and  C_13
REMARK    6  A    between atoms: C_13  and  C_15
REMARK    7  A    between atoms: C_14  and  C_16
REMARK    8  A    between atoms: C_18  and  C_20
REMARK    9  A    between atoms: C_19  and  C_21
REMARK                            x       y       z     vdW  Elec       q    Type
REMARK                         _______ _______ _______ _____ _____    ______ ____
ROOT
ATOM      5  N   UNL     1      -4.630 -11.992  19.355  0.00  0.00    -0.316 NA
ATOM      8  C   UNL     1      -6.758 -10.616  17.887  0.00  0.00    +0.004 C 
ATOM      9  C   UNL     1      -5.517 -11.194  17.165  0.00  0.00    +0.012 C 
ATOM     10  C   UNL     1      -6.443 -10.304  19.357  0.00  0.00    +0.019 C 
ATOM     11  C   UNL     1      -4.955 -12.374  17.979  0.00  0.00    +0.085 C 
ATOM     12  C   UNL     1      -5.814 -11.505  20.062  0.00  0.00    +0.081 C 
ATOM     31  H   UNL     1      -3.911 -11.271  19.357  0.00  0.00    +0.122 HD
ENDROOT
BRANCH   9  13
ATOM     13  C   UNL     1      -4.422 -10.157  16.884  0.00  0.00    +0.064 C 
BRANCH  13  15
ATOM      4  O   UNL     1      -1.488 -11.339  15.167  0.00  0.00    -0.359 OA
ATOM      7  N   UNL     1      -2.141 -10.849  16.291  0.00  0.00    -0.083 NA
ATOM     15  C   UNL     1      -3.410 -10.680  15.908  0.00  0.00    +0.084 A 
ATOM     17  C   UNL     1      -3.615 -11.044  14.565  0.00  0.00    +0.071 A 
ATOM     18  C   UNL     1      -2.376 -11.451  14.146  0.00  0.00    +0.148 A 
BRANCH  18  20
ATOM     20  C   UNL     1      -1.850 -11.958  12.873  0.00  0.00    +0.151 C 
BRANCH  20   1
ATOM      1  S   UNL     1      -3.135 -12.707  11.809  0.00  0.00    -0.117 S 
BRANCH   1  24
ATOM     24  C   UNL     1      -3.507 -11.346  10.713  0.00  0.00    +0.008 A 
ATOM     26  C   UNL     1      -4.327 -11.547   9.603  0.00  0.00    +0.015 A 
ATOM     27  C   UNL     1      -2.977 -10.080  10.968  0.00  0.00    +0.015 A 
ATOM     28  C   UNL     1      -4.617 -10.484   8.747  0.00  0.00    +0.001 A 
ATOM     29  C   UNL     1      -3.267  -9.018  10.114  0.00  0.00    +0.001 A 
ATOM     30  C   UNL     1      -4.087  -9.220   9.002  0.00  0.00    +0.000 A 
ENDBRANCH   1  24
ENDBRANCH  20   1
ENDBRANCH  18  20
ENDBRANCH  13  15
ENDBRANCH   9  13
BRANCH   8  14
ATOM     14  C   UNL     1      -7.354  -9.395  17.187  0.00  0.00    +0.099 C 
BRANCH  14  16
ATOM      3  O   UNL     1      -9.327  -9.954  15.904  0.00  0.00    -0.276 OA
ATOM      6  N   UNL     1      -9.566  -9.142  18.068  0.00  0.00    -0.311 N 
ATOM     16  C   UNL     1      -8.842  -9.539  16.953  0.00  0.00    +0.214 C 
ATOM     32  H   UNL     1      -9.082  -8.768  18.878  0.00  0.00    +0.149 HD
BRANCH   6  19
ATOM     19  C   UNL     1     -11.009  -9.171  18.124  0.00  0.00    +0.146 C 
BRANCH  19  21
ATOM      2  S   UNL     1     -12.977  -9.890  19.948  0.00  0.00    -0.100 S 
ATOM     21  C   UNL     1     -11.512 -10.184  19.110  0.00  0.00    +0.007 A 
ATOM     22  C   UNL     1     -10.945 -11.388  19.469  0.00  0.00    +0.013 A 
ATOM     23  C   UNL     1     -11.723 -12.076  20.444  0.00  0.00    +0.008 A 
ATOM     25  C   UNL     1     -12.855 -11.373  20.793  0.00  0.00    +0.045 A 
ENDBRANCH  19  21
ENDBRANCH   6  19
ENDBRANCH  14  16
ENDBRANCH   8  14
TORSDOF 9
ENDMDL
MODEL 3
REMARK VINA RESULT:      -6.7     19.070     20.888
REMARK  Name = 26743127
REMARK  9 active torsions:
REMARK  status: ('A' for Active; 'I' for Inactive)
REMARK    1  A    between atoms: S_1  and  C_20
REMARK    2  A    between atoms: S_1  and  C_24
REMARK    3  A    between atoms: N_6  and  C_19
REMARK    4  A    between atoms: C_8  and  C_14
REMARK    5  A    between atoms: C_9  and  C_13
REMARK    6  A    between atoms: C_13  and  C_15
REMARK    7  A    between atoms: C_14  and  C_16
REMARK    8  A    between atoms: C_18  and  C_20
REMARK    9  A    between atoms: C_19  and  C_21
REMARK                            x       y       z     vdW  Elec       q    Type
REMARK                         _______ _______ _______ _____ _____    ______ ____
ROOT
ATOM      5  N   UNL     1      -4.724 -11.995  19.394  0.00  0.00    -0.316 NA
ATOM      8  C   UNL     1      -6.831 -10.624  17.891  0.00  0.00    +0.004 C 
ATOM      9  C   UNL     1      -5.560 -11.168  17.194  0.00  0.00    +0.012 C 
ATOM     10  C   UNL     1      -6.565 -10.336  19.375  0.00  0.00    +0.019 C 
ATOM     11  C   UNL     1      -5.003 -12.355  18.001  0.00  0.00    +0.085 C 
ATOM     12  C   UNL     1      -5.936 -11.541  20.074  0.00  0.00    +0.081 C 
ATOM     31  H   UNL     1      -4.018 -11.263  19.430  0.00  0.00    +0.122 HD
ENDROOT
BRANCH   9  13
ATOM     13  C   UNL     1      -4.475 -10.108  16.966  0.00  0.00    +0.064 C 
BRANCH  13  15
ATOM      4  O   UNL     1      -1.577 -11.184  15.122  0.00  0.00    -0.359 OA
ATOM      7  N   UNL     1      -2.214 -10.791  16.293  0.00  0.00    -0.083 NA
ATOM     15  C   UNL     1      -3.480 -10.556  15.936  0.00  0.00    +0.084 A 
ATOM     17  C   UNL     1      -3.700 -10.782  14.566  0.00  0.00    +0.071 A 
ATOM     18  C   UNL     1      -2.472 -11.175  14.100  0.00  0.00    +0.148 A 
BRANCH  18  20
ATOM     20  C   UNL     1      -1.965 -11.566  12.780  0.00  0.00    +0.151 C 
BRANCH  20   1
ATOM      1  S   UNL     1      -1.641 -10.142  11.680  0.00  0.00    -0.117 S 
BRANCH   1  24
ATOM     24  C   UNL     1      -3.070 -10.205  10.611  0.00  0.00    +0.008 A 
ATOM     26  C   UNL     1      -3.866 -11.351  10.575  0.00  0.00    +0.015 A 
ATOM     27  C   UNL     1      -3.391  -9.108   9.810  0.00  0.00    +0.015 A 
ATOM     28  C   UNL     1      -4.982 -11.400   9.739  0.00  0.00    +0.001 A 
ATOM     29  C   UNL     1      -4.507  -9.157   8.975  0.00  0.00    +0.001 A 
ATOM     30  C   UNL     1      -5.302 -10.304   8.939  0.00  0.00    +0.000 A 
ENDBRANCH   1  24
ENDBRANCH  20   1
ENDBRANCH  18  20
ENDBRANCH  13  15
ENDBRANCH   9  13
BRANCH   8  14
ATOM     14  C   UNL     1      -7.426  -9.400  17.197  0.00  0.00    +0.099 C 
BRANCH  14  16
ATOM      3  O   UNL     1      -9.372 -10.378  16.144  0.00  0.00    -0.276 OA
ATOM      6  N   UNL     1      -9.651  -8.659  17.681  0.00  0.00    -0.311 N 
ATOM     16  C   UNL     1      -8.908  -9.556  16.930  0.00  0.00    +0.214 C 
ATOM     32  H   UNL     1      -9.179  -7.983  18.273  0.00  0.00    +0.149 HD
BRANCH   6  19
ATOM     19  C   UNL     1     -11.093  -8.585  17.624  0.00  0.00    +0.146 C 
BRANCH  19  21
ATOM      2  S   UNL     1     -11.184  -6.153  16.284  0.00  0.00    -0.100 S 
ATOM     21  C   UNL     1     -11.568  -7.817  16.425  0.00  0.00    +0.007 A 
ATOM     22  C   UNL     1     -12.309  -8.269  15.355  0.00  0.00    +0.013 A 
ATOM     23  C   UNL     1     -12.566  -7.236  14.408  0.00  0.00    +0.008 A 
ATOM     25  C   UNL     1     -12.011  -6.034  14.789  0.00  0.00    +0.045 A 
ENDBRANCH  19  21
ENDBRANCH   6  19
ENDBRANCH  14  16
ENDBRANCH   8  14
TORSDOF 9
ENDMDL
MODEL 4
REMARK VINA RESULT:      -6.5      3.572      9.504
REMARK  Name = 26743127
REMARK  9 active torsions:
REMARK  status: ('A' for Active; 'I' for Inactive)
REMARK    1  A    between atoms: S_1  and  C_20
REMARK    2  A    between atoms: S_1  and  C_24
REMARK    3  A    between atoms: N_6  and  C_19
REMARK    4  A    between atoms: C_8  and  C_14
REMARK    5  A    between atoms: C_9  and  C_13
REMARK    6  A    between atoms: C_13  and  C_15
REMARK    7  A    between atoms: C_14  and  C_16
REMARK    8  A    between atoms: C_18  and  C_20
REMARK    9  A    between atoms: C_19  and  C_21
REMARK                            x       y       z     vdW  Elec       q    Type
REMARK                         _______ _______ _______ _____ _____    ______ ____
ROOT
ATOM      5  N   UNL     1     -14.210   0.811  30.825  0.00  0.00    -0.316 NA
ATOM      8  C   UNL     1     -15.380   2.603  28.827  0.00  0.00    +0.004 C 
ATOM      9  C   UNL     1     -14.813   3.139  30.164  0.00  0.00    +0.012 C 
ATOM     10  C   UNL     1     -15.806   1.134  28.959  0.00  0.00    +0.019 C 
ATOM     11  C   UNL     1     -13.719   2.183  30.675  0.00  0.00    +0.085 C 
ATOM     12  C   UNL     1     -14.687   0.278  29.550  0.00  0.00    +0.081 C 
ATOM     31  H   UNL     1     -14.962   0.782  31.511  0.00  0.00    +0.122 HD
ENDROOT
BRANCH   9  13
ATOM     13  C   UNL     1     -15.880   3.371  31.242  0.00  0.00    +0.064 C 
BRANCH  13  15
ATOM      4  O   UNL     1     -14.672   4.345  34.490  0.00  0.00    -0.359 OA
ATOM      7  N   UNL     1     -15.252   3.434  33.617  0.00  0.00    -0.083 NA
ATOM     15  C   UNL     1     -15.304   4.066  32.441  0.00  0.00    +0.084 A 
ATOM     17  C   UNL     1     -14.775   5.368  32.511  0.00  0.00    +0.071 A 
ATOM     18  C   UNL     1     -14.392   5.492  33.820  0.00  0.00    +0.148 A 
BRANCH  18  20
ATOM     20  C   UNL     1     -13.771   6.571  34.598  0.00  0.00    +0.151 C 
BRANCH  20   1
ATOM      1  S   UNL     1     -14.145   8.238  33.947  0.00  0.00    -0.117 S 
BRANCH   1  24
ATOM     24  C   UNL     1     -12.505   8.825  33.552  0.00  0.00    +0.008 A 
ATOM     26  C   UNL     1     -11.740   9.471  34.525  0.00  0.00    +0.015 A 
ATOM     27  C   UNL     1     -11.987   8.640  32.269  0.00  0.00    +0.015 A 
ATOM     28  C   UNL     1     -10.460   9.929  34.215  0.00  0.00    +0.001 A 
ATOM     29  C   UNL     1     -10.708   9.098  31.960  0.00  0.00    +0.001 A 
ATOM     30  C   UNL     1      -9.944   9.744  32.933  0.00  0.00    +0.000 A 
ENDBRANCH   1  24
ENDBRANCH  20   1
ENDBRANCH  18  20
ENDBRANCH  13  15
ENDBRANCH   9  13
BRANCH   8  14
ATOM     14  C   UNL     1     -16.521   3.453  28.268  0.00  0.00    +0.099 C 
BRANCH  14  16
ATOM      3  O   UNL     1     -17.817   2.689  26.373  0.00  0.00    -0.276 OA
ATOM      6  N   UNL     1     -15.685   3.546  26.026  0.00  0.00    -0.311 N 
ATOM     16  C   UNL     1     -16.774   3.178  26.802  0.00  0.00    +0.214 C 
ATOM     32  H   UNL     1     -14.845   3.901  26.471  0.00  0.00    +0.149 HD
BRANCH   6  19
ATOM     19  C   UNL     1     -15.651   3.393  24.589  0.00  0.00    +0.146 C 
BRANCH  19  21
ATOM      2  S   UNL     1     -16.697   5.875  23.909  0.00  0.00    -0.100 S 
ATOM     21  C   UNL     1     -15.446   4.706  23.890  0.00  0.00    +0.007 A 
ATOM     22  C   UNL     1     -14.340   5.143  23.194  0.00  0.00    +0.013 A 
ATOM     23  C   UNL     1     -14.522   6.454  22.669  0.00  0.00    +0.008 A 
ATOM     25  C   UNL     1     -15.760   6.970  22.984  0.00  0.00    +0.045 A 
ENDBRANCH  19  21
ENDBRANCH   6  19
ENDBRANCH  14  16
ENDBRANCH   8  14
TORSDOF 9
ENDMDL
MODEL 5
REMARK VINA RESULT:      -6.4     17.602     20.044
REMARK  Name = 26743127
REMARK  9 active torsions:
REMARK  status: ('A' for Active; 'I' for Inactive)
REMARK    1  A    between atoms: S_1  and  C_20
REMARK    2  A    between atoms: S_1  and  C_24
REMARK    3  A    between atoms: N_6  and  C_19
REMARK    4  A    between atoms: C_8  and  C_14
REMARK    5  A    between atoms: C_9  and  C_13
REMARK    6  A    between atoms: C_13  and  C_15
REMARK    7  A    between atoms: C_14  and  C_16
REMARK    8  A    between atoms: C_18  and  C_20
REMARK    9  A    between atoms: C_19  and  C_21
REMARK                            x       y       z     vdW  Elec       q    Type
REMARK                         _______ _______ _______ _____ _____    ______ ____
ROOT
ATOM      5  N   UNL     1     -10.173 -11.476  17.365  0.00  0.00    -0.316 NA
ATOM      8  C   UNL     1     -10.250  -8.918  15.942  0.00  0.00    +0.004 C 
ATOM      9  C   UNL     1      -8.942  -9.737  16.068  0.00  0.00    +0.012 C 
ATOM     10  C   UNL     1     -11.219  -9.248  17.086  0.00  0.00    +0.019 C 
ATOM     11  C   UNL     1      -9.287 -11.229  16.224  0.00  0.00    +0.085 C 
ATOM     12  C   UNL     1     -11.437 -10.754  17.218  0.00  0.00    +0.081 C 
ATOM     31  H   UNL     1      -9.717 -11.193  18.229  0.00  0.00    +0.122 HD
ENDROOT
BRANCH   9  13
ATOM     13  C   UNL     1      -8.024  -9.268  17.204  0.00  0.00    +0.064 C 
BRANCH  13  15
ATOM      4  O   UNL     1      -4.764 -10.752  17.561  0.00  0.00    -0.359 OA
ATOM      7  N   UNL     1      -6.012 -10.393  18.054  0.00  0.00    -0.083 NA
ATOM     15  C   UNL     1      -6.629  -9.793  17.032  0.00  0.00    +0.084 A 
ATOM     17  C   UNL     1      -5.827  -9.747  15.877  0.00  0.00    +0.071 A 
ATOM     18  C   UNL     1      -4.666 -10.363  16.264  0.00  0.00    +0.148 A 
BRANCH  18  20
ATOM     20  C   UNL     1      -3.402 -10.666  15.582  0.00  0.00    +0.151 C 
BRANCH  20   1
ATOM      1  S   UNL     1      -3.581 -11.901  14.246  0.00  0.00    -0.117 S 
BRANCH   1  24
ATOM     24  C   UNL     1      -3.380 -10.871  12.800  0.00  0.00    +0.008 A 
ATOM     26  C   UNL     1      -2.101 -10.564  12.334  0.00  0.00    +0.015 A 
ATOM     27  C   UNL     1      -4.502 -10.373  12.137  0.00  0.00    +0.015 A 
ATOM     28  C   UNL     1      -1.945  -9.759  11.205  0.00  0.00    +0.001 A 
ATOM     29  C   UNL     1      -4.346  -9.569  11.008  0.00  0.00    +0.001 A 
ATOM     30  C   UNL     1      -3.066  -9.262  10.543  0.00  0.00    +0.000 A 
ENDBRANCH   1  24
ENDBRANCH  20   1
ENDBRANCH  18  20
ENDBRANCH  13  15
ENDBRANCH   9  13
BRANCH   8  14
ATOM     14  C   UNL     1     -10.015  -7.411  15.844  0.00  0.00    +0.099 C 
BRANCH  14  16
ATOM      3  O   UNL     1     -11.769  -5.767  16.118  0.00  0.00    -0.276 OA
ATOM      6  N   UNL     1     -11.757  -7.117  14.227  0.00  0.00    -0.311 N 
ATOM     16  C   UNL     1     -11.267  -6.661  15.442  0.00  0.00    +0.214 C 
ATOM     32  H   UNL     1     -11.302  -7.894  13.759  0.00  0.00    +0.149 HD
BRANCH   6  19
ATOM     19  C   UNL     1     -12.945  -6.580  13.604  0.00  0.00    +0.146 C 
BRANCH  19  21
ATOM      2  S   UNL     1     -12.317  -5.774  11.020  0.00  0.00    -0.100 S 
ATOM     21  C   UNL     1     -12.626  -5.446  12.673  0.00  0.00    +0.007 A 
ATOM     22  C   UNL     1     -12.538  -4.101  12.958  0.00  0.00    +0.013 A 
ATOM     23  C   UNL     1     -12.213  -3.330  11.805  0.00  0.00    +0.008 A 
ATOM     25  C   UNL     1     -12.064  -4.115  10.682  0.00  0.00    +0.045 A 
ENDBRANCH  19  21
ENDBRANCH   6  19
ENDBRANCH  14  16
ENDBRANCH   8  14
TORSDOF 9
ENDMDL
MODEL 6
REMARK VINA RESULT:      -6.4      2.153      3.218
REMARK  Name = 26743127
REMARK  9 active torsions:
REMARK  status: ('A' for Active; 'I' for Inactive)
REMARK    1  A    between atoms: S_1  and  C_20
REMARK    2  A    between atoms: S_1  and  C_24
REMARK    3  A    between atoms: N_6  and  C_19
REMARK    4  A    between atoms: C_8  and  C_14
REMARK    5  A    between atoms: C_9  and  C_13
REMARK    6  A    between atoms: C_13  and  C_15
REMARK    7  A    between atoms: C_14  and  C_16
REMARK    8  A    between atoms: C_18  and  C_20
REMARK    9  A    between atoms: C_19  and  C_21
REMARK                            x       y       z     vdW  Elec       q    Type
REMARK                         _______ _______ _______ _____ _____    ______ ____
ROOT
ATOM      5  N   UNL     1     -17.512   0.899  23.802  0.00  0.00    -0.316 NA
ATOM      8  C   UNL     1     -17.242   2.989  25.836  0.00  0.00    +0.004 C 
ATOM      9  C   UNL     1     -17.384   3.333  24.333  0.00  0.00    +0.012 C 
ATOM     10  C   UNL     1     -16.660   1.581  26.026  0.00  0.00    +0.019 C 
ATOM     11  C   UNL     1     -18.152   2.204  23.620  0.00  0.00    +0.085 C 
ATOM     12  C   UNL     1     -17.435   0.541  25.218  0.00  0.00    +0.081 C 
ATOM     31  H   UNL     1     -16.577   0.910  23.401  0.00  0.00    +0.122 HD
ENDROOT
BRANCH   9  13
ATOM     13  C   UNL     1     -16.048   3.609  23.631  0.00  0.00    +0.064 C 
BRANCH  13  15
ATOM      4  O   UNL     1     -16.324   5.823  20.806  0.00  0.00    -0.359 OA
ATOM      7  N   UNL     1     -16.235   4.558  21.373  0.00  0.00    -0.083 NA
ATOM     15  C   UNL     1     -16.156   4.772  22.689  0.00  0.00    +0.084 A 
ATOM     17  C   UNL     1     -16.190   6.141  23.010  0.00  0.00    +0.071 A 
ATOM     18  C   UNL     1     -16.297   6.758  21.791  0.00  0.00    +0.148 A 
BRANCH  18  20
ATOM     20  C   UNL     1     -16.382   8.160  21.367  0.00  0.00    +0.151 C 
BRANCH  20   1
ATOM      1  S   UNL     1     -14.902   9.139  21.809  0.00  0.00    -0.117 S 
BRANCH   1  24
ATOM     24  C   UNL     1     -13.682   8.423  20.717  0.00  0.00    +0.008 A 
ATOM     26  C   UNL     1     -12.655   7.635  21.238  0.00  0.00    +0.015 A 
ATOM     27  C   UNL     1     -13.755   8.654  19.343  0.00  0.00    +0.015 A 
ATOM     28  C   UNL     1     -11.703   7.077  20.384  0.00  0.00    +0.001 A 
ATOM     29  C   UNL     1     -12.803   8.096  18.490  0.00  0.00    +0.001 A 
ATOM     30  C   UNL     1     -11.776   7.307  19.012  0.00  0.00    +0.000 A 
ENDBRANCH   1  24
ENDBRANCH  20   1
ENDBRANCH  18  20
ENDBRANCH  13  15
ENDBRANCH   9  13
BRANCH   8  14
ATOM     14  C   UNL     1     -16.436   4.022  26.621  0.00  0.00    +0.099 C 
BRANCH  14  16
ATOM      3  O   UNL     1     -17.410   3.567  28.789  0.00  0.00    -0.276 OA
ATOM      6  N   UNL     1     -15.097   3.631  28.568  0.00  0.00    -0.311 N 
ATOM     16  C   UNL     1     -16.401   3.716  28.103  0.00  0.00    +0.214 C 
ATOM     32  H   UNL     1     -14.324   3.814  27.937  0.00  0.00    +0.149 HD
BRANCH   6  19
ATOM     19  C   UNL     1     -14.767   3.350  29.946  0.00  0.00    +0.146 C 
BRANCH  19  21
ATOM      2  S   UNL     1     -14.951   1.352  31.867  0.00  0.00    -0.100 S 
ATOM     21  C   UNL     1     -14.803   1.880  30.244  0.00  0.00    +0.007 A 
ATOM     22  C   UNL     1     -14.734   0.824  29.361  0.00  0.00    +0.013 A 
ATOM     23  C   UNL     1     -14.801  -0.434  30.027  0.00  0.00    +0.008 A 
ATOM     25  C   UNL     1     -14.920  -0.293  31.392  0.00  0.00    +0.045 A 
ENDBRANCH  19  21
ENDBRANCH   6  19
ENDBRANCH  14  16
ENDBRANCH   8  14
TORSDOF 9
ENDMDL
MODEL 7
REMARK VINA RESULT:      -6.3     18.967     20.578
REMARK  Name = 26743127
REMARK  9 active torsions:
REMARK  status: ('A' for Active; 'I' for Inactive)
REMARK    1  A    between atoms: S_1  and  C_20
REMARK    2  A    between atoms: S_1  and  C_24
REMARK    3  A    between atoms: N_6  and  C_19
REMARK    4  A    between atoms: C_8  and  C_14
REMARK    5  A    between atoms: C_9  and  C_13
REMARK    6  A    between atoms: C_13  and  C_15
REMARK    7  A    between atoms: C_14  and  C_16
REMARK    8  A    between atoms: C_18  and  C_20
REMARK    9  A    between atoms: C_19  and  C_21
REMARK                            x       y       z     vdW  Elec       q    Type
REMARK                         _______ _______ _______ _____ _____    ______ ____
ROOT
ATOM      5  N   UNL     1      -7.849 -15.020  17.835  0.00  0.00    -0.316 NA
ATOM      8  C   UNL     1      -7.912 -12.098  18.031  0.00  0.00    +0.004 C 
ATOM      9  C   UNL     1      -6.937 -12.827  17.074  0.00  0.00    +0.012 C 
ATOM     10  C   UNL     1      -8.316 -13.006  19.201  0.00  0.00    +0.019 C 
ATOM     11  C   UNL     1      -7.536 -14.187  16.671  0.00  0.00    +0.085 C 
ATOM     12  C   UNL     1      -8.820 -14.362  18.709  0.00  0.00    +0.081 C 
ATOM     31  H   UNL     1      -7.000 -15.221  18.359  0.00  0.00    +0.122 HD
ENDROOT
BRANCH   9  13
ATOM     13  C   UNL     1      -5.523 -13.002  17.645  0.00  0.00    +0.064 C 
BRANCH  13  15
ATOM      4  O   UNL     1      -2.970 -10.679  16.624  0.00  0.00    -0.359 OA
ATOM      7  N   UNL     1      -3.762 -11.291  17.588  0.00  0.00    -0.083 NA
ATOM     15  C   UNL     1      -4.528 -12.151  16.912  0.00  0.00    +0.084 A 
ATOM     17  C   UNL     1      -4.267 -12.126  15.530  0.00  0.00    +0.071 A 
ATOM     18  C   UNL     1      -3.279 -11.185  15.403  0.00  0.00    +0.148 A 
BRANCH  18  20
ATOM     20  C   UNL     1      -2.531 -10.646  14.261  0.00  0.00    +0.151 C 
BRANCH  20   1
ATOM      1  S   UNL     1      -2.807 -11.578  12.713  0.00  0.00    -0.117 S 
BRANCH   1  24
ATOM     24  C   UNL     1      -3.703 -10.374  11.744  0.00  0.00    +0.008 A 
ATOM     26  C   UNL     1      -3.129  -9.840  10.589  0.00  0.00    +0.015 A 
ATOM     27  C   UNL     1      -4.976  -9.966  12.142  0.00  0.00    +0.015 A 
ATOM     28  C   UNL     1      -3.829  -8.899   9.834  0.00  0.00    +0.001 A 
ATOM     29  C   UNL     1      -5.676  -9.026  11.387  0.00  0.00    +0.001 A 
ATOM     30  C   UNL     1      -5.102  -8.492  10.232  0.00  0.00    +0.000 A 
ENDBRANCH   1  24
ENDBRANCH  20   1
ENDBRANCH  18  20
ENDBRANCH  13  15
ENDBRANCH   9  13
BRANCH   8  14
ATOM     14  C   UNL     1      -7.377 -10.760  18.539  0.00  0.00    +0.099 C 
BRANCH  14  16
ATOM      3  O   UNL     1      -7.035  -9.203  16.720  0.00  0.00    -0.276 OA
ATOM      6  N   UNL     1      -8.995  -9.091  17.963  0.00  0.00    -0.311 N 
ATOM     16  C   UNL     1      -7.753  -9.610  17.630  0.00  0.00    +0.214 C 
ATOM     32  H   UNL     1      -9.500  -9.462  18.762  0.00  0.00    +0.149 HD
BRANCH   6  19
ATOM     19  C   UNL     1      -9.602  -7.984  17.261  0.00  0.00    +0.146 C 
BRANCH  19  21
ATOM      2  S   UNL     1     -11.920  -9.316  18.018  0.00  0.00    -0.100 S 
ATOM     21  C   UNL     1     -11.070  -8.201  17.033  0.00  0.00    +0.007 A 
ATOM     22  C   UNL     1     -11.890  -7.608  16.098  0.00  0.00    +0.013 A 
ATOM     23  C   UNL     1     -13.233  -8.074  16.192  0.00  0.00    +0.008 A 
ATOM     25  C   UNL     1     -13.389  -9.006  17.195  0.00  0.00    +0.045 A 
ENDBRANCH  19  21
ENDBRANCH   6  19
ENDBRANCH  14  16
ENDBRANCH   8  14
TORSDOF 9
ENDMDL
MODEL 8
REMARK VINA RESULT:      -6.2     20.193     22.029
REMARK  Name = 26743127
REMARK  9 active torsions:
REMARK  status: ('A' for Active; 'I' for Inactive)
REMARK    1  A    between atoms: S_1  and  C_20
REMARK    2  A    between atoms: S_1  and  C_24
REMARK    3  A    between atoms: N_6  and  C_19
REMARK    4  A    between atoms: C_8  and  C_14
REMARK    5  A    between atoms: C_9  and  C_13
REMARK    6  A    between atoms: C_13  and  C_15
REMARK    7  A    between atoms: C_14  and  C_16
REMARK    8  A    between atoms: C_18  and  C_20
REMARK    9  A    between atoms: C_19  and  C_21
REMARK                            x       y       z     vdW  Elec       q    Type
REMARK                         _______ _______ _______ _____ _____    ______ ____
ROOT
ATOM      5  N   UNL     1      -4.193 -12.303  18.789  0.00  0.00    -0.316 NA
ATOM      8  C   UNL     1      -6.456 -10.774  17.732  0.00  0.00    +0.004 C 
ATOM      9  C   UNL     1      -5.357 -11.344  16.802  0.00  0.00    +0.012 C 
ATOM     10  C   UNL     1      -5.918 -10.564  19.155  0.00  0.00    +0.019 C 
ATOM     11  C   UNL     1      -4.730 -12.589  17.456  0.00  0.00    +0.085 C 
ATOM     12  C   UNL     1      -5.241 -11.825  19.689  0.00  0.00    +0.081 C 
ATOM     31  H   UNL     1      -3.453 -11.607  18.725  0.00  0.00    +0.122 HD
ENDROOT
BRANCH   9  13
ATOM     13  C   UNL     1      -4.275 -10.325  16.423  0.00  0.00    +0.064 C 
BRANCH  13  15
ATOM      4  O   UNL     1      -1.720 -11.298  14.081  0.00  0.00    -0.359 OA
ATOM      7  N   UNL     1      -2.138 -10.821  15.317  0.00  0.00    -0.083 NA
ATOM     15  C   UNL     1      -3.472 -10.793  15.245  0.00  0.00    +0.084 A 
ATOM     17  C   UNL     1      -3.949 -11.236  13.998  0.00  0.00    +0.071 A 
ATOM     18  C   UNL     1      -2.807 -11.542  13.304  0.00  0.00    +0.148 A 
BRANCH  18  20
ATOM     20  C   UNL     1      -2.547 -12.054  11.954  0.00  0.00    +0.151 C 
BRANCH  20   1
ATOM      1  S   UNL     1      -3.435 -13.609  11.588  0.00  0.00    -0.117 S 
BRANCH   1  24
ATOM     24  C   UNL     1      -2.826 -14.665  12.895  0.00  0.00    +0.008 A 
ATOM     26  C   UNL     1      -1.513 -15.135  12.858  0.00  0.00    +0.015 A 
ATOM     27  C   UNL     1      -3.664 -15.019  13.953  0.00  0.00    +0.015 A 
ATOM     28  C   UNL     1      -1.039 -15.960  13.879  0.00  0.00    +0.001 A 
ATOM     29  C   UNL     1      -3.190 -15.843  14.973  0.00  0.00    +0.001 A 
ATOM     30  C   UNL     1      -1.876 -16.314  14.935  0.00  0.00    +0.000 A 
ENDBRANCH   1  24
ENDBRANCH  20   1
ENDBRANCH  18  20
ENDBRANCH  13  15
ENDBRANCH   9  13
BRANCH   8  14
ATOM     14  C   UNL     1      -7.098  -9.494  17.199  0.00  0.00    +0.099 C 
BRANCH  14  16
ATOM      3  O   UNL     1      -9.195 -10.592  16.698  0.00  0.00    -0.276 OA
ATOM      6  N   UNL     1      -9.215  -8.443  17.582  0.00  0.00    -0.311 N 
ATOM     16  C   UNL     1      -8.606  -9.600  17.120  0.00  0.00    +0.214 C 
ATOM     32  H   UNL     1      -8.647  -7.653  17.870  0.00  0.00    +0.149 HD
BRANCH   6  19
ATOM     19  C   UNL     1     -10.649  -8.266  17.619  0.00  0.00    +0.146 C 
BRANCH  19  21
ATOM      2  S   UNL     1     -11.601  -8.346  15.010  0.00  0.00    -0.100 S 
ATOM     21  C   UNL     1     -11.151  -7.500  16.430  0.00  0.00    +0.007 A 
ATOM     22  C   UNL     1     -11.317  -6.138  16.294  0.00  0.00    +0.013 A 
ATOM     23  C   UNL     1     -11.819  -5.786  15.009  0.00  0.00    +0.008 A 
ATOM     25  C   UNL     1     -12.019  -6.891  14.210  0.00  0.00    +0.045 A 
ENDBRANCH  19  21
ENDBRANCH   6  19
ENDBRANCH  14  16
ENDBRANCH   8  14
TORSDOF 9
ENDMDL
MODEL 9
REMARK VINA RESULT:      -6.2     32.515     37.775
REMARK  Name = 26743127
REMARK  9 active torsions:
REMARK  status: ('A' for Active; 'I' for Inactive)
REMARK    1  A    between atoms: S_1  and  C_20
REMARK    2  A    between atoms: S_1  and  C_24
REMARK    3  A    between atoms: N_6  and  C_19
REMARK    4  A    between atoms: C_8  and  C_14
REMARK    5  A    between atoms: C_9  and  C_13
REMARK    6  A    between atoms: C_13  and  C_15
REMARK    7  A    between atoms: C_14  and  C_16
REMARK    8  A    between atoms: C_18  and  C_20
REMARK    9  A    between atoms: C_19  and  C_21
REMARK                            x       y       z     vdW  Elec       q    Type
REMARK                         _______ _______ _______ _____ _____    ______ ____
ROOT
ATOM      5  N   UNL     1       9.601   6.948   6.953  0.00  0.00    -0.316 NA
ATOM      8  C   UNL     1      10.276   5.945   4.286  0.00  0.00    +0.004 C 
ATOM      9  C   UNL     1      11.332   6.634   5.185  0.00  0.00    +0.012 C 
ATOM     10  C   UNL     1       8.857   6.402   4.654  0.00  0.00    +0.019 C 
ATOM     11  C   UNL     1      10.946   6.445   6.663  0.00  0.00    +0.085 C 
ATOM     12  C   UNL     1       8.593   6.254   6.152  0.00  0.00    +0.081 C 
ATOM     31  H   UNL     1       9.555   7.948   6.768  0.00  0.00    +0.122 HD
ENDROOT
BRANCH   9  13
ATOM     13  C   UNL     1      11.546   8.119   4.864  0.00  0.00    +0.064 C 
BRANCH  13  15
ATOM      4  O   UNL     1      14.782   9.638   4.440  0.00  0.00    -0.359 OA
ATOM      7  N   UNL     1      13.405   9.705   4.618  0.00  0.00    -0.083 NA
ATOM     15  C   UNL     1      13.000   8.433   4.673  0.00  0.00    +0.084 A 
ATOM     17  C   UNL     1      14.067   7.527   4.536  0.00  0.00    +0.071 A 
ATOM     18  C   UNL     1      15.164   8.336   4.393  0.00  0.00    +0.148 A 
BRANCH  18  20
ATOM     20  C   UNL     1      16.597   8.079   4.207  0.00  0.00    +0.151 C 
BRANCH  20   1
ATOM      1  S   UNL     1      17.664   9.245   5.127  0.00  0.00    -0.117 S 
BRANCH   1  24
ATOM     24  C   UNL     1      19.219   8.366   5.116  0.00  0.00    +0.008 A 
ATOM     26  C   UNL     1      19.990   8.296   6.277  0.00  0.00    +0.015 A 
ATOM     27  C   UNL     1      19.663   7.749   3.946  0.00  0.00    +0.015 A 
ATOM     28  C   UNL     1      21.204   7.609   6.267  0.00  0.00    +0.001 A 
ATOM     29  C   UNL     1      20.877   7.062   3.937  0.00  0.00    +0.001 A 
ATOM     30  C   UNL     1      21.648   6.993   5.098  0.00  0.00    +0.000 A 
ENDBRANCH   1  24
ENDBRANCH  20   1
ENDBRANCH  18  20
ENDBRANCH  13  15
ENDBRANCH   9  13
BRANCH   8  14
ATOM     14  C   UNL     1      10.538   6.131   2.792  0.00  0.00    +0.099 C 
BRANCH  14  16
ATOM      3  O   UNL     1      10.141   4.169   1.434  0.00  0.00    -0.276 OA
ATOM      6  N   UNL     1      12.246   4.510   2.356  0.00  0.00    -0.311 N 
ATOM     16  C   UNL     1      10.920   4.835   2.111  0.00  0.00    +0.214 C 
ATOM     32  H   UNL     1      12.805   5.097   2.967  0.00  0.00    +0.149 HD
BRANCH   6  19
ATOM     19  C   UNL     1      12.878   3.322   1.830  0.00  0.00    +0.146 C 
BRANCH  19  21
ATOM      2  S   UNL     1      13.570   3.929  -0.790  0.00  0.00    -0.100 S 
ATOM     21  C   UNL     1      13.968   3.652   0.853  0.00  0.00    +0.007 A 
ATOM     22  C   UNL     1      15.320   3.776   1.085  0.00  0.00    +0.013 A 
ATOM     23  C   UNL     1      16.039   4.102  -0.102  0.00  0.00    +0.008 A 
ATOM     25  C   UNL     1      15.209   4.215  -1.195  0.00  0.00    +0.045 A 
ENDBRANCH  19  21
ENDBRANCH   6  19
ENDBRANCH  14  16
ENDBRANCH   8  14
TORSDOF 9
ENDMDL
MODEL 10
REMARK VINA RESULT:      -6.1     22.711     24.423
REMARK  Name = 26743127
REMARK  9 active torsions:
REMARK  status: ('A' for Active; 'I' for Inactive)
REMARK    1  A    between atoms: S_1  and  C_20
REMARK    2  A    between atoms: S_1  and  C_24
REMARK    3  A    between atoms: N_6  and  C_19
REMARK    4  A    between atoms: C_8  and  C_14
REMARK    5  A    between atoms: C_9  and  C_13
REMARK    6  A    between atoms: C_13  and  C_15
REMARK    7  A    between atoms: C_14  and  C_16
REMARK    8  A    between atoms: C_18  and  C_20
REMARK    9  A    between atoms: C_19  and  C_21
REMARK                            x       y       z     vdW  Elec       q    Type
REMARK                         _______ _______ _______ _____ _____    ______ ____
ROOT
ATOM      5  N   UNL     1      -2.638 -13.985  11.483  0.00  0.00    -0.316 NA
ATOM      8  C   UNL     1      -2.799 -11.972  13.604  0.00  0.00    +0.004 C 
ATOM      9  C   UNL     1      -3.487 -11.763  12.234  0.00  0.00    +0.012 C 
ATOM     10  C   UNL     1      -1.614 -12.941  13.483  0.00  0.00    +0.019 C 
ATOM     11  C   UNL     1      -3.822 -13.133  11.615  0.00  0.00    +0.085 C 
ATOM     12  C   UNL     1      -2.021 -14.238  12.784  0.00  0.00    +0.081 C 
ATOM     31  H   UNL     1      -1.960 -13.546  10.863  0.00  0.00    +0.122 HD
ENDROOT
BRANCH   9  13
ATOM     13  C   UNL     1      -2.673 -10.908  11.254  0.00  0.00    +0.064 C 
BRANCH  13  15
ATOM      4  O   UNL     1      -4.642  -8.903   9.006  0.00  0.00    -0.359 OA
ATOM      7  N   UNL     1      -3.851  -9.065  10.136  0.00  0.00    -0.083 NA
ATOM     15  C   UNL     1      -3.536 -10.364  10.154  0.00  0.00    +0.084 A 
ATOM     17  C   UNL     1      -4.096 -11.065   9.071  0.00  0.00    +0.071 A 
ATOM     18  C   UNL     1      -4.781 -10.100   8.380  0.00  0.00    +0.148 A 
BRANCH  18  20
ATOM     20  C   UNL     1      -5.594 -10.111   7.158  0.00  0.00    +0.151 C 
BRANCH  20   1
ATOM      1  S   UNL     1      -6.139 -11.786   6.669  0.00  0.00    -0.117 S 
BRANCH   1  24
ATOM     24  C   UNL     1      -4.886 -12.216   5.470  0.00  0.00    +0.008 A 
ATOM     26  C   UNL     1      -5.155 -12.099   4.106  0.00  0.00    +0.015 A 
ATOM     27  C   UNL     1      -3.638 -12.669   5.898  0.00  0.00    +0.015 A 
ATOM     28  C   UNL     1      -4.176 -12.435   3.171  0.00  0.00    +0.001 A 
ATOM     29  C   UNL     1      -2.659 -13.005   4.964  0.00  0.00    +0.001 A 
ATOM     30  C   UNL     1      -2.929 -12.888   3.599  0.00  0.00    +0.000 A 
ENDBRANCH   1  24
ENDBRANCH  20   1
ENDBRANCH  18  20
ENDBRANCH  13  15
ENDBRANCH   9  13
BRANCH   8  14
ATOM     14  C   UNL     1      -2.369 -10.668  14.273  0.00  0.00    +0.099 C 
BRANCH  14  16
ATOM      3  O   UNL     1      -1.318 -10.618  16.452  0.00  0.00    -0.276 OA
ATOM      6  N   UNL     1      -3.588 -11.089  16.291  0.00  0.00    -0.311 N 
ATOM     16  C   UNL     1      -2.335 -10.781  15.782  0.00  0.00    +0.214 C 
ATOM     32  H   UNL     1      -4.364 -11.251  15.658  0.00  0.00    +0.149 HD
BRANCH   6  19
ATOM     19  C   UNL     1      -3.847 -11.259  17.702  0.00  0.00    +0.146 C 
BRANCH  19  21
ATOM      2  S   UNL     1      -6.213 -10.015  16.945  0.00  0.00    -0.100 S 
ATOM     21  C   UNL     1      -5.259 -10.899  18.061  0.00  0.00    +0.007 A 
ATOM     22  C   UNL     1      -5.951 -11.186  19.217  0.00  0.00    +0.013 A 
ATOM     23  C   UNL     1      -7.280 -10.674  19.187  0.00  0.00    +0.008 A 
ATOM     25  C   UNL     1      -7.554 -10.015  18.009  0.00  0.00    +0.045 A 
ENDBRANCH  19  21
ENDBRANCH   6  19
ENDBRANCH  14  16
ENDBRANCH   8  14
TORSDOF 9
ENDMDL
