MODEL 1
REMARK VINA RESULT:      -6.5      0.000      0.000
REMARK  Name = 45360564
REMARK  7 active torsions:
REMARK  status: ('A' for Active; 'I' for Inactive)
REMARK    1  A    between atoms: O_3  and  C_9
REMARK    2  A    between atoms: O_4  and  C_21
REMARK    3  A    between atoms: N_5  and  C_8
REMARK    4  A    between atoms: N_6  and  C_10
REMARK    5  A    between atoms: N_6  and  C_18
REMARK    6  A    between atoms: N_7  and  C_19
REMARK    7  A    between atoms: C_18  and  C_20
REMARK                            x       y       z     vdW  Elec       q    Type
REMARK                         _______ _______ _______ _____ _____    ______ ____
ROOT
ATOM      1  O   UNL     1      12.635   7.264  21.975  0.00  0.00    -0.343 OA
ATOM      2  O   UNL     1      11.665   7.268  19.868  0.00  0.00    -0.347 OA
ATOM      8  C   UNL     1      13.919   8.106  20.112  0.00  0.00    +0.143 C 
ATOM      9  C   UNL     1      13.384   9.533  20.369  0.00  0.00    +0.156 C 
ATOM     10  C   UNL     1      12.507   9.655  21.640  0.00  0.00    +0.116 C 
ATOM     11  C   UNL     1      11.716   8.362  21.940  0.00  0.00    +0.166 C 
ATOM     12  C   UNL     1      12.895   7.055  20.580  0.00  0.00    +0.270 C 
ATOM     13  C   UNL     1      10.800   7.916  20.813  0.00  0.00    +0.196 C 
ENDROOT
BRANCH   8   5
ATOM      5  N   UNL     1      15.194   7.901  20.797  0.00  0.00    -0.290 NA
ATOM      7  N   UNL     1      18.067   7.587  20.849  0.00  0.00    -0.303 NA
ATOM     14  C   UNL     1      16.090   9.044  20.586  0.00  0.00    +0.100 C 
ATOM     15  C   UNL     1      15.834   6.657  20.348  0.00  0.00    +0.100 C 
ATOM     16  C   UNL     1      17.428   8.829  21.301  0.00  0.00    +0.099 C 
ATOM     17  C   UNL     1      17.173   6.443  21.063  0.00  0.00    +0.099 C 
ATOM     19  C   UNL     1      19.344   7.381  21.533  0.00  0.00    +0.105 C 
ENDBRANCH   8   5
BRANCH   9   3
ATOM      3  O   UNL     1      12.593   9.911  19.231  0.00  0.00    -0.388 OA
ATOM     27  H   UNL     1      13.187  10.333  18.588  0.00  0.00    +0.210 HD
ENDBRANCH   9   3
BRANCH  10   6
ATOM      6  N   UNL     1      13.336   9.967  22.809  0.00  0.00    -0.305 NA
ATOM     26  H   UNL     1      14.218   9.456  22.749  0.00  0.00    +0.123 HD
BRANCH   6  18
ATOM     18  C   UNL     1      13.586  11.395  22.891  0.00  0.00    +0.120 C 
BRANCH  18  20
ATOM     20  C   UNL     1      12.367  12.154  23.343  0.00  0.00    +0.008 A 
ATOM     21  C   UNL     1      11.821  11.937  24.609  0.00  0.00    +0.121 A 
ATOM     22  C   UNL     1      11.784  13.082  22.481  0.00  0.00    +0.008 A 
ATOM     23  C   UNL     1      10.691  12.649  25.011  0.00  0.00    +0.046 A 
ATOM     24  C   UNL     1      10.653  13.793  22.883  0.00  0.00    +0.001 A 
ATOM     25  C   UNL     1      10.107  13.576  24.148  0.00  0.00    +0.004 A 
BRANCH  21   4
ATOM      4  O   UNL     1      12.378  11.035  25.463  0.00  0.00    -0.506 OA
ATOM     28  H   UNL     1      12.751  11.509  26.226  0.00  0.00    +0.292 HD
ENDBRANCH  21   4
ENDBRANCH  18  20
ENDBRANCH   6  18
ENDBRANCH  10   6
TORSDOF 6
ENDMDL
MODEL 2
REMARK VINA RESULT:      -6.2      2.125      2.626
REMARK  Name = 45360564
REMARK  7 active torsions:
REMARK  status: ('A' for Active; 'I' for Inactive)
REMARK    1  A    between atoms: O_3  and  C_9
REMARK    2  A    between atoms: O_4  and  C_21
REMARK    3  A    between atoms: N_5  and  C_8
REMARK    4  A    between atoms: N_6  and  C_10
REMARK    5  A    between atoms: N_6  and  C_18
REMARK    6  A    between atoms: N_7  and  C_19
REMARK    7  A    between atoms: C_18  and  C_20
REMARK                            x       y       z     vdW  Elec       q    Type
REMARK                         _______ _______ _______ _____ _____    ______ ____
ROOT
ATOM      1  O   UNL     1      13.261   7.312  21.709  0.00  0.00    -0.343 OA
ATOM      2  O   UNL     1      12.247   6.351  19.857  0.00  0.00    -0.347 OA
ATOM      8  C   UNL     1      12.840   8.693  19.773  0.00  0.00    +0.143 C 
ATOM      9  C   UNL     1      11.455   9.085  20.337  0.00  0.00    +0.156 C 
ATOM     10  C   UNL     1      11.178   8.538  21.759  0.00  0.00    +0.116 C 
ATOM     11  C   UNL     1      11.868   7.179  22.016  0.00  0.00    +0.166 C 
ATOM     12  C   UNL     1      13.247   7.294  20.275  0.00  0.00    +0.270 C 
ATOM     13  C   UNL     1      11.474   6.087  21.038  0.00  0.00    +0.196 C 
ENDROOT
BRANCH   8   5
ATOM      5  N   UNL     1      13.852   9.675  20.158  0.00  0.00    -0.290 NA
ATOM      7  N   UNL     1      15.869  11.659  19.566  0.00  0.00    -0.303 NA
ATOM     14  C   UNL     1      13.487  11.014  19.680  0.00  0.00    +0.100 C 
ATOM     15  C   UNL     1      15.174   9.290  19.647  0.00  0.00    +0.100 C 
ATOM     16  C   UNL     1      14.549  12.045  20.079  0.00  0.00    +0.099 C 
ATOM     17  C   UNL     1      16.235  10.321  20.045  0.00  0.00    +0.099 C 
ATOM     19  C   UNL     1      16.883  12.642  19.948  0.00  0.00    +0.105 C 
ENDBRANCH   8   5
BRANCH   9   3
ATOM      3  O   UNL     1      10.460   8.561  19.445  0.00  0.00    -0.388 OA
ATOM     27  H   UNL     1      10.600   7.602  19.380  0.00  0.00    +0.210 HD
ENDBRANCH   9   3
BRANCH  10   6
ATOM      6  N   UNL     1      11.643   9.487  22.776  0.00  0.00    -0.305 NA
ATOM     26  H   UNL     1      12.657   9.586  22.713  0.00  0.00    +0.123 HD
BRANCH   6  18
ATOM     18  C   UNL     1      11.000  10.778  22.602  0.00  0.00    +0.120 C 
BRANCH  18  20
ATOM     20  C   UNL     1      11.660  11.850  23.428  0.00  0.00    +0.008 A 
ATOM     21  C   UNL     1      11.783  11.709  24.811  0.00  0.00    +0.121 A 
ATOM     22  C   UNL     1      12.150  12.992  22.796  0.00  0.00    +0.008 A 
ATOM     23  C   UNL     1      12.398  12.711  25.561  0.00  0.00    +0.046 A 
ATOM     24  C   UNL     1      12.764  13.995  23.547  0.00  0.00    +0.001 A 
ATOM     25  C   UNL     1      12.887  13.855  24.930  0.00  0.00    +0.004 A 
BRANCH  21   4
ATOM      4  O   UNL     1      11.310  10.599  25.444  0.00  0.00    -0.506 OA
ATOM     28  H   UNL     1      11.445   9.825  24.871  0.00  0.00    +0.292 HD
ENDBRANCH  21   4
ENDBRANCH  18  20
ENDBRANCH   6  18
ENDBRANCH  10   6
TORSDOF 6
ENDMDL
MODEL 3
REMARK VINA RESULT:      -6.1     17.819     20.521
REMARK  Name = 45360564
REMARK  7 active torsions:
REMARK  status: ('A' for Active; 'I' for Inactive)
REMARK    1  A    between atoms: O_3  and  C_9
REMARK    2  A    between atoms: O_4  and  C_21
REMARK    3  A    between atoms: N_5  and  C_8
REMARK    4  A    between atoms: N_6  and  C_10
REMARK    5  A    between atoms: N_6  and  C_18
REMARK    6  A    between atoms: N_7  and  C_19
REMARK    7  A    between atoms: C_18  and  C_20
REMARK                            x       y       z     vdW  Elec       q    Type
REMARK                         _______ _______ _______ _____ _____    ______ ____
ROOT
ATOM      1  O   UNL     1      12.988   7.105   3.554  0.00  0.00    -0.343 OA
ATOM      2  O   UNL     1      11.632   8.657   2.489  0.00  0.00    -0.347 OA
ATOM      8  C   UNL     1      10.592   6.885   3.762  0.00  0.00    +0.143 C 
ATOM      9  C   UNL     1      10.552   5.980   2.510  0.00  0.00    +0.156 C 
ATOM     10  C   UNL     1      11.950   5.633   1.941  0.00  0.00    +0.116 C 
ATOM     11  C   UNL     1      12.977   6.767   2.162  0.00  0.00    +0.166 C 
ATOM     12  C   UNL     1      11.778   7.865   3.679  0.00  0.00    +0.270 C 
ATOM     13  C   UNL     1      12.573   8.100   1.559  0.00  0.00    +0.196 C 
ENDROOT
BRANCH   8   5
ATOM      5  N   UNL     1      10.694   6.081   4.979  0.00  0.00    -0.290 NA
ATOM      7  N   UNL     1       9.653   5.019   7.458  0.00  0.00    -0.303 NA
ATOM     14  C   UNL     1       9.682   5.018   4.987  0.00  0.00    +0.100 C 
ATOM     15  C   UNL     1      10.564   6.923   6.175  0.00  0.00    +0.100 C 
ATOM     16  C   UNL     1       9.785   4.176   6.264  0.00  0.00    +0.099 C 
ATOM     17  C   UNL     1      10.666   6.081   7.451  0.00  0.00    +0.099 C 
ATOM     19  C   UNL     1       9.753   4.216   8.676  0.00  0.00    +0.105 C 
ENDBRANCH   8   5
BRANCH   9   3
ATOM      3  O   UNL     1       9.806   6.673   1.498  0.00  0.00    -0.388 OA
ATOM     27  H   UNL     1      10.182   7.566   1.416  0.00  0.00    +0.210 HD
ENDBRANCH   9   3
BRANCH  10   6
ATOM      6  N   UNL     1      12.472   4.413   2.565  0.00  0.00    -0.305 NA
ATOM     26  H   UNL     1      11.840   4.111   3.307  0.00  0.00    +0.123 HD
BRANCH   6  18
ATOM     18  C   UNL     1      12.627   3.360   1.576  0.00  0.00    +0.120 C 
BRANCH  18  20
ATOM     20  C   UNL     1      13.744   3.656   0.611  0.00  0.00    +0.008 A 
ATOM     21  C   UNL     1      15.074   3.635   1.032  0.00  0.00    +0.121 A 
ATOM     22  C   UNL     1      13.436   3.952  -0.716  0.00  0.00    +0.008 A 
ATOM     23  C   UNL     1      16.096   3.911   0.124  0.00  0.00    +0.046 A 
ATOM     24  C   UNL     1      14.460   4.229  -1.624  0.00  0.00    +0.001 A 
ATOM     25  C   UNL     1      15.789   4.209  -1.203  0.00  0.00    +0.004 A 
BRANCH  21   4
ATOM      4  O   UNL     1      15.392   3.347   2.325  0.00  0.00    -0.506 OA
ATOM     28  H   UNL     1      16.297   3.654   2.505  0.00  0.00    +0.292 HD
ENDBRANCH  21   4
ENDBRANCH  18  20
ENDBRANCH   6  18
ENDBRANCH  10   6
TORSDOF 6
ENDMDL
MODEL 4
REMARK VINA RESULT:      -6.1      2.568      4.639
REMARK  Name = 45360564
REMARK  7 active torsions:
REMARK  status: ('A' for Active; 'I' for Inactive)
REMARK    1  A    between atoms: O_3  and  C_9
REMARK    2  A    between atoms: O_4  and  C_21
REMARK    3  A    between atoms: N_5  and  C_8
REMARK    4  A    between atoms: N_6  and  C_10
REMARK    5  A    between atoms: N_6  and  C_18
REMARK    6  A    between atoms: N_7  and  C_19
REMARK    7  A    between atoms: C_18  and  C_20
REMARK                            x       y       z     vdW  Elec       q    Type
REMARK                         _______ _______ _______ _____ _____    ______ ____
ROOT
ATOM      1  O   UNL     1      15.740   9.571  20.399  0.00  0.00    -0.343 OA
ATOM      2  O   UNL     1      17.108   7.700  20.319  0.00  0.00    -0.347 OA
ATOM      8  C   UNL     1      14.857   7.532  19.453  0.00  0.00    +0.143 C 
ATOM      9  C   UNL     1      14.333   7.099  20.842  0.00  0.00    +0.156 C 
ATOM     10  C   UNL     1      14.523   8.167  21.947  0.00  0.00    +0.116 C 
ATOM     11  C   UNL     1      15.786   9.030  21.724  0.00  0.00    +0.166 C 
ATOM     12  C   UNL     1      16.098   8.432  19.605  0.00  0.00    +0.270 C 
ATOM     13  C   UNL     1      17.078   8.236  21.651  0.00  0.00    +0.196 C 
ENDROOT
BRANCH   8   5
ATOM      5  N   UNL     1      13.817   8.237  18.705  0.00  0.00    -0.290 NA
ATOM      7  N   UNL     1      11.790   8.407  16.652  0.00  0.00    -0.303 NA
ATOM     14  C   UNL     1      12.520   7.569  18.859  0.00  0.00    +0.100 C 
ATOM     15  C   UNL     1      14.176   8.342  17.285  0.00  0.00    +0.100 C 
ATOM     16  C   UNL     1      11.430   8.305  18.072  0.00  0.00    +0.099 C 
ATOM     17  C   UNL     1      13.086   9.077  16.499  0.00  0.00    +0.099 C 
ATOM     19  C   UNL     1      10.750   9.110  15.902  0.00  0.00    +0.105 C 
ENDBRANCH   8   5
BRANCH   9   3
ATOM      3  O   UNL     1      15.048   5.914  21.224  0.00  0.00    -0.388 OA
ATOM     27  H   UNL     1      15.306   5.451  20.409  0.00  0.00    +0.210 HD
ENDBRANCH   9   3
BRANCH  10   6
ATOM      6  N   UNL     1      13.362   9.061  22.005  0.00  0.00    -0.305 NA
ATOM     26  H   UNL     1      12.581   8.578  22.450  0.00  0.00    +0.123 HD
BRANCH   6  18
ATOM     18  C   UNL     1      13.687  10.273  22.736  0.00  0.00    +0.120 C 
BRANCH  18  20
ATOM     20  C   UNL     1      12.847  11.440  22.291  0.00  0.00    +0.008 A 
ATOM     21  C   UNL     1      12.764  11.784  20.941  0.00  0.00    +0.121 A 
ATOM     22  C   UNL     1      12.148  12.180  23.243  0.00  0.00    +0.008 A 
ATOM     23  C   UNL     1      11.981  12.868  20.545  0.00  0.00    +0.046 A 
ATOM     24  C   UNL     1      11.365  13.265  22.847  0.00  0.00    +0.001 A 
ATOM     25  C   UNL     1      11.282  13.609  21.498  0.00  0.00    +0.004 A 
BRANCH  21   4
ATOM      4  O   UNL     1      13.440  11.072  19.997  0.00  0.00    -0.506 OA
ATOM     28  H   UNL     1      12.868  10.358  19.667  0.00  0.00    +0.292 HD
ENDBRANCH  21   4
ENDBRANCH  18  20
ENDBRANCH   6  18
ENDBRANCH  10   6
TORSDOF 6
ENDMDL
MODEL 5
REMARK VINA RESULT:      -5.9     15.625     18.072
REMARK  Name = 45360564
REMARK  7 active torsions:
REMARK  status: ('A' for Active; 'I' for Inactive)
REMARK    1  A    between atoms: O_3  and  C_9
REMARK    2  A    between atoms: O_4  and  C_21
REMARK    3  A    between atoms: N_5  and  C_8
REMARK    4  A    between atoms: N_6  and  C_10
REMARK    5  A    between atoms: N_6  and  C_18
REMARK    6  A    between atoms: N_7  and  C_19
REMARK    7  A    between atoms: C_18  and  C_20
REMARK                            x       y       z     vdW  Elec       q    Type
REMARK                         _______ _______ _______ _____ _____    ______ ____
ROOT
ATOM      1  O   UNL     1       9.842   7.611   4.800  0.00  0.00    -0.343 OA
ATOM      2  O   UNL     1       8.596   8.315   6.626  0.00  0.00    -0.347 OA
ATOM      8  C   UNL     1      10.945   7.835   6.937  0.00  0.00    +0.143 C 
ATOM      9  C   UNL     1      10.621   6.362   7.274  0.00  0.00    +0.156 C 
ATOM     10  C   UNL     1       9.950   5.585   6.115  0.00  0.00    +0.116 C 
ATOM     11  C   UNL     1       9.062   6.490   5.231  0.00  0.00    +0.166 C 
ATOM     12  C   UNL     1       9.880   8.415   5.987  0.00  0.00    +0.270 C 
ATOM     13  C   UNL     1       7.953   7.202   5.986  0.00  0.00    +0.196 C 
ENDROOT
BRANCH   8   5
ATOM      5  N   UNL     1      12.270   7.947   6.329  0.00  0.00    -0.290 NA
ATOM      7  N   UNL     1      15.075   8.644   6.379  0.00  0.00    -0.303 NA
ATOM     14  C   UNL     1      13.247   7.124   7.052  0.00  0.00    +0.100 C 
ATOM     15  C   UNL     1      12.709   9.348   6.287  0.00  0.00    +0.100 C 
ATOM     16  C   UNL     1      14.637   7.244   6.418  0.00  0.00    +0.099 C 
ATOM     17  C   UNL     1      14.099   9.467   5.654  0.00  0.00    +0.099 C 
ATOM     19  C   UNL     1      16.401   8.758   5.772  0.00  0.00    +0.105 C 
ENDBRANCH   8   5
BRANCH   9   3
ATOM      3  O   UNL     1       9.730   6.361   8.400  0.00  0.00    -0.388 OA
ATOM     27  H   UNL     1       9.845   7.207   8.865  0.00  0.00    +0.210 HD
ENDBRANCH   9   3
BRANCH  10   6
ATOM      6  N   UNL     1      10.963   4.961   5.258  0.00  0.00    -0.305 NA
ATOM     26  H   UNL     1      11.261   4.075   5.670  0.00  0.00    +0.123 HD
BRANCH   6  18
ATOM     18  C   UNL     1      10.438   4.742   3.922  0.00  0.00    +0.120 C 
BRANCH  18  20
ATOM     20  C   UNL     1      11.533   4.692   2.889  0.00  0.00    +0.008 A 
ATOM     21  C   UNL     1      12.355   5.797   2.667  0.00  0.00    +0.121 A 
ATOM     22  C   UNL     1      11.720   3.523   2.152  0.00  0.00    +0.008 A 
ATOM     23  C   UNL     1      13.364   5.733   1.707  0.00  0.00    +0.046 A 
ATOM     24  C   UNL     1      12.730   3.460   1.191  0.00  0.00    +0.001 A 
ATOM     25  C   UNL     1      13.551   4.565   0.969  0.00  0.00    +0.004 A 
BRANCH  21   4
ATOM      4  O   UNL     1      12.185   6.946   3.379  0.00  0.00    -0.506 OA
ATOM     28  H   UNL     1      11.275   7.265   3.256  0.00  0.00    +0.292 HD
ENDBRANCH  21   4
ENDBRANCH  18  20
ENDBRANCH   6  18
ENDBRANCH  10   6
TORSDOF 6
ENDMDL
MODEL 6
REMARK VINA RESULT:      -5.8      3.225      5.273
REMARK  Name = 45360564
REMARK  7 active torsions:
REMARK  status: ('A' for Active; 'I' for Inactive)
REMARK    1  A    between atoms: O_3  and  C_9
REMARK    2  A    between atoms: O_4  and  C_21
REMARK    3  A    between atoms: N_5  and  C_8
REMARK    4  A    between atoms: N_6  and  C_10
REMARK    5  A    between atoms: N_6  and  C_18
REMARK    6  A    between atoms: N_7  and  C_19
REMARK    7  A    between atoms: C_18  and  C_20
REMARK                            x       y       z     vdW  Elec       q    Type
REMARK                         _______ _______ _______ _____ _____    ______ ____
ROOT
ATOM      1  O   UNL     1      12.978   8.622  21.131  0.00  0.00    -0.343 OA
ATOM      2  O   UNL     1      11.490   6.937  20.559  0.00  0.00    -0.347 OA
ATOM      8  C   UNL     1      13.705   6.910  19.591  0.00  0.00    +0.143 C 
ATOM      9  C   UNL     1      13.215   7.758  18.394  0.00  0.00    +0.156 C 
ATOM     10  C   UNL     1      12.699   9.163  18.791  0.00  0.00    +0.116 C 
ATOM     11  C   UNL     1      12.051   9.182  20.193  0.00  0.00    +0.166 C 
ATOM     12  C   UNL     1      12.869   7.220  20.847  0.00  0.00    +0.270 C 
ATOM     13  C   UNL     1      10.885   8.223  20.353  0.00  0.00    +0.196 C 
ENDROOT
BRANCH   8   5
ATOM      5  N   UNL     1      15.120   7.161  19.858  0.00  0.00    -0.290 NA
ATOM      7  N   UNL     1      17.708   6.432  20.920  0.00  0.00    -0.303 NA
ATOM     14  C   UNL     1      15.962   6.160  19.193  0.00  0.00    +0.100 C 
ATOM     15  C   UNL     1      15.384   7.176  21.303  0.00  0.00    +0.100 C 
ATOM     16  C   UNL     1      17.446   6.419  19.476  0.00  0.00    +0.099 C 
ATOM     17  C   UNL     1      16.868   7.435  21.585  0.00  0.00    +0.099 C 
ATOM     19  C   UNL     1      19.124   6.681  21.189  0.00  0.00    +0.105 C 
ENDBRANCH   8   5
BRANCH   9   3
ATOM      3  O   UNL     1      12.144   7.040  17.763  0.00  0.00    -0.388 OA
ATOM     27  H   UNL     1      11.590   6.661  18.467  0.00  0.00    +0.210 HD
ENDBRANCH   9   3
BRANCH  10   6
ATOM      6  N   UNL     1      13.796  10.137  18.780  0.00  0.00    -0.305 NA
ATOM     26  H   UNL     1      14.663   9.673  18.504  0.00  0.00    +0.123 HD
BRANCH   6  18
ATOM     18  C   UNL     1      13.500  11.230  17.871  0.00  0.00    +0.120 C 
BRANCH  18  20
ATOM     20  C   UNL     1      14.571  11.398  16.826  0.00  0.00    +0.008 A 
ATOM     21  C   UNL     1      15.693  12.189  17.076  0.00  0.00    +0.121 A 
ATOM     22  C   UNL     1      14.433  10.751  15.599  0.00  0.00    +0.008 A 
ATOM     23  C   UNL     1      16.676  12.334  16.098  0.00  0.00    +0.046 A 
ATOM     24  C   UNL     1      15.417  10.896  14.620  0.00  0.00    +0.001 A 
ATOM     25  C   UNL     1      16.537  11.688  14.869  0.00  0.00    +0.004 A 
BRANCH  21   4
ATOM      4  O   UNL     1      15.843  12.828  18.270  0.00  0.00    -0.506 OA
ATOM     28  H   UNL     1      16.623  13.408  18.224  0.00  0.00    +0.292 HD
ENDBRANCH  21   4
ENDBRANCH  18  20
ENDBRANCH   6  18
ENDBRANCH  10   6
TORSDOF 6
ENDMDL
MODEL 7
REMARK VINA RESULT:      -5.7      3.523      6.311
REMARK  Name = 45360564
REMARK  7 active torsions:
REMARK  status: ('A' for Active; 'I' for Inactive)
REMARK    1  A    between atoms: O_3  and  C_9
REMARK    2  A    between atoms: O_4  and  C_21
REMARK    3  A    between atoms: N_5  and  C_8
REMARK    4  A    between atoms: N_6  and  C_10
REMARK    5  A    between atoms: N_6  and  C_18
REMARK    6  A    between atoms: N_7  and  C_19
REMARK    7  A    between atoms: C_18  and  C_20
REMARK                            x       y       z     vdW  Elec       q    Type
REMARK                         _______ _______ _______ _____ _____    ______ ____
ROOT
ATOM      1  O   UNL     1      14.258   7.260  18.357  0.00  0.00    -0.343 OA
ATOM      2  O   UNL     1      11.960   7.306  18.668  0.00  0.00    -0.347 OA
ATOM      8  C   UNL     1      13.091   9.353  18.056  0.00  0.00    +0.143 C 
ATOM      9  C   UNL     1      13.307   9.704  19.546  0.00  0.00    +0.156 C 
ATOM     10  C   UNL     1      14.185   8.683  20.311  0.00  0.00    +0.116 C 
ATOM     11  C   UNL     1      14.026   7.243  19.771  0.00  0.00    +0.166 C 
ATOM     12  C   UNL     1      13.034   7.825  17.867  0.00  0.00    +0.270 C 
ATOM     13  C   UNL     1      12.602   6.717  19.809  0.00  0.00    +0.196 C 
ENDROOT
BRANCH   8   5
ATOM      5  N   UNL     1      14.158   9.918  17.231  0.00  0.00    -0.290 NA
ATOM      7  N   UNL     1      15.175  11.745  15.235  0.00  0.00    -0.303 NA
ATOM     14  C   UNL     1      14.347  11.343  17.528  0.00  0.00    +0.100 C 
ATOM     15  C   UNL     1      13.874   9.724  15.804  0.00  0.00    +0.100 C 
ATOM     16  C   UNL     1      15.462  11.938  16.661  0.00  0.00    +0.099 C 
ATOM     17  C   UNL     1      14.989  10.319  14.938  0.00  0.00    +0.099 C 
ATOM     19  C   UNL     1      16.241  12.311  14.409  0.00  0.00    +0.105 C 
ENDBRANCH   8   5
BRANCH   9   3
ATOM      3  O   UNL     1      12.015   9.754  20.170  0.00  0.00    -0.388 OA
ATOM     27  H   UNL     1      11.790  10.690  20.305  0.00  0.00    +0.210 HD
ENDBRANCH   9   3
BRANCH  10   6
ATOM      6  N   UNL     1      15.601   9.052  20.221  0.00  0.00    -0.305 NA
ATOM     26  H   UNL     1      15.689   9.966  19.775  0.00  0.00    +0.123 HD
BRANCH   6  18
ATOM     18  C   UNL     1      16.207   9.077  21.541  0.00  0.00    +0.120 C 
BRANCH  18  20
ATOM     20  C   UNL     1      17.615   8.546  21.523  0.00  0.00    +0.008 A 
ATOM     21  C   UNL     1      17.859   7.172  21.548  0.00  0.00    +0.121 A 
ATOM     22  C   UNL     1      18.682   9.443  21.479  0.00  0.00    +0.008 A 
ATOM     23  C   UNL     1      19.171   6.697  21.530  0.00  0.00    +0.046 A 
ATOM     24  C   UNL     1      19.993   8.967  21.461  0.00  0.00    +0.001 A 
ATOM     25  C   UNL     1      20.237   7.594  21.488  0.00  0.00    +0.004 A 
BRANCH  21   4
ATOM      4  O   UNL     1      16.830   6.282  21.591  0.00  0.00    -0.506 OA
ATOM     28  H   UNL     1      16.373   6.365  22.446  0.00  0.00    +0.292 HD
ENDBRANCH  21   4
ENDBRANCH  18  20
ENDBRANCH   6  18
ENDBRANCH  10   6
TORSDOF 6
ENDMDL
MODEL 8
REMARK VINA RESULT:      -5.7     27.208     28.704
REMARK  Name = 45360564
REMARK  7 active torsions:
REMARK  status: ('A' for Active; 'I' for Inactive)
REMARK    1  A    between atoms: O_3  and  C_9
REMARK    2  A    between atoms: O_4  and  C_21
REMARK    3  A    between atoms: N_5  and  C_8
REMARK    4  A    between atoms: N_6  and  C_10
REMARK    5  A    between atoms: N_6  and  C_18
REMARK    6  A    between atoms: N_7  and  C_19
REMARK    7  A    between atoms: C_18  and  C_20
REMARK                            x       y       z     vdW  Elec       q    Type
REMARK                         _______ _______ _______ _____ _____    ______ ____
ROOT
ATOM      1  O   UNL     1      -2.229 -10.285  13.605  0.00  0.00    -0.343 OA
ATOM      2  O   UNL     1      -1.529 -12.420  13.032  0.00  0.00    -0.347 OA
ATOM      8  C   UNL     1      -3.675 -11.647  12.232  0.00  0.00    +0.143 C 
ATOM      9  C   UNL     1      -4.371 -12.205  13.494  0.00  0.00    +0.156 C 
ATOM     10  C   UNL     1      -3.897 -11.549  14.815  0.00  0.00    +0.116 C 
ATOM     11  C   UNL     1      -2.416 -11.111  14.760  0.00  0.00    +0.166 C 
ATOM     12  C   UNL     1      -2.219 -11.256  12.549  0.00  0.00    +0.270 C 
ATOM     13  C   UNL     1      -1.444 -12.236  14.453  0.00  0.00    +0.196 C 
ENDROOT
BRANCH   8   5
ATOM      5  N   UNL     1      -4.400 -10.489  11.711  0.00  0.00    -0.290 NA
ATOM      7  N   UNL     1      -5.993  -9.134   9.716  0.00  0.00    -0.303 NA
ATOM     14  C   UNL     1      -5.822 -10.803  11.530  0.00  0.00    +0.100 C 
ATOM     15  C   UNL     1      -3.810 -10.029  10.447  0.00  0.00    +0.100 C 
ATOM     16  C   UNL     1      -6.583  -9.591  10.980  0.00  0.00    +0.099 C 
ATOM     17  C   UNL     1      -4.572  -8.818   9.898  0.00  0.00    +0.099 C 
ATOM     19  C   UNL     1      -6.719  -7.977   9.193  0.00  0.00    +0.105 C 
ENDBRANCH   8   5
BRANCH   9   3
ATOM      3  O   UNL     1      -4.090 -13.612  13.557  0.00  0.00    -0.388 OA
ATOM     27  H   UNL     1      -4.047 -13.944  12.644  0.00  0.00    +0.210 HD
ENDBRANCH   9   3
BRANCH  10   6
ATOM      6  N   UNL     1      -4.713 -10.370  15.126  0.00  0.00    -0.305 NA
ATOM     26  H   UNL     1      -5.702 -10.611  15.052  0.00  0.00    +0.123 HD
BRANCH   6  18
ATOM     18  C   UNL     1      -4.411  -9.879  16.459  0.00  0.00    +0.120 C 
BRANCH  18  20
ATOM     20  C   UNL     1      -5.462 -10.285  17.458  0.00  0.00    +0.008 A 
ATOM     21  C   UNL     1      -6.794  -9.909  17.284  0.00  0.00    +0.121 A 
ATOM     22  C   UNL     1      -5.091 -11.047  18.565  0.00  0.00    +0.008 A 
ATOM     23  C   UNL     1      -7.755 -10.294  18.219  0.00  0.00    +0.046 A 
ATOM     24  C   UNL     1      -6.052 -11.432  19.501  0.00  0.00    +0.001 A 
ATOM     25  C   UNL     1      -7.383 -11.055  19.328  0.00  0.00    +0.004 A 
BRANCH  21   4
ATOM      4  O   UNL     1      -7.174  -9.165  16.208  0.00  0.00    -0.506 OA
ATOM     28  H   UNL     1      -6.550  -9.320  15.479  0.00  0.00    +0.292 HD
ENDBRANCH  21   4
ENDBRANCH  18  20
ENDBRANCH   6  18
ENDBRANCH  10   6
TORSDOF 6
ENDMDL
MODEL 9
REMARK VINA RESULT:      -5.6     27.065     29.390
REMARK  Name = 45360564
REMARK  7 active torsions:
REMARK  status: ('A' for Active; 'I' for Inactive)
REMARK    1  A    between atoms: O_3  and  C_9
REMARK    2  A    between atoms: O_4  and  C_21
REMARK    3  A    between atoms: N_5  and  C_8
REMARK    4  A    between atoms: N_6  and  C_10
REMARK    5  A    between atoms: N_6  and  C_18
REMARK    6  A    between atoms: N_7  and  C_19
REMARK    7  A    between atoms: C_18  and  C_20
REMARK                            x       y       z     vdW  Elec       q    Type
REMARK                         _______ _______ _______ _____ _____    ______ ____
ROOT
ATOM      1  O   UNL     1      -3.799 -10.536  13.243  0.00  0.00    -0.343 OA
ATOM      2  O   UNL     1      -2.122 -10.902  11.683  0.00  0.00    -0.347 OA
ATOM      8  C   UNL     1      -3.412 -12.790  12.468  0.00  0.00    +0.143 C 
ATOM      9  C   UNL     1      -2.405 -13.028  13.617  0.00  0.00    +0.156 C 
ATOM     10  C   UNL     1      -2.306 -11.851  14.618  0.00  0.00    +0.116 C 
ATOM     11  C   UNL     1      -2.553 -10.480  13.948  0.00  0.00    +0.166 C 
ATOM     12  C   UNL     1      -3.445 -11.300  12.082  0.00  0.00    +0.270 C 
ATOM     13  C   UNL     1      -1.605 -10.167  12.803  0.00  0.00    +0.196 C 
ENDROOT
BRANCH   8   5
ATOM      5  N   UNL     1      -4.750 -13.236  12.853  0.00  0.00    -0.290 NA
ATOM      7  N   UNL     1      -7.010 -15.031  12.695  0.00  0.00    -0.303 NA
ATOM     14  C   UNL     1      -4.702 -14.575  13.451  0.00  0.00    +0.100 C 
ATOM     15  C   UNL     1      -5.658 -13.221  11.698  0.00  0.00    +0.100 C 
ATOM     16  C   UNL     1      -6.105 -15.045  13.851  0.00  0.00    +0.099 C 
ATOM     17  C   UNL     1      -7.060 -13.691  12.099  0.00  0.00    +0.099 C 
ATOM     19  C   UNL     1      -8.349 -15.478  13.078  0.00  0.00    +0.105 C 
ENDBRANCH   8   5
BRANCH   9   3
ATOM      3  O   UNL     1      -1.113 -13.234  13.025  0.00  0.00    -0.388 OA
ATOM     27  H   UNL     1      -0.713 -12.359  12.882  0.00  0.00    +0.210 HD
ENDBRANCH   9   3
BRANCH  10   6
ATOM      6  N   UNL     1      -3.281 -12.012  15.702  0.00  0.00    -0.305 NA
ATOM     26  H   UNL     1      -3.074 -12.865  16.224  0.00  0.00    +0.123 HD
BRANCH   6  18
ATOM     18  C   UNL     1      -3.256 -10.862  16.588  0.00  0.00    +0.120 C 
BRANCH  18  20
ATOM     20  C   UNL     1      -4.570 -10.669  17.296  0.00  0.00    +0.008 A 
ATOM     21  C   UNL     1      -5.622  -9.995  16.676  0.00  0.00    +0.121 A 
ATOM     22  C   UNL     1      -4.729 -11.174  18.586  0.00  0.00    +0.008 A 
ATOM     23  C   UNL     1      -6.833  -9.826  17.346  0.00  0.00    +0.046 A 
ATOM     24  C   UNL     1      -5.941 -11.004  19.257  0.00  0.00    +0.001 A 
ATOM     25  C   UNL     1      -6.992 -10.330  18.637  0.00  0.00    +0.004 A 
BRANCH  21   4
ATOM      4  O   UNL     1      -5.484  -9.496  15.416  0.00  0.00    -0.506 OA
ATOM     28  H   UNL     1      -6.364  -9.284  15.060  0.00  0.00    +0.292 HD
ENDBRANCH  21   4
ENDBRANCH  18  20
ENDBRANCH   6  18
ENDBRANCH  10   6
TORSDOF 6
ENDMDL
MODEL 10
REMARK VINA RESULT:      -5.6      1.565      2.039
REMARK  Name = 45360564
REMARK  7 active torsions:
REMARK  status: ('A' for Active; 'I' for Inactive)
REMARK    1  A    between atoms: O_3  and  C_9
REMARK    2  A    between atoms: O_4  and  C_21
REMARK    3  A    between atoms: N_5  and  C_8
REMARK    4  A    between atoms: N_6  and  C_10
REMARK    5  A    between atoms: N_6  and  C_18
REMARK    6  A    between atoms: N_7  and  C_19
REMARK    7  A    between atoms: C_18  and  C_20
REMARK                            x       y       z     vdW  Elec       q    Type
REMARK                         _______ _______ _______ _____ _____    ______ ____
ROOT
ATOM      1  O   UNL     1      12.455   8.140  22.192  0.00  0.00    -0.343 OA
ATOM      2  O   UNL     1      11.410   6.838  20.582  0.00  0.00    -0.347 OA
ATOM      8  C   UNL     1      13.670   7.595  20.177  0.00  0.00    +0.143 C 
ATOM      9  C   UNL     1      13.140   8.877  19.494  0.00  0.00    +0.156 C 
ATOM     10  C   UNL     1      12.309   9.790  20.430  0.00  0.00    +0.116 C 
ATOM     11  C   UNL     1      11.532   8.990  21.500  0.00  0.00    +0.166 C 
ATOM     12  C   UNL     1      12.665   7.095  21.232  0.00  0.00    +0.270 C 
ATOM     13  C   UNL     1      10.578   7.954  20.933  0.00  0.00    +0.196 C 
ENDROOT
BRANCH   8   5
ATOM      5  N   UNL     1      14.969   7.840  20.801  0.00  0.00    -0.290 NA
ATOM      7  N   UNL     1      17.859   7.894  20.793  0.00  0.00    -0.303 NA
ATOM     14  C   UNL     1      15.710   8.877  20.073  0.00  0.00    +0.100 C 
ATOM     15  C   UNL     1      15.755   6.602  20.874  0.00  0.00    +0.100 C 
ATOM     16  C   UNL     1      17.074   9.133  20.723  0.00  0.00    +0.099 C 
ATOM     17  C   UNL     1      17.119   6.859  21.524  0.00  0.00    +0.099 C 
ATOM     19  C   UNL     1      19.160   8.139  21.416  0.00  0.00    +0.105 C 
ENDBRANCH   8   5
BRANCH   9   3
ATOM      3  O   UNL     1      12.308   8.471  18.396  0.00  0.00    -0.388 OA
ATOM     27  H   UNL     1      12.490   9.071  17.653  0.00  0.00    +0.210 HD
ENDBRANCH   9   3
BRANCH  10   6
ATOM      6  N   UNL     1      13.179  10.750  21.117  0.00  0.00    -0.305 NA
ATOM     26  H   UNL     1      13.507  11.451  20.451  0.00  0.00    +0.123 HD
BRANCH   6  18
ATOM     18  C   UNL     1      12.469  11.389  22.211  0.00  0.00    +0.120 C 
BRANCH  18  20
ATOM     20  C   UNL     1      13.413  11.960  23.236  0.00  0.00    +0.008 A 
ATOM     21  C   UNL     1      14.448  11.185  23.761  0.00  0.00    +0.121 A 
ATOM     22  C   UNL     1      13.244  13.278  23.659  0.00  0.00    +0.008 A 
ATOM     23  C   UNL     1      15.314  11.729  24.709  0.00  0.00    +0.046 A 
ATOM     24  C   UNL     1      14.110  13.822  24.608  0.00  0.00    +0.001 A 
ATOM     25  C   UNL     1      15.144  13.047  25.133  0.00  0.00    +0.004 A 
BRANCH  21   4
ATOM      4  O   UNL     1      14.627   9.896  23.358  0.00  0.00    -0.506 OA
ATOM     28  H   UNL     1      15.323   9.488  23.901  0.00  0.00    +0.292 HD
ENDBRANCH  21   4
ENDBRANCH  18  20
ENDBRANCH   6  18
ENDBRANCH  10   6
TORSDOF 6
ENDMDL
