MODEL 1
REMARK VINA RESULT:      -6.7      0.000      0.000
REMARK  Name = 25339565
REMARK  13 active torsions:
REMARK  status: ('A' for Active; 'I' for Inactive)
REMARK    1  A    between atoms: O_1  and  C_13
REMARK    2  A    between atoms: N_3  and  C_9
REMARK    3  A    between atoms: N_3  and  C_20
REMARK    4  A    between atoms: N_4  and  C_28
REMARK    5  A    between atoms: C_6  and  C_14
REMARK    6  A    between atoms: C_8  and  C_16
REMARK    7  A    between atoms: C_8  and  C_17
REMARK    8  A    between atoms: C_13  and  C_19
REMARK    9  A    between atoms: C_14  and  C_18
REMARK   10  A    between atoms: C_18  and  C_22
REMARK   11  A    between atoms: C_20  and  C_21
REMARK   12  A    between atoms: C_28  and  C_29
REMARK   13  A    between atoms: C_29  and  C_30
REMARK                            x       y       z     vdW  Elec       q    Type
REMARK                         _______ _______ _______ _____ _____    ______ ____
ROOT
ATOM      6  C   UNL     1      -7.512 -10.741  16.977  0.00  0.00    -0.010 C 
ATOM      7  C   UNL     1      -8.540 -10.779  18.159  0.00  0.00    +0.005 C 
ATOM      8  C   UNL     1      -8.647 -12.304  18.562  0.00  0.00    -0.030 C 
ATOM      9  C   UNL     1      -7.903 -12.037  16.228  0.00  0.00    +0.061 C 
ATOM     10  C   UNL     1      -8.070 -13.077  17.345  0.00  0.00    +0.026 C 
ATOM     11  C   UNL     1      -7.592  -9.463  16.111  0.00  0.00    +0.011 C 
ATOM     12  C   UNL     1      -9.912 -10.165  17.789  0.00  0.00    +0.039 C 
ATOM     13  C   UNL     1      -9.823  -8.810  17.085  0.00  0.00    +0.064 C 
ATOM     15  C   UNL     1      -8.999  -8.966  15.806  0.00  0.00    +0.035 C 
ATOM     16  C   UNL     1      -7.818 -12.582  19.834  0.00  0.00    +0.011 C 
ATOM     17  C   UNL     1     -10.072 -12.812  18.864  0.00  0.00    +0.011 C 
ATOM     19  C   UNL     1     -11.222  -8.280  16.763  0.00  0.00    +0.041 C 
ENDROOT
BRANCH  13   1
ATOM      1  O   UNL     1      -9.192  -7.879  17.964  0.00  0.00    -0.389 OA
ATOM     39  H   UNL     1      -8.615  -8.379  18.568  0.00  0.00    +0.210 HD
ENDBRANCH  13   1
BRANCH   9   3
ATOM      3  N   UNL     1      -6.959 -12.481  15.212  0.00  0.00    -0.312 NA
ATOM     38  H   UNL     1      -6.173 -11.836  15.153  0.00  0.00    +0.122 HD
BRANCH   3  20
ATOM     20  C   UNL     1      -7.623 -12.537  13.912  0.00  0.00    +0.084 C 
BRANCH  20  21
ATOM     21  C   UNL     1      -7.699 -11.153  13.270  0.00  0.00    +0.003 C 
ATOM     23  C   UNL     1      -6.292 -10.605  12.995  0.00  0.00    +0.005 C 
ATOM     24  C   UNL     1      -8.529 -11.199  11.980  0.00  0.00    +0.005 C 
ATOM     25  C   UNL     1      -6.343  -9.244  12.304  0.00  0.00    +0.000 C 
ATOM     26  C   UNL     1      -8.576  -9.838  11.292  0.00  0.00    +0.000 C 
ATOM     27  C   UNL     1      -7.176  -9.292  11.027  0.00  0.00    +0.000 C 
ENDBRANCH  20  21
ENDBRANCH   3  20
ENDBRANCH   9   3
BRANCH   6  14
ATOM     14  C   UNL     1      -6.049 -10.804  17.491  0.00  0.00    +0.018 C 
BRANCH  14  18
ATOM     18  C   UNL     1      -5.137 -10.002  16.586  0.00  0.00    +0.096 C 
BRANCH  18  22
ATOM      2  O   UNL     1      -4.095 -12.104  15.988  0.00  0.00    -0.276 OA
ATOM      4  N   UNL     1      -3.041 -10.116  15.414  0.00  0.00    -0.315 N 
ATOM     22  C   UNL     1      -4.057 -10.876  15.975  0.00  0.00    +0.213 C 
ATOM     40  H   UNL     1      -3.110  -9.103  15.419  0.00  0.00    +0.149 HD
BRANCH   4  28
ATOM     28  C   UNL     1      -1.896 -10.716  14.770  0.00  0.00    +0.109 C 
BRANCH  28  29
ATOM     29  C   UNL     1      -1.697 -10.214  13.342  0.00  0.00    +0.056 C 
BRANCH  29  30
ATOM      5  N   UNL     1      -3.409 -12.735  11.274  0.00  0.00    -0.360 N 
ATOM     30  C   UNL     1      -2.458 -11.025  12.321  0.00  0.00    -0.021 A 
ATOM     31  C   UNL     1      -3.064 -10.535  11.131  0.00  0.00    +0.003 A 
ATOM     32  C   UNL     1      -2.687 -12.380  12.382  0.00  0.00    +0.087 A 
ATOM     33  C   UNL     1      -3.654 -11.627  10.492  0.00  0.00    +0.047 A 
ATOM     34  C   UNL     1      -3.167  -9.263  10.533  0.00  0.00    +0.010 A 
ATOM     35  C   UNL     1      -4.346 -11.511   9.281  0.00  0.00    +0.026 A 
ATOM     36  C   UNL     1      -3.856  -9.131   9.322  0.00  0.00    +0.001 A 
ATOM     37  C   UNL     1      -4.436 -10.240   8.708  0.00  0.00    +0.002 A 
ATOM     41  H   UNL     1      -3.719 -13.672  11.059  0.00  0.00    +0.165 HD
ENDBRANCH  29  30
ENDBRANCH  28  29
ENDBRANCH   4  28
ENDBRANCH  18  22
ENDBRANCH  14  18
ENDBRANCH   6  14
TORSDOF 10
ENDMDL
MODEL 2
REMARK VINA RESULT:      -6.6      1.837      4.038
REMARK  Name = 25339565
REMARK  13 active torsions:
REMARK  status: ('A' for Active; 'I' for Inactive)
REMARK    1  A    between atoms: O_1  and  C_13
REMARK    2  A    between atoms: N_3  and  C_9
REMARK    3  A    between atoms: N_3  and  C_20
REMARK    4  A    between atoms: N_4  and  C_28
REMARK    5  A    between atoms: C_6  and  C_14
REMARK    6  A    between atoms: C_8  and  C_16
REMARK    7  A    between atoms: C_8  and  C_17
REMARK    8  A    between atoms: C_13  and  C_19
REMARK    9  A    between atoms: C_14  and  C_18
REMARK   10  A    between atoms: C_18  and  C_22
REMARK   11  A    between atoms: C_20  and  C_21
REMARK   12  A    between atoms: C_28  and  C_29
REMARK   13  A    between atoms: C_29  and  C_30
REMARK                            x       y       z     vdW  Elec       q    Type
REMARK                         _______ _______ _______ _____ _____    ______ ____
ROOT
ATOM      6  C   UNL     1      -7.198 -10.409  16.845  0.00  0.00    -0.010 C 
ATOM      7  C   UNL     1      -7.363 -11.911  16.430  0.00  0.00    +0.005 C 
ATOM      8  C   UNL     1      -8.049 -11.872  15.006  0.00  0.00    -0.030 C 
ATOM      9  C   UNL     1      -8.518  -9.822  16.292  0.00  0.00    +0.061 C 
ATOM     10  C   UNL     1      -8.643 -10.442  14.892  0.00  0.00    +0.026 C 
ATOM     11  C   UNL     1      -6.998 -10.191  18.362  0.00  0.00    +0.011 C 
ATOM     12  C   UNL     1      -8.176 -12.737  17.458  0.00  0.00    +0.039 C 
ATOM     13  C   UNL     1      -7.739 -12.537  18.909  0.00  0.00    +0.064 C 
ATOM     15  C   UNL     1      -7.865 -11.056  19.268  0.00  0.00    +0.035 C 
ATOM     16  C   UNL     1      -7.002 -12.122  13.900  0.00  0.00    +0.011 C 
ATOM     17  C   UNL     1      -9.165 -12.912  14.778  0.00  0.00    +0.011 C 
ATOM     19  C   UNL     1      -8.590 -13.393  19.849  0.00  0.00    +0.041 C 
ENDROOT
BRANCH  13   1
ATOM      1  O   UNL     1      -6.381 -12.959  19.040  0.00  0.00    -0.389 OA
ATOM     39  H   UNL     1      -5.917 -12.310  19.597  0.00  0.00    +0.210 HD
ENDBRANCH  13   1
BRANCH   9   3
ATOM      3  N   UNL     1      -8.585  -8.368  16.247  0.00  0.00    -0.312 NA
ATOM     38  H   UNL     1      -7.721  -7.962  16.603  0.00  0.00    +0.122 HD
BRANCH   3  20
ATOM     20  C   UNL     1      -9.700  -7.899  17.067  0.00  0.00    +0.084 C 
BRANCH  20  21
ATOM     21  C   UNL     1     -10.958  -7.695  16.225  0.00  0.00    +0.003 C 
ATOM     23  C   UNL     1     -12.144  -8.460  16.828  0.00  0.00    +0.005 C 
ATOM     24  C   UNL     1     -11.282  -6.201  16.089  0.00  0.00    +0.005 C 
ATOM     25  C   UNL     1     -13.427  -8.227  16.032  0.00  0.00    +0.000 C 
ATOM     26  C   UNL     1     -12.566  -5.974  15.296  0.00  0.00    +0.000 C 
ATOM     27  C   UNL     1     -13.741  -6.741  15.893  0.00  0.00    +0.000 C 
ENDBRANCH  20  21
ENDBRANCH   3  20
ENDBRANCH   9   3
BRANCH   6  14
ATOM     14  C   UNL     1      -5.962  -9.762  16.165  0.00  0.00    +0.018 C 
BRANCH  14  18
ATOM     18  C   UNL     1      -4.696 -10.134  16.909  0.00  0.00    +0.096 C 
BRANCH  18  22
ATOM      2  O   UNL     1      -3.937 -12.132  15.771  0.00  0.00    -0.276 OA
ATOM      4  N   UNL     1      -2.696 -10.179  15.575  0.00  0.00    -0.315 N 
ATOM     22  C   UNL     1      -3.759 -10.945  16.032  0.00  0.00    +0.213 C 
ATOM     40  H   UNL     1      -2.648  -9.193  15.814  0.00  0.00    +0.149 HD
BRANCH   4  28
ATOM     28  C   UNL     1      -1.665 -10.722  14.722  0.00  0.00    +0.109 C 
BRANCH  28  29
ATOM     29  C   UNL     1      -1.697 -10.131  13.315  0.00  0.00    +0.056 C 
BRANCH  29  30
ATOM      5  N   UNL     1      -3.229 -12.817  11.315  0.00  0.00    -0.360 N 
ATOM     30  C   UNL     1      -2.403 -11.019  12.319  0.00  0.00    -0.021 A 
ATOM     31  C   UNL     1      -3.060 -10.601  11.128  0.00  0.00    +0.003 A 
ATOM     32  C   UNL     1      -2.524 -12.386  12.407  0.00  0.00    +0.087 A 
ATOM     33  C   UNL     1      -3.569 -11.748  10.517  0.00  0.00    +0.047 A 
ATOM     34  C   UNL     1      -3.271  -9.352  10.510  0.00  0.00    +0.010 A 
ATOM     35  C   UNL     1      -4.282 -11.709   9.313  0.00  0.00    +0.026 A 
ATOM     36  C   UNL     1      -3.982  -9.298   9.306  0.00  0.00    +0.001 A 
ATOM     37  C   UNL     1      -4.479 -10.460   8.719  0.00  0.00    +0.002 A 
ATOM     41  H   UNL     1      -3.466 -13.781  11.122  0.00  0.00    +0.165 HD
ENDBRANCH  29  30
ENDBRANCH  28  29
ENDBRANCH   4  28
ENDBRANCH  18  22
ENDBRANCH  14  18
ENDBRANCH   6  14
TORSDOF 10
ENDMDL
MODEL 3
REMARK VINA RESULT:      -6.3     24.360     28.643
REMARK  Name = 25339565
REMARK  13 active torsions:
REMARK  status: ('A' for Active; 'I' for Inactive)
REMARK    1  A    between atoms: O_1  and  C_13
REMARK    2  A    between atoms: N_3  and  C_9
REMARK    3  A    between atoms: N_3  and  C_20
REMARK    4  A    between atoms: N_4  and  C_28
REMARK    5  A    between atoms: C_6  and  C_14
REMARK    6  A    between atoms: C_8  and  C_16
REMARK    7  A    between atoms: C_8  and  C_17
REMARK    8  A    between atoms: C_13  and  C_19
REMARK    9  A    between atoms: C_14  and  C_18
REMARK   10  A    between atoms: C_18  and  C_22
REMARK   11  A    between atoms: C_20  and  C_21
REMARK   12  A    between atoms: C_28  and  C_29
REMARK   13  A    between atoms: C_29  and  C_30
REMARK                            x       y       z     vdW  Elec       q    Type
REMARK                         _______ _______ _______ _____ _____    ______ ____
ROOT
ATOM      6  C   UNL     1      13.678   8.541   5.489  0.00  0.00    -0.010 C 
ATOM      7  C   UNL     1      14.495   9.864   5.677  0.00  0.00    +0.005 C 
ATOM      8  C   UNL     1      13.483  11.026   5.323  0.00  0.00    -0.030 C 
ATOM      9  C   UNL     1      12.839   8.906   4.242  0.00  0.00    +0.061 C 
ATOM     10  C   UNL     1      12.341  10.330   4.533  0.00  0.00    +0.026 C 
ATOM     11  C   UNL     1      14.553   7.278   5.313  0.00  0.00    +0.011 C 
ATOM     12  C   UNL     1      15.779   9.911   4.813  0.00  0.00    +0.039 C 
ATOM     13  C   UNL     1      16.628   8.641   4.882  0.00  0.00    +0.064 C 
ATOM     15  C   UNL     1      15.781   7.450   4.430  0.00  0.00    +0.035 C 
ATOM     16  C   UNL     1      12.941  11.678   6.613  0.00  0.00    +0.011 C 
ATOM     17  C   UNL     1      14.064  12.178   4.477  0.00  0.00    +0.011 C 
ATOM     19  C   UNL     1      17.873   8.781   4.005  0.00  0.00    +0.041 C 
ENDROOT
BRANCH  13   1
ATOM      1  O   UNL     1      17.059   8.453   6.230  0.00  0.00    -0.389 OA
ATOM     39  H   UNL     1      16.269   8.327   6.784  0.00  0.00    +0.210 HD
ENDBRANCH  13   1
BRANCH   9   3
ATOM      3  N   UNL     1      11.740   8.000   3.939  0.00  0.00    -0.312 NA
ATOM     38  H   UNL     1      11.708   7.243   4.620  0.00  0.00    +0.122 HD
BRANCH   3  20
ATOM     20  C   UNL     1      11.924   7.429   2.607  0.00  0.00    +0.084 C 
BRANCH  20  21
ATOM     21  C   UNL     1      12.383   5.975   2.687  0.00  0.00    +0.003 C 
ATOM     23  C   UNL     1      11.206   5.021   2.441  0.00  0.00    +0.005 C 
ATOM     24  C   UNL     1      13.519   5.710   1.690  0.00  0.00    +0.005 C 
ATOM     25  C   UNL     1      11.651   3.560   2.463  0.00  0.00    +0.000 C 
ATOM     26  C   UNL     1      13.959   4.248   1.714  0.00  0.00    +0.000 C 
ATOM     27  C   UNL     1      12.786   3.302   1.477  0.00  0.00    +0.000 C 
ENDBRANCH  20  21
ENDBRANCH   3  20
ENDBRANCH   9   3
BRANCH   6  14
ATOM     14  C   UNL     1      12.771   8.250   6.715  0.00  0.00    +0.018 C 
BRANCH  14  18
ATOM     18  C   UNL     1      13.043   6.861   7.255  0.00  0.00    +0.096 C 
BRANCH  18  22
ATOM      2  O   UNL     1      11.297   5.632   8.398  0.00  0.00    -0.276 OA
ATOM      4  N   UNL     1      11.213   5.828   6.086  0.00  0.00    -0.315 N 
ATOM     22  C   UNL     1      11.766   6.044   7.340  0.00  0.00    +0.213 C 
ATOM     40  H   UNL     1      11.653   6.237   5.266  0.00  0.00    +0.149 HD
BRANCH   4  28
ATOM     28  C   UNL     1       9.995   5.075   5.899  0.00  0.00    +0.109 C 
BRANCH  28  29
ATOM     29  C   UNL     1       8.754   5.855   6.325  0.00  0.00    +0.056 C 
BRANCH  29  30
ATOM      5  N   UNL     1       8.511   8.982   4.396  0.00  0.00    -0.360 N 
ATOM     30  C   UNL     1       8.727   7.263   5.782  0.00  0.00    -0.021 A 
ATOM     31  C   UNL     1       9.004   8.456   6.507  0.00  0.00    +0.003 A 
ATOM     32  C   UNL     1       8.427   7.619   4.488  0.00  0.00    +0.087 A 
ATOM     33  C   UNL     1       8.862   9.520   5.615  0.00  0.00    +0.047 A 
ATOM     34  C   UNL     1       9.363   8.733   7.841  0.00  0.00    +0.010 A 
ATOM     35  C   UNL     1       9.061  10.853   5.991  0.00  0.00    +0.026 A 
ATOM     36  C   UNL     1       9.567  10.061   8.232  0.00  0.00    +0.001 A 
ATOM     37  C   UNL     1       9.417  11.103   7.319  0.00  0.00    +0.002 A 
ATOM     41  H   UNL     1       8.341   9.518   3.556  0.00  0.00    +0.165 HD
ENDBRANCH  29  30
ENDBRANCH  28  29
ENDBRANCH   4  28
ENDBRANCH  18  22
ENDBRANCH  14  18
ENDBRANCH   6  14
TORSDOF 10
ENDMDL
MODEL 4
REMARK VINA RESULT:      -6.3     25.073     28.356
REMARK  Name = 25339565
REMARK  13 active torsions:
REMARK  status: ('A' for Active; 'I' for Inactive)
REMARK    1  A    between atoms: O_1  and  C_13
REMARK    2  A    between atoms: N_3  and  C_9
REMARK    3  A    between atoms: N_3  and  C_20
REMARK    4  A    between atoms: N_4  and  C_28
REMARK    5  A    between atoms: C_6  and  C_14
REMARK    6  A    between atoms: C_8  and  C_16
REMARK    7  A    between atoms: C_8  and  C_17
REMARK    8  A    between atoms: C_13  and  C_19
REMARK    9  A    between atoms: C_14  and  C_18
REMARK   10  A    between atoms: C_18  and  C_22
REMARK   11  A    between atoms: C_20  and  C_21
REMARK   12  A    between atoms: C_28  and  C_29
REMARK   13  A    between atoms: C_29  and  C_30
REMARK                            x       y       z     vdW  Elec       q    Type
REMARK                         _______ _______ _______ _____ _____    ______ ____
ROOT
ATOM      6  C   UNL     1      12.589   5.584   1.423  0.00  0.00    -0.010 C 
ATOM      7  C   UNL     1      12.008   5.927   0.009  0.00  0.00    +0.005 C 
ATOM      8  C   UNL     1      10.710   6.781   0.294  0.00  0.00    -0.030 C 
ATOM      9  C   UNL     1      11.280   5.339   2.209  0.00  0.00    +0.061 C 
ATOM     10  C   UNL     1      10.366   6.497   1.782  0.00  0.00    +0.026 C 
ATOM     11  C   UNL     1      13.564   4.384   1.432  0.00  0.00    +0.011 C 
ATOM     12  C   UNL     1      11.716   4.670  -0.847  0.00  0.00    +0.039 C 
ATOM     13  C   UNL     1      12.855   3.650  -0.873  0.00  0.00    +0.064 C 
ATOM     15  C   UNL     1      13.158   3.204   0.559  0.00  0.00    +0.035 C 
ATOM     16  C   UNL     1      10.995   8.282   0.072  0.00  0.00    +0.011 C 
ATOM     17  C   UNL     1       9.488   6.447  -0.587  0.00  0.00    +0.011 C 
ATOM     19  C   UNL     1      12.480   2.449  -1.743  0.00  0.00    +0.041 C 
ENDROOT
BRANCH  13   1
ATOM      1  O   UNL     1      14.007   4.267  -1.448  0.00  0.00    -0.389 OA
ATOM     39  H   UNL     1      13.836   5.223  -1.512  0.00  0.00    +0.210 HD
ENDBRANCH  13   1
BRANCH   9   3
ATOM      3  N   UNL     1      11.423   5.269   3.656  0.00  0.00    -0.312 NA
ATOM     38  H   UNL     1      11.982   4.459   3.919  0.00  0.00    +0.122 HD
BRANCH   3  20
ATOM     20  C   UNL     1      10.105   5.154   4.278  0.00  0.00    +0.084 C 
BRANCH  20  21
ATOM     21  C   UNL     1       9.892   6.244   5.326  0.00  0.00    +0.003 C 
ATOM     23  C   UNL     1       8.395   6.455   5.591  0.00  0.00    +0.005 C 
ATOM     24  C   UNL     1      10.634   5.899   6.625  0.00  0.00    +0.005 C 
ATOM     25  C   UNL     1       8.157   7.504   6.676  0.00  0.00    +0.000 C 
ATOM     26  C   UNL     1      10.391   6.949   7.707  0.00  0.00    +0.000 C 
ATOM     27  C   UNL     1       8.903   7.162   7.962  0.00  0.00    +0.000 C 
ENDBRANCH  20  21
ENDBRANCH   3  20
ENDBRANCH   9   3
BRANCH   6  14
ATOM     14  C   UNL     1      13.390   6.774   2.015  0.00  0.00    +0.018 C 
BRANCH  14  18
ATOM     18  C   UNL     1      14.738   6.303   2.522  0.00  0.00    +0.096 C 
BRANCH  18  22
ATOM      2  O   UNL     1      16.169   7.268   4.219  0.00  0.00    -0.276 OA
ATOM      4  N   UNL     1      13.920   6.940   4.691  0.00  0.00    -0.315 N 
ATOM     22  C   UNL     1      15.049   6.890   3.887  0.00  0.00    +0.213 C 
ATOM     40  H   UNL     1      13.025   6.636   4.320  0.00  0.00    +0.149 HD
BRANCH   4  28
ATOM     28  C   UNL     1      13.956   7.457   6.039  0.00  0.00    +0.109 C 
BRANCH  28  29
ATOM     29  C   UNL     1      13.996   8.982   6.081  0.00  0.00    +0.056 C 
BRANCH  29  30
ATOM      5  N   UNL     1      10.994  10.598   7.475  0.00  0.00    -0.360 N 
ATOM     30  C   UNL     1      12.654   9.598   6.391  0.00  0.00    -0.021 A 
ATOM     31  C   UNL     1      11.549   9.717   5.502  0.00  0.00    +0.003 A 
ATOM     32  C   UNL     1      12.282  10.149   7.596  0.00  0.00    +0.087 A 
ATOM     33  C   UNL     1      10.522  10.347   6.206  0.00  0.00    +0.047 A 
ATOM     34  C   UNL     1      11.325   9.347   4.161  0.00  0.00    +0.010 A 
ATOM     35  C   UNL     1       9.275  10.627   5.634  0.00  0.00    +0.026 A 
ATOM     36  C   UNL     1      10.084   9.621   3.575  0.00  0.00    +0.001 A 
ATOM     37  C   UNL     1       9.076  10.252   4.303  0.00  0.00    +0.002 A 
ATOM     41  H   UNL     1      10.466  11.048   8.209  0.00  0.00    +0.165 HD
ENDBRANCH  29  30
ENDBRANCH  28  29
ENDBRANCH   4  28
ENDBRANCH  18  22
ENDBRANCH  14  18
ENDBRANCH   6  14
TORSDOF 10
ENDMDL
MODEL 5
REMARK VINA RESULT:      -6.3     24.658     28.618
REMARK  Name = 25339565
REMARK  13 active torsions:
REMARK  status: ('A' for Active; 'I' for Inactive)
REMARK    1  A    between atoms: O_1  and  C_13
REMARK    2  A    between atoms: N_3  and  C_9
REMARK    3  A    between atoms: N_3  and  C_20
REMARK    4  A    between atoms: N_4  and  C_28
REMARK    5  A    between atoms: C_6  and  C_14
REMARK    6  A    between atoms: C_8  and  C_16
REMARK    7  A    between atoms: C_8  and  C_17
REMARK    8  A    between atoms: C_13  and  C_19
REMARK    9  A    between atoms: C_14  and  C_18
REMARK   10  A    between atoms: C_18  and  C_22
REMARK   11  A    between atoms: C_20  and  C_21
REMARK   12  A    between atoms: C_28  and  C_29
REMARK   13  A    between atoms: C_29  and  C_30
REMARK                            x       y       z     vdW  Elec       q    Type
REMARK                         _______ _______ _______ _____ _____    ______ ____
ROOT
ATOM      6  C   UNL     1      14.012   8.217   5.065  0.00  0.00    -0.010 C 
ATOM      7  C   UNL     1      13.633   9.714   4.798  0.00  0.00    +0.005 C 
ATOM      8  C   UNL     1      13.010   9.728   3.346  0.00  0.00    -0.030 C 
ATOM      9  C   UNL     1      14.518   7.805   3.662  0.00  0.00    +0.061 C 
ATOM     10  C   UNL     1      13.474   8.393   2.702  0.00  0.00    +0.026 C 
ATOM     11  C   UNL     1      15.051   8.019   6.193  0.00  0.00    +0.011 C 
ATOM     12  C   UNL     1      14.838  10.677   4.937  0.00  0.00    +0.039 C 
ATOM     13  C   UNL     1      15.672  10.462   6.201  0.00  0.00    +0.064 C 
ATOM     15  C   UNL     1      16.195   9.025   6.214  0.00  0.00    +0.035 C 
ATOM     16  C   UNL     1      11.470   9.795   3.424  0.00  0.00    +0.011 C 
ATOM     17  C   UNL     1      13.441  10.907   2.450  0.00  0.00    +0.011 C 
ATOM     19  C   UNL     1      16.832  11.458   6.254  0.00  0.00    +0.041 C 
ENDROOT
BRANCH  13   1
ATOM      1  O   UNL     1      14.842  10.692   7.339  0.00  0.00    -0.389 OA
ATOM     39  H   UNL     1      15.276  10.292   8.113  0.00  0.00    +0.210 HD
ENDBRANCH  13   1
BRANCH   9   3
ATOM      3  N   UNL     1      14.696   6.374   3.457  0.00  0.00    -0.312 NA
ATOM     38  H   UNL     1      15.465   6.027   4.027  0.00  0.00    +0.122 HD
BRANCH   3  20
ATOM     20  C   UNL     1      14.993   6.110   2.051  0.00  0.00    +0.084 C 
BRANCH  20  21
ATOM     21  C   UNL     1      13.894   5.270   1.402  0.00  0.00    +0.003 C 
ATOM     23  C   UNL     1      13.815   5.554  -0.104  0.00  0.00    +0.005 C 
ATOM     24  C   UNL     1      14.127   3.777   1.666  0.00  0.00    +0.005 C 
ATOM     25  C   UNL     1      12.758   4.686  -0.785  0.00  0.00    +0.000 C 
ATOM     26  C   UNL     1      13.070   2.913   0.981  0.00  0.00    +0.000 C 
ATOM     27  C   UNL     1      12.988   3.203  -0.514  0.00  0.00    +0.000 C 
ENDBRANCH  20  21
ENDBRANCH   3  20
ENDBRANCH   9   3
BRANCH   6  14
ATOM     14  C   UNL     1      12.775   7.382   5.488  0.00  0.00    +0.018 C 
BRANCH  14  18
ATOM     18  C   UNL     1      12.903   6.943   6.932  0.00  0.00    +0.096 C 
BRANCH  18  22
ATOM      2  O   UNL     1      11.289   5.709   8.250  0.00  0.00    -0.276 OA
ATOM      4  N   UNL     1      10.639   7.693   7.236  0.00  0.00    -0.315 N 
ATOM     22  C   UNL     1      11.542   6.689   7.554  0.00  0.00    +0.213 C 
ATOM     40  H   UNL     1      10.946   8.487   6.681  0.00  0.00    +0.149 HD
BRANCH   4  28
ATOM     28  C   UNL     1       9.274   7.682   7.707  0.00  0.00    +0.109 C 
BRANCH  28  29
ATOM     29  C   UNL     1       8.357   6.840   6.824  0.00  0.00    +0.056 C 
BRANCH  29  30
ATOM      5  N   UNL     1       8.365   8.095   3.362  0.00  0.00    -0.360 N 
ATOM     30  C   UNL     1       8.529   7.128   5.353  0.00  0.00    -0.021 A 
ATOM     31  C   UNL     1       9.290   6.365   4.423  0.00  0.00    +0.003 A 
ATOM     32  C   UNL     1       7.973   8.185   4.671  0.00  0.00    +0.087 A 
ATOM     33  C   UNL     1       9.170   6.993   3.182  0.00  0.00    +0.047 A 
ATOM     34  C   UNL     1      10.071   5.196   4.520  0.00  0.00    +0.010 A 
ATOM     35  C   UNL     1       9.795   6.508   2.027  0.00  0.00    +0.026 A 
ATOM     36  C   UNL     1      10.702   4.700   3.373  0.00  0.00    +0.001 A 
ATOM     37  C   UNL     1      10.564   5.348   2.147  0.00  0.00    +0.002 A 
ATOM     41  H   UNL     1       8.102   8.743   2.632  0.00  0.00    +0.165 HD
ENDBRANCH  29  30
ENDBRANCH  28  29
ENDBRANCH   4  28
ENDBRANCH  18  22
ENDBRANCH  14  18
ENDBRANCH   6  14
TORSDOF 10
ENDMDL
MODEL 6
REMARK VINA RESULT:      -6.3      2.369      4.668
REMARK  Name = 25339565
REMARK  13 active torsions:
REMARK  status: ('A' for Active; 'I' for Inactive)
REMARK    1  A    between atoms: O_1  and  C_13
REMARK    2  A    between atoms: N_3  and  C_9
REMARK    3  A    between atoms: N_3  and  C_20
REMARK    4  A    between atoms: N_4  and  C_28
REMARK    5  A    between atoms: C_6  and  C_14
REMARK    6  A    between atoms: C_8  and  C_16
REMARK    7  A    between atoms: C_8  and  C_17
REMARK    8  A    between atoms: C_13  and  C_19
REMARK    9  A    between atoms: C_14  and  C_18
REMARK   10  A    between atoms: C_18  and  C_22
REMARK   11  A    between atoms: C_20  and  C_21
REMARK   12  A    between atoms: C_28  and  C_29
REMARK   13  A    between atoms: C_29  and  C_30
REMARK                            x       y       z     vdW  Elec       q    Type
REMARK                         _______ _______ _______ _____ _____    ______ ____
ROOT
ATOM      6  C   UNL     1      -6.347 -11.167  15.935  0.00  0.00    -0.010 C 
ATOM      7  C   UNL     1      -5.580 -11.716  17.186  0.00  0.00    +0.005 C 
ATOM      8  C   UNL     1      -6.466 -11.301  18.427  0.00  0.00    -0.030 C 
ATOM      9  C   UNL     1      -6.866  -9.822  16.497  0.00  0.00    +0.061 C 
ATOM     10  C   UNL     1      -7.400 -10.182  17.891  0.00  0.00    +0.026 C 
ATOM     11  C   UNL     1      -5.472 -11.025  14.669  0.00  0.00    +0.011 C 
ATOM     12  C   UNL     1      -4.129 -11.186  17.288  0.00  0.00    +0.039 C 
ATOM     13  C   UNL     1      -3.336 -11.273  15.983  0.00  0.00    +0.064 C 
ATOM     15  C   UNL     1      -4.069 -10.481  14.899  0.00  0.00    +0.035 C 
ATOM     16  C   UNL     1      -7.286 -12.508  18.929  0.00  0.00    +0.011 C 
ATOM     17  C   UNL     1      -5.689 -10.777  19.652  0.00  0.00    +0.011 C 
ATOM     19  C   UNL     1      -1.918 -10.733  16.180  0.00  0.00    +0.041 C 
ENDROOT
BRANCH  13   1
ATOM      1  O   UNL     1      -3.234 -12.645  15.602  0.00  0.00    -0.389 OA
ATOM     39  H   UNL     1      -4.063 -13.090  15.852  0.00  0.00    +0.210 HD
ENDBRANCH  13   1
BRANCH   9   3
ATOM      3  N   UNL     1      -7.876  -9.154  15.687  0.00  0.00    -0.312 NA
ATOM     38  H   UNL     1      -7.486  -8.318  15.253  0.00  0.00    +0.122 HD
BRANCH   3  20
ATOM     20  C   UNL     1      -9.006  -8.766  16.528  0.00  0.00    +0.084 C 
BRANCH  20  21
ATOM     21  C   UNL     1      -9.956  -7.832  15.781  0.00  0.00    +0.003 C 
ATOM     23  C   UNL     1     -10.862  -8.628  14.832  0.00  0.00    +0.005 C 
ATOM     24  C   UNL     1     -10.790  -7.004  16.768  0.00  0.00    +0.005 C 
ATOM     25  C   UNL     1     -11.859  -7.721  14.112  0.00  0.00    +0.000 C 
ATOM     26  C   UNL     1     -11.785  -6.101  16.044  0.00  0.00    +0.000 C 
ATOM     27  C   UNL     1     -12.679  -6.894  15.096  0.00  0.00    +0.000 C 
ENDBRANCH  20  21
ENDBRANCH   3  20
ENDBRANCH   9   3
BRANCH   6  14
ATOM     14  C   UNL     1      -7.519 -12.099  15.529  0.00  0.00    +0.018 C 
BRANCH  14  18
ATOM     18  C   UNL     1      -7.127 -13.551  15.714  0.00  0.00    +0.096 C 
BRANCH  18  22
ATOM      2  O   UNL     1      -7.725 -14.590  13.610  0.00  0.00    -0.276 OA
ATOM      4  N   UNL     1      -5.481 -14.355  14.158  0.00  0.00    -0.315 N 
ATOM     22  C   UNL     1      -6.843 -14.220  14.381  0.00  0.00    +0.213 C 
ATOM     40  H   UNL     1      -4.821 -13.988  14.837  0.00  0.00    +0.149 HD
BRANCH   4  28
ATOM     28  C   UNL     1      -4.953 -14.963  12.959  0.00  0.00    +0.109 C 
BRANCH  28  29
ATOM     29  C   UNL     1      -4.736 -13.952  11.836  0.00  0.00    +0.056 C 
BRANCH  29  30
ATOM      5  N   UNL     1      -1.556 -12.345  12.769  0.00  0.00    -0.360 N 
ATOM     30  C   UNL     1      -3.528 -13.074  12.058  0.00  0.00    -0.021 A 
ATOM     31  C   UNL     1      -3.319 -11.771  11.528  0.00  0.00    +0.003 A 
ATOM     32  C   UNL     1      -2.428 -13.400  12.817  0.00  0.00    +0.087 A 
ATOM     33  C   UNL     1      -2.075 -11.336  11.989  0.00  0.00    +0.047 A 
ATOM     34  C   UNL     1      -4.071 -10.916  10.697  0.00  0.00    +0.010 A 
ATOM     35  C   UNL     1      -1.543 -10.084  11.659  0.00  0.00    +0.026 A 
ATOM     36  C   UNL     1      -3.552  -9.661  10.359  0.00  0.00    +0.001 A 
ATOM     37  C   UNL     1      -2.307  -9.254  10.834  0.00  0.00    +0.002 A 
ATOM     41  H   UNL     1      -0.662 -12.310  13.238  0.00  0.00    +0.165 HD
ENDBRANCH  29  30
ENDBRANCH  28  29
ENDBRANCH   4  28
ENDBRANCH  18  22
ENDBRANCH  14  18
ENDBRANCH   6  14
TORSDOF 10
ENDMDL
MODEL 7
REMARK VINA RESULT:      -6.1     25.124     28.799
REMARK  Name = 25339565
REMARK  13 active torsions:
REMARK  status: ('A' for Active; 'I' for Inactive)
REMARK    1  A    between atoms: O_1  and  C_13
REMARK    2  A    between atoms: N_3  and  C_9
REMARK    3  A    between atoms: N_3  and  C_20
REMARK    4  A    between atoms: N_4  and  C_28
REMARK    5  A    between atoms: C_6  and  C_14
REMARK    6  A    between atoms: C_8  and  C_16
REMARK    7  A    between atoms: C_8  and  C_17
REMARK    8  A    between atoms: C_13  and  C_19
REMARK    9  A    between atoms: C_14  and  C_18
REMARK   10  A    between atoms: C_18  and  C_22
REMARK   11  A    between atoms: C_20  and  C_21
REMARK   12  A    between atoms: C_28  and  C_29
REMARK   13  A    between atoms: C_29  and  C_30
REMARK                            x       y       z     vdW  Elec       q    Type
REMARK                         _______ _______ _______ _____ _____    ______ ____
ROOT
ATOM      6  C   UNL     1      14.090   8.105   4.318  0.00  0.00    -0.010 C 
ATOM      7  C   UNL     1      14.845   9.475   4.401  0.00  0.00    +0.005 C 
ATOM      8  C   UNL     1      15.729   9.379   5.707  0.00  0.00    -0.030 C 
ATOM      9  C   UNL     1      13.791   7.861   5.816  0.00  0.00    +0.061 C 
ATOM     10  C   UNL     1      15.111   8.210   6.520  0.00  0.00    +0.026 C 
ATOM     11  C   UNL     1      12.832   8.129   3.419  0.00  0.00    +0.011 C 
ATOM     12  C   UNL     1      13.888  10.693   4.420  0.00  0.00    +0.039 C 
ATOM     13  C   UNL     1      12.795  10.648   3.352  0.00  0.00    +0.064 C 
ATOM     15  C   UNL     1      11.966   9.376   3.539  0.00  0.00    +0.035 C 
ATOM     16  C   UNL     1      17.198   9.077   5.339  0.00  0.00    +0.011 C 
ATOM     17  C   UNL     1      15.764  10.650   6.580  0.00  0.00    +0.011 C 
ATOM     19  C   UNL     1      11.904  11.889   3.443  0.00  0.00    +0.041 C 
ENDROOT
BRANCH  13   1
ATOM      1  O   UNL     1      13.413  10.645   2.065  0.00  0.00    -0.389 OA
ATOM     39  H   UNL     1      14.004  11.417   2.013  0.00  0.00    +0.210 HD
ENDBRANCH  13   1
BRANCH   9   3
ATOM      3  N   UNL     1      13.337   6.519   6.153  0.00  0.00    -0.312 NA
ATOM     38  H   UNL     1      13.041   6.024   5.313  0.00  0.00    +0.122 HD
BRANCH   3  20
ATOM     20  C   UNL     1      12.207   6.598   7.077  0.00  0.00    +0.084 C 
BRANCH  20  21
ATOM     21  C   UNL     1      10.917   6.960   6.344  0.00  0.00    +0.003 C 
ATOM     23  C   UNL     1      10.617   5.937   5.240  0.00  0.00    +0.005 C 
ATOM     24  C   UNL     1       9.745   7.062   7.328  0.00  0.00    +0.005 C 
ATOM     25  C   UNL     1       9.302   6.247   4.526  0.00  0.00    +0.000 C 
ATOM     26  C   UNL     1       8.433   7.370   6.611  0.00  0.00    +0.000 C 
ATOM     27  C   UNL     1       8.141   6.356   5.509  0.00  0.00    +0.000 C 
ENDBRANCH  20  21
ENDBRANCH   3  20
ENDBRANCH   9   3
BRANCH   6  14
ATOM     14  C   UNL     1      14.997   6.989   3.733  0.00  0.00    +0.018 C 
BRANCH  14  18
ATOM     18  C   UNL     1      15.317   7.276   2.281  0.00  0.00    +0.096 C 
BRANCH  18  22
ATOM      2  O   UNL     1      15.055   6.079   0.192  0.00  0.00    -0.276 OA
ATOM      4  N   UNL     1      15.014   4.892   2.187  0.00  0.00    -0.315 N 
ATOM     22  C   UNL     1      15.117   6.042   1.418  0.00  0.00    +0.213 C 
ATOM     40  H   UNL     1      15.111   4.952   3.196  0.00  0.00    +0.149 HD
BRANCH   4  28
ATOM     28  C   UNL     1      14.819   3.587   1.600  0.00  0.00    +0.109 C 
BRANCH  28  29
ATOM     29  C   UNL     1      13.355   3.153   1.612  0.00  0.00    +0.056 C 
BRANCH  29  30
ATOM      5  N   UNL     1      11.838   3.785  -1.683  0.00  0.00    -0.360 N 
ATOM     30  C   UNL     1      12.592   3.621   0.398  0.00  0.00    -0.021 A 
ATOM     31  C   UNL     1      11.650   4.688   0.349  0.00  0.00    +0.003 A 
ATOM     32  C   UNL     1      12.685   3.086  -0.865  0.00  0.00    +0.087 A 
ATOM     33  C   UNL     1      11.193   4.770  -0.967  0.00  0.00    +0.047 A 
ATOM     34  C   UNL     1      11.143   5.594   1.301  0.00  0.00    +0.010 A 
ATOM     35  C   UNL     1      10.249   5.716  -1.382  0.00  0.00    +0.026 A 
ATOM     36  C   UNL     1      10.198   6.546   0.901  0.00  0.00    +0.001 A 
ATOM     37  C   UNL     1       9.759   6.604  -0.420  0.00  0.00    +0.002 A 
ATOM     41  H   UNL     1      11.704   3.606  -2.669  0.00  0.00    +0.165 HD
ENDBRANCH  29  30
ENDBRANCH  28  29
ENDBRANCH   4  28
ENDBRANCH  18  22
ENDBRANCH  14  18
ENDBRANCH   6  14
TORSDOF 10
ENDMDL
MODEL 8
REMARK VINA RESULT:      -6.1      2.231      7.408
REMARK  Name = 25339565
REMARK  13 active torsions:
REMARK  status: ('A' for Active; 'I' for Inactive)
REMARK    1  A    between atoms: O_1  and  C_13
REMARK    2  A    between atoms: N_3  and  C_9
REMARK    3  A    between atoms: N_3  and  C_20
REMARK    4  A    between atoms: N_4  and  C_28
REMARK    5  A    between atoms: C_6  and  C_14
REMARK    6  A    between atoms: C_8  and  C_16
REMARK    7  A    between atoms: C_8  and  C_17
REMARK    8  A    between atoms: C_13  and  C_19
REMARK    9  A    between atoms: C_14  and  C_18
REMARK   10  A    between atoms: C_18  and  C_22
REMARK   11  A    between atoms: C_20  and  C_21
REMARK   12  A    between atoms: C_28  and  C_29
REMARK   13  A    between atoms: C_29  and  C_30
REMARK                            x       y       z     vdW  Elec       q    Type
REMARK                         _______ _______ _______ _____ _____    ______ ____
ROOT
ATOM      6  C   UNL     1      -3.972 -11.453  12.519  0.00  0.00    -0.010 C 
ATOM      7  C   UNL     1      -3.433 -11.489  11.048  0.00  0.00    +0.005 C 
ATOM      8  C   UNL     1      -3.836 -10.093  10.428  0.00  0.00    -0.030 C 
ATOM      9  C   UNL     1      -5.309 -10.705  12.307  0.00  0.00    +0.061 C 
ATOM     10  C   UNL     1      -4.942  -9.544  11.370  0.00  0.00    +0.026 C 
ATOM     11  C   UNL     1      -4.126 -12.846  13.171  0.00  0.00    +0.011 C 
ATOM     12  C   UNL     1      -3.985 -12.684  10.231  0.00  0.00    +0.039 C 
ATOM     13  C   UNL     1      -3.908 -14.028  10.956  0.00  0.00    +0.064 C 
ATOM     15  C   UNL     1      -4.691 -13.934  12.267  0.00  0.00    +0.035 C 
ATOM     16  C   UNL     1      -2.618  -9.146  10.400  0.00  0.00    +0.011 C 
ATOM     17  C   UNL     1      -4.371 -10.138   8.982  0.00  0.00    +0.011 C 
ATOM     19  C   UNL     1      -4.469 -15.145  10.073  0.00  0.00    +0.041 C 
ENDROOT
BRANCH  13   1
ATOM      1  O   UNL     1      -2.538 -14.325  11.223  0.00  0.00    -0.389 OA
ATOM     39  H   UNL     1      -2.432 -14.417  12.186  0.00  0.00    +0.210 HD
ENDBRANCH  13   1
BRANCH   9   3
ATOM      3  N   UNL     1      -5.963 -10.235  13.520  0.00  0.00    -0.312 NA
ATOM     38  H   UNL     1      -5.361 -10.384  14.328  0.00  0.00    +0.122 HD
BRANCH   3  20
ATOM     20  C   UNL     1      -7.213 -10.964  13.722  0.00  0.00    +0.084 C 
BRANCH  20  21
ATOM     21  C   UNL     1      -7.770 -10.729  15.125  0.00  0.00    +0.003 C 
ATOM     23  C   UNL     1      -6.938  -9.674  15.867  0.00  0.00    +0.005 C 
ATOM     24  C   UNL     1      -9.246 -10.316  15.060  0.00  0.00    +0.005 C 
ATOM     25  C   UNL     1      -7.507  -9.383  17.255  0.00  0.00    +0.000 C 
ATOM     26  C   UNL     1      -9.810 -10.023  16.449  0.00  0.00    +0.000 C 
ATOM     27  C   UNL     1      -8.977  -8.981  17.187  0.00  0.00    +0.000 C 
ENDBRANCH  20  21
ENDBRANCH   3  20
ENDBRANCH   9   3
BRANCH   6  14
ATOM     14  C   UNL     1      -3.022 -10.659  13.455  0.00  0.00    +0.018 C 
BRANCH  14  18
ATOM     18  C   UNL     1      -2.310 -11.599  14.405  0.00  0.00    +0.096 C 
BRANCH  18  22
ATOM      2  O   UNL     1      -1.443 -10.558  16.412  0.00  0.00    -0.276 OA
ATOM      4  N   UNL     1      -3.633 -11.329  16.394  0.00  0.00    -0.315 N 
ATOM     22  C   UNL     1      -2.384 -11.098  15.836  0.00  0.00    +0.213 C 
ATOM     40  H   UNL     1      -4.364 -11.752  15.831  0.00  0.00    +0.149 HD
BRANCH   4  28
ATOM     28  C   UNL     1      -3.956 -10.944  17.748  0.00  0.00    +0.109 C 
BRANCH  28  29
ATOM     29  C   UNL     1      -4.352 -12.136  18.617  0.00  0.00    +0.056 C 
BRANCH  29  30
ATOM      5  N   UNL     1      -7.952 -12.286  19.380  0.00  0.00    -0.360 N 
ATOM     30  C   UNL     1      -5.845 -12.345  18.684  0.00  0.00    -0.021 A 
ATOM     31  C   UNL     1      -6.647 -13.039  17.735  0.00  0.00    +0.003 A 
ATOM     32  C   UNL     1      -6.675 -11.893  19.683  0.00  0.00    +0.087 A 
ATOM     33  C   UNL     1      -7.963 -12.987  18.195  0.00  0.00    +0.047 A 
ATOM     34  C   UNL     1      -6.377 -13.709  16.524  0.00  0.00    +0.010 A 
ATOM     35  C   UNL     1      -9.029 -13.574  17.502  0.00  0.00    +0.026 A 
ATOM     36  C   UNL     1      -7.432 -14.300  15.821  0.00  0.00    +0.001 A 
ATOM     37  C   UNL     1      -8.738 -14.231  16.305  0.00  0.00    +0.002 A 
ATOM     41  H   UNL     1      -8.767 -12.090  19.943  0.00  0.00    +0.165 HD
ENDBRANCH  29  30
ENDBRANCH  28  29
ENDBRANCH   4  28
ENDBRANCH  18  22
ENDBRANCH  14  18
ENDBRANCH   6  14
TORSDOF 10
ENDMDL
MODEL 9
REMARK VINA RESULT:      -6.1     19.446     22.073
REMARK  Name = 25339565
REMARK  13 active torsions:
REMARK  status: ('A' for Active; 'I' for Inactive)
REMARK    1  A    between atoms: O_1  and  C_13
REMARK    2  A    between atoms: N_3  and  C_9
REMARK    3  A    between atoms: N_3  and  C_20
REMARK    4  A    between atoms: N_4  and  C_28
REMARK    5  A    between atoms: C_6  and  C_14
REMARK    6  A    between atoms: C_8  and  C_16
REMARK    7  A    between atoms: C_8  and  C_17
REMARK    8  A    between atoms: C_13  and  C_19
REMARK    9  A    between atoms: C_14  and  C_18
REMARK   10  A    between atoms: C_18  and  C_22
REMARK   11  A    between atoms: C_20  and  C_21
REMARK   12  A    between atoms: C_28  and  C_29
REMARK   13  A    between atoms: C_29  and  C_30
REMARK                            x       y       z     vdW  Elec       q    Type
REMARK                         _______ _______ _______ _____ _____    ______ ____
ROOT
ATOM      6  C   UNL     1     -15.277   6.674  21.719  0.00  0.00    -0.010 C 
ATOM      7  C   UNL     1     -16.831   6.548  21.873  0.00  0.00    +0.005 C 
ATOM      8  C   UNL     1     -17.362   6.214  20.423  0.00  0.00    -0.030 C 
ATOM      9  C   UNL     1     -15.190   7.375  20.343  0.00  0.00    +0.061 C 
ATOM     10  C   UNL     1     -16.200   6.613  19.473  0.00  0.00    +0.026 C 
ATOM     11  C   UNL     1     -14.589   7.449  22.866  0.00  0.00    +0.011 C 
ATOM     12  C   UNL     1     -17.485   7.820  22.466  0.00  0.00    +0.039 C 
ATOM     13  C   UNL     1     -16.779   8.369  23.707  0.00  0.00    +0.064 C 
ATOM     15  C   UNL     1     -15.326   8.689  23.353  0.00  0.00    +0.035 C 
ATOM     16  C   UNL     1     -17.679   4.708  20.301  0.00  0.00    +0.011 C 
ATOM     17  C   UNL     1     -18.648   6.953  19.999  0.00  0.00    +0.011 C 
ATOM     19  C   UNL     1     -17.496   9.617  24.224  0.00  0.00    +0.041 C 
ENDROOT
BRANCH  13   1
ATOM      1  O   UNL     1     -16.826   7.378  24.734  0.00  0.00    -0.389 OA
ATOM     39  H   UNL     1     -17.761   7.189  24.927  0.00  0.00    +0.210 HD
ENDBRANCH  13   1
BRANCH   9   3
ATOM      3  N   UNL     1     -13.866   7.401  19.737  0.00  0.00    -0.312 NA
ATOM     38  H   UNL     1     -13.306   6.619  20.073  0.00  0.00    +0.122 HD
BRANCH   3  20
ATOM     20  C   UNL     1     -13.189   8.649  20.082  0.00  0.00    +0.084 C 
BRANCH  20  21
ATOM     21  C   UNL     1     -11.836   8.757  19.381  0.00  0.00    +0.003 C 
ATOM     23  C   UNL     1     -11.839   7.953  18.074  0.00  0.00    +0.005 C 
ATOM     24  C   UNL     1     -11.477  10.225  19.119  0.00  0.00    +0.005 C 
ATOM     25  C   UNL     1     -10.513   8.088  17.327  0.00  0.00    +0.000 C 
ATOM     26  C   UNL     1     -10.152  10.356  18.371  0.00  0.00    +0.000 C 
ATOM     27  C   UNL     1     -10.155   9.549  17.076  0.00  0.00    +0.000 C 
ENDBRANCH  20  21
ENDBRANCH   3  20
ENDBRANCH   9   3
BRANCH   6  14
ATOM     14  C   UNL     1     -14.592   5.282  21.689  0.00  0.00    +0.018 C 
BRANCH  14  18
ATOM     18  C   UNL     1     -14.260   4.826  23.095  0.00  0.00    +0.096 C 
BRANCH  18  22
ATOM      2  O   UNL     1     -15.966   3.107  23.098  0.00  0.00    -0.276 OA
ATOM      4  N   UNL     1     -15.699   4.438  24.982  0.00  0.00    -0.315 N 
ATOM     22  C   UNL     1     -15.397   4.017  23.695  0.00  0.00    +0.213 C 
ATOM     40  H   UNL     1     -15.152   5.179  25.410  0.00  0.00    +0.149 HD
BRANCH   4  28
ATOM     28  C   UNL     1     -16.746   3.827  25.767  0.00  0.00    +0.109 C 
BRANCH  28  29
ATOM     29  C   UNL     1     -16.529   4.001  27.268  0.00  0.00    +0.056 C 
BRANCH  29  30
ATOM      5  N   UNL     1     -16.494   0.554  28.565  0.00  0.00    -0.360 N 
ATOM     30  C   UNL     1     -16.326   2.691  27.990  0.00  0.00    -0.021 A 
ATOM     31  C   UNL     1     -15.470   2.461  29.103  0.00  0.00    +0.003 A 
ATOM     32  C   UNL     1     -16.941   1.500  27.682  0.00  0.00    +0.087 A 
ATOM     33  C   UNL     1     -15.594   1.113  29.444  0.00  0.00    +0.047 A 
ATOM     34  C   UNL     1     -14.598   3.274  29.856  0.00  0.00    +0.010 A 
ATOM     35  C   UNL     1     -14.888   0.534  30.505  0.00  0.00    +0.026 A 
ATOM     36  C   UNL     1     -13.886   2.708  30.919  0.00  0.00    +0.001 A 
ATOM     37  C   UNL     1     -14.029   1.359  31.236  0.00  0.00    +0.002 A 
ATOM     41  H   UNL     1     -16.782  -0.415  28.571  0.00  0.00    +0.165 HD
ENDBRANCH  29  30
ENDBRANCH  28  29
ENDBRANCH   4  28
ENDBRANCH  18  22
ENDBRANCH  14  18
ENDBRANCH   6  14
TORSDOF 10
ENDMDL
MODEL 10
REMARK VINA RESULT:      -6.1     28.667     31.212
REMARK  Name = 25339565
REMARK  13 active torsions:
REMARK  status: ('A' for Active; 'I' for Inactive)
REMARK    1  A    between atoms: O_1  and  C_13
REMARK    2  A    between atoms: N_3  and  C_9
REMARK    3  A    between atoms: N_3  and  C_20
REMARK    4  A    between atoms: N_4  and  C_28
REMARK    5  A    between atoms: C_6  and  C_14
REMARK    6  A    between atoms: C_8  and  C_16
REMARK    7  A    between atoms: C_8  and  C_17
REMARK    8  A    between atoms: C_13  and  C_19
REMARK    9  A    between atoms: C_14  and  C_18
REMARK   10  A    between atoms: C_18  and  C_22
REMARK   11  A    between atoms: C_20  and  C_21
REMARK   12  A    between atoms: C_28  and  C_29
REMARK   13  A    between atoms: C_29  and  C_30
REMARK                            x       y       z     vdW  Elec       q    Type
REMARK                         _______ _______ _______ _____ _____    ______ ____
ROOT
ATOM      6  C   UNL     1      18.412  -4.400  -2.681  0.00  0.00    -0.010 C 
ATOM      7  C   UNL     1      19.191  -4.277  -4.035  0.00  0.00    +0.005 C 
ATOM      8  C   UNL     1      19.954  -5.652  -4.197  0.00  0.00    -0.030 C 
ATOM      9  C   UNL     1      19.449  -5.172  -1.832  0.00  0.00    +0.061 C 
ATOM     10  C   UNL     1      19.953  -6.276  -2.774  0.00  0.00    +0.026 C 
ATOM     11  C   UNL     1      17.982  -3.045  -2.074  0.00  0.00    +0.011 C 
ATOM     12  C   UNL     1      20.147  -3.060  -4.075  0.00  0.00    +0.039 C 
ATOM     13  C   UNL     1      19.515  -1.751  -3.599  0.00  0.00    +0.064 C 
ATOM     15  C   UNL     1      19.016  -1.930  -2.165  0.00  0.00    +0.035 C 
ATOM     16  C   UNL     1      19.211  -6.563  -5.196  0.00  0.00    +0.011 C 
ATOM     17  C   UNL     1      21.404  -5.550  -4.712  0.00  0.00    +0.011 C 
ATOM     19  C   UNL     1      20.528  -0.607  -3.678  0.00  0.00    +0.041 C 
ENDROOT
BRANCH  13   1
ATOM      1  O   UNL     1      18.423  -1.431  -4.462  0.00  0.00    -0.389 OA
ATOM     39  H   UNL     1      18.781  -0.975  -5.244  0.00  0.00    +0.210 HD
ENDBRANCH  13   1
BRANCH   9   3
ATOM      3  N   UNL     1      18.949  -5.718  -0.578  0.00  0.00    -0.312 NA
ATOM     38  H   UNL     1      17.932  -5.672  -0.552  0.00  0.00    +0.122 HD
BRANCH   3  20
ATOM     20  C   UNL     1      19.486  -4.950   0.543  0.00  0.00    +0.084 C 
BRANCH  20  21
ATOM     21  C   UNL     1      20.783  -5.567   1.064  0.00  0.00    +0.003 C 
ATOM     23  C   UNL     1      21.403  -4.682   2.154  0.00  0.00    +0.005 C 
ATOM     24  C   UNL     1      20.537  -6.988   1.587  0.00  0.00    +0.005 C 
ATOM     25  C   UNL     1      22.675  -5.305   2.729  0.00  0.00    +0.000 C 
ATOM     26  C   UNL     1      21.809  -7.605   2.162  0.00  0.00    +0.000 C 
ATOM     27  C   UNL     1      22.427  -6.720   3.240  0.00  0.00    +0.000 C 
ENDBRANCH  20  21
ENDBRANCH   3  20
ENDBRANCH   9   3
BRANCH   6  14
ATOM     14  C   UNL     1      17.101  -5.214  -2.850  0.00  0.00    +0.018 C 
BRANCH  14  18
ATOM     18  C   UNL     1      16.065  -4.398  -3.595  0.00  0.00    +0.096 C 
BRANCH  18  22
ATOM      2  O   UNL     1      13.866  -5.345  -3.233  0.00  0.00    -0.276 OA
ATOM      4  N   UNL     1      15.012  -5.863  -5.184  0.00  0.00    -0.315 N 
ATOM     22  C   UNL     1      14.854  -5.240  -3.955  0.00  0.00    +0.213 C 
ATOM     40  H   UNL     1      15.851  -5.691  -5.730  0.00  0.00    +0.149 HD
BRANCH   4  28
ATOM     28  C   UNL     1      13.998  -6.722  -5.750  0.00  0.00    +0.109 C 
BRANCH  28  29
ATOM     29  C   UNL     1      14.031  -8.131  -5.165  0.00  0.00    +0.056 C 
BRANCH  29  30
ATOM      5  N   UNL     1      16.910  -9.989  -6.516  0.00  0.00    -0.360 N 
ATOM     30  C   UNL     1      15.320  -8.860  -5.455  0.00  0.00    -0.021 A 
ATOM     31  C   UNL     1      16.390  -9.084  -4.544  0.00  0.00    +0.003 A 
ATOM     32  C   UNL     1      15.669  -9.427  -6.659  0.00  0.00    +0.087 A 
ATOM     33  C   UNL     1      17.374  -9.794  -5.234  0.00  0.00    +0.047 A 
ATOM     34  C   UNL     1      16.615  -8.750  -3.193  0.00  0.00    +0.010 A 
ATOM     35  C   UNL     1      18.578 -10.189  -4.639  0.00  0.00    +0.026 A 
ATOM     36  C   UNL     1      17.815  -9.139  -2.585  0.00  0.00    +0.001 A 
ATOM     37  C   UNL     1      18.779  -9.847  -3.300  0.00  0.00    +0.002 A 
ATOM     41  H   UNL     1      17.413 -10.476  -7.244  0.00  0.00    +0.165 HD
ENDBRANCH  29  30
ENDBRANCH  28  29
ENDBRANCH   4  28
ENDBRANCH  18  22
ENDBRANCH  14  18
ENDBRANCH   6  14
TORSDOF 10
ENDMDL
