MODEL 1
REMARK VINA RESULT:      -8.4      0.000      0.000
REMARK  Name = 40778181
REMARK  10 active torsions:
REMARK  status: ('A' for Active; 'I' for Inactive)
REMARK    1  A    between atoms: S_1  and  N_11
REMARK    2  A    between atoms: S_1  and  C_24
REMARK    3  A    between atoms: O_4  and  C_13
REMARK    4  A    between atoms: O_5  and  C_14
REMARK    5  A    between atoms: N_10  and  C_23
REMARK    6  A    between atoms: N_11  and  C_17
REMARK    7  A    between atoms: C_12  and  C_16
REMARK    8  A    between atoms: C_15  and  C_17
REMARK    9  A    between atoms: C_16  and  C_18
REMARK   10  A    between atoms: C_34  and  C_35
REMARK                            x       y       z     vdW  Elec       q    Type
REMARK                         _______ _______ _______ _____ _____    ______ ____
ROOT
ATOM      3  O   UNL     1      10.923   9.039  20.316  0.00  0.00    -0.366 OA
ATOM     12  C   UNL     1      11.493   7.751  20.021  0.00  0.00    +0.158 C 
ATOM     13  C   UNL     1      11.976   7.201  21.353  0.00  0.00    +0.175 C 
ATOM     14  C   UNL     1      10.916   7.725  22.299  0.00  0.00    +0.175 C 
ATOM     15  C   UNL     1      10.644   9.114  21.733  0.00  0.00    +0.165 C 
ENDROOT
BRANCH  13   4
ATOM      4  O   UNL     1      12.067   5.792  21.341  0.00  0.00    -0.387 OA
ATOM     36  H   UNL     1      12.965   5.556  21.632  0.00  0.00    +0.210 HD
ENDBRANCH  13   4
BRANCH  14   5
ATOM      5  O   UNL     1       9.720   6.955  22.179  0.00  0.00    -0.387 OA
ATOM     37  H   UNL     1       9.862   6.121  22.660  0.00  0.00    +0.210 HD
ENDBRANCH  14   5
BRANCH  12  16
ATOM     16  C   UNL     1      12.603   7.906  18.997  0.00  0.00    +0.130 C 
BRANCH  16  18
ATOM      6  O   UNL     1      13.460   9.982  19.768  0.00  0.00    -0.276 OA
ATOM      9  N   UNL     1      14.927   8.181  19.780  0.00  0.00    -0.298 N 
ATOM     10  N   UNL     1      17.459   6.971  20.494  0.00  0.00    -0.327 N 
ATOM     18  C   UNL     1      13.694   8.791  19.551  0.00  0.00    +0.218 C 
ATOM     19  C   UNL     1      16.035   8.971  20.309  0.00  0.00    +0.126 C 
ATOM     20  C   UNL     1      15.199   6.762  19.530  0.00  0.00    +0.126 C 
ATOM     21  C   UNL     1      16.948   8.144  21.211  0.00  0.00    +0.124 C 
ATOM     22  C   UNL     1      16.690   6.469  19.353  0.00  0.00    +0.124 C 
BRANCH  10  23
ATOM      2  F   UNL     1      22.226   4.616  21.982  0.00  0.00    -0.205 F 
ATOM     23  C   UNL     1      18.661   6.377  20.869  0.00  0.00    +0.030 A 
ATOM     25  C   UNL     1      19.210   5.361  20.088  0.00  0.00    +0.026 A 
ATOM     26  C   UNL     1      19.316   6.798  22.027  0.00  0.00    +0.026 A 
ATOM     29  C   UNL     1      20.415   4.766  20.463  0.00  0.00    +0.040 A 
ATOM     30  C   UNL     1      20.521   6.204  22.402  0.00  0.00    +0.040 A 
ATOM     31  C   UNL     1      21.069   5.188  21.620  0.00  0.00    +0.124 A 
ENDBRANCH  10  23
ENDBRANCH  16  18
ENDBRANCH  12  16
BRANCH  15  17
ATOM     17  C   UNL     1      11.543  10.188  22.329  0.00  0.00    +0.140 C 
BRANCH  17  11
ATOM     11  N   UNL     1      10.742  11.387  22.635  0.00  0.00    -0.187 NA
ATOM     38  H   UNL     1       9.723  11.253  22.636  0.00  0.00    +0.148 HD
BRANCH  11   1
ATOM      1  S   UNL     1      11.352  12.935  22.280  0.00  0.00    +0.058 S 
ATOM      7  O   UNL     1      10.412  13.640  21.430  0.00  0.00    -0.153 OA
ATOM      8  O   UNL     1      12.744  12.816  21.887  0.00  0.00    -0.153 OA
BRANCH   1  24
ATOM     24  C   UNL     1      11.330  13.706  23.872  0.00  0.00    +0.105 A 
ATOM     27  C   UNL     1      10.563  13.160  24.900  0.00  0.00    +0.029 A 
ATOM     28  C   UNL     1      12.076  14.863  24.096  0.00  0.00    +0.029 A 
ATOM     32  C   UNL     1      10.543  13.769  26.154  0.00  0.00    +0.005 A 
ATOM     33  C   UNL     1      12.057  15.473  25.352  0.00  0.00    +0.005 A 
ATOM     34  C   UNL     1      11.289  14.925  26.380  0.00  0.00    -0.050 A 
ATOM     35  C   UNL     1      11.268  15.577  27.721  0.00  0.00    +0.044 C 
ENDBRANCH   1  24
ENDBRANCH  11   1
ENDBRANCH  17  11
ENDBRANCH  15  17
TORSDOF 9
ENDMDL
MODEL 2
REMARK VINA RESULT:      -8.3      1.802      2.493
REMARK  Name = 40778181
REMARK  10 active torsions:
REMARK  status: ('A' for Active; 'I' for Inactive)
REMARK    1  A    between atoms: S_1  and  N_11
REMARK    2  A    between atoms: S_1  and  C_24
REMARK    3  A    between atoms: O_4  and  C_13
REMARK    4  A    between atoms: O_5  and  C_14
REMARK    5  A    between atoms: N_10  and  C_23
REMARK    6  A    between atoms: N_11  and  C_17
REMARK    7  A    between atoms: C_12  and  C_16
REMARK    8  A    between atoms: C_15  and  C_17
REMARK    9  A    between atoms: C_16  and  C_18
REMARK   10  A    between atoms: C_34  and  C_35
REMARK                            x       y       z     vdW  Elec       q    Type
REMARK                         _______ _______ _______ _____ _____    ______ ____
ROOT
ATOM      3  O   UNL     1      11.026   8.929  20.116  0.00  0.00    -0.366 OA
ATOM     12  C   UNL     1      11.705   7.673  19.937  0.00  0.00    +0.158 C 
ATOM     13  C   UNL     1      12.139   7.240  21.328  0.00  0.00    +0.175 C 
ATOM     14  C   UNL     1      10.985   7.737  22.174  0.00  0.00    +0.175 C 
ATOM     15  C   UNL     1      10.651   9.066  21.506  0.00  0.00    +0.165 C 
ENDROOT
BRANCH  13   4
ATOM      4  O   UNL     1      12.332   5.844  21.410  0.00  0.00    -0.387 OA
ATOM     36  H   UNL     1      13.053   5.687  22.045  0.00  0.00    +0.210 HD
ENDBRANCH  13   4
BRANCH  14   5
ATOM      5  O   UNL     1       9.858   6.873  22.031  0.00  0.00    -0.387 OA
ATOM     37  H   UNL     1       9.545   6.953  21.113  0.00  0.00    +0.210 HD
ENDBRANCH  14   5
BRANCH  12  16
ATOM     16  C   UNL     1      12.865   7.852  18.974  0.00  0.00    +0.130 C 
BRANCH  16  18
ATOM      6  O   UNL     1      13.672   9.895  19.874  0.00  0.00    -0.276 OA
ATOM      9  N   UNL     1      15.162   8.113  19.838  0.00  0.00    -0.298 N 
ATOM     10  N   UNL     1      17.687   6.898  20.565  0.00  0.00    -0.327 N 
ATOM     18  C   UNL     1      13.928   8.720  19.604  0.00  0.00    +0.218 C 
ATOM     19  C   UNL     1      16.243   8.888  20.440  0.00  0.00    +0.126 C 
ATOM     20  C   UNL     1      15.459   6.712  19.526  0.00  0.00    +0.126 C 
ATOM     21  C   UNL     1      17.140   8.026  21.325  0.00  0.00    +0.124 C 
ATOM     22  C   UNL     1      16.958   6.446  19.377  0.00  0.00    +0.124 C 
BRANCH  10  23
ATOM      2  F   UNL     1      22.438   4.522  22.072  0.00  0.00    -0.205 F 
ATOM     23  C   UNL     1      18.885   6.299  20.945  0.00  0.00    +0.030 A 
ATOM     25  C   UNL     1      19.513   6.686  22.128  0.00  0.00    +0.026 A 
ATOM     26  C   UNL     1      19.457   5.311  20.143  0.00  0.00    +0.026 A 
ATOM     29  C   UNL     1      20.714   6.086  22.509  0.00  0.00    +0.040 A 
ATOM     30  C   UNL     1      20.657   4.710  20.524  0.00  0.00    +0.040 A 
ATOM     31  C   UNL     1      21.285   5.098  21.707  0.00  0.00    +0.124 A 
ENDBRANCH  10  23
ENDBRANCH  16  18
ENDBRANCH  12  16
BRANCH  15  17
ATOM     17  C   UNL     1      11.430  10.237  22.086  0.00  0.00    +0.140 C 
BRANCH  17  11
ATOM     11  N   UNL     1      10.519  11.099  22.862  0.00  0.00    -0.187 NA
ATOM     38  H   UNL     1       9.767  11.548  22.326  0.00  0.00    +0.148 HD
BRANCH  11   1
ATOM      1  S   UNL     1      11.068  11.863  24.280  0.00  0.00    +0.058 S 
ATOM      7  O   UNL     1      11.209  10.877  25.334  0.00  0.00    -0.153 OA
ATOM      8  O   UNL     1      10.284  13.063  24.504  0.00  0.00    -0.153 OA
BRANCH   1  24
ATOM     24  C   UNL     1      12.689  12.387  23.804  0.00  0.00    +0.105 A 
ATOM     27  C   UNL     1      13.811  11.767  24.353  0.00  0.00    +0.029 A 
ATOM     28  C   UNL     1      12.844  13.423  22.883  0.00  0.00    +0.029 A 
ATOM     32  C   UNL     1      15.089  12.182  23.981  0.00  0.00    +0.005 A 
ATOM     33  C   UNL     1      14.124  13.838  22.510  0.00  0.00    +0.005 A 
ATOM     34  C   UNL     1      15.245  13.217  23.060  0.00  0.00    -0.050 A 
ATOM     35  C   UNL     1      16.612  13.661  22.661  0.00  0.00    +0.044 C 
ENDBRANCH   1  24
ENDBRANCH  11   1
ENDBRANCH  17  11
ENDBRANCH  15  17
TORSDOF 9
ENDMDL
MODEL 3
REMARK VINA RESULT:      -8.3      1.404      2.077
REMARK  Name = 40778181
REMARK  10 active torsions:
REMARK  status: ('A' for Active; 'I' for Inactive)
REMARK    1  A    between atoms: S_1  and  N_11
REMARK    2  A    between atoms: S_1  and  C_24
REMARK    3  A    between atoms: O_4  and  C_13
REMARK    4  A    between atoms: O_5  and  C_14
REMARK    5  A    between atoms: N_10  and  C_23
REMARK    6  A    between atoms: N_11  and  C_17
REMARK    7  A    between atoms: C_12  and  C_16
REMARK    8  A    between atoms: C_15  and  C_17
REMARK    9  A    between atoms: C_16  and  C_18
REMARK   10  A    between atoms: C_34  and  C_35
REMARK                            x       y       z     vdW  Elec       q    Type
REMARK                         _______ _______ _______ _____ _____    ______ ____
ROOT
ATOM      3  O   UNL     1      11.328   9.317  20.564  0.00  0.00    -0.366 OA
ATOM     12  C   UNL     1      11.311   8.078  19.833  0.00  0.00    +0.158 C 
ATOM     13  C   UNL     1      11.749   7.011  20.824  0.00  0.00    +0.175 C 
ATOM     14  C   UNL     1      11.130   7.519  22.109  0.00  0.00    +0.175 C 
ATOM     15  C   UNL     1      11.323   9.026  21.982  0.00  0.00    +0.165 C 
ENDROOT
BRANCH  13   4
ATOM      4  O   UNL     1      11.294   5.727  20.453  0.00  0.00    -0.387 OA
ATOM     36  H   UNL     1      12.055   5.244  20.086  0.00  0.00    +0.210 HD
ENDBRANCH  13   4
BRANCH  14   5
ATOM      5  O   UNL     1       9.728   7.250  22.124  0.00  0.00    -0.387 OA
ATOM     37  H   UNL     1       9.409   7.422  23.026  0.00  0.00    +0.210 HD
ENDBRANCH  14   5
BRANCH  12  16
ATOM     16  C   UNL     1      12.222   8.186  18.624  0.00  0.00    +0.130 C 
BRANCH  16  18
ATOM      6  O   UNL     1      13.173  10.351  18.829  0.00  0.00    -0.276 OA
ATOM      9  N   UNL     1      14.573   8.553  19.277  0.00  0.00    -0.298 N 
ATOM     10  N   UNL     1      17.076   7.460  20.238  0.00  0.00    -0.327 N 
ATOM     18  C   UNL     1      13.358   9.136  18.918  0.00  0.00    +0.218 C 
ATOM     19  C   UNL     1      15.722   9.405  19.572  0.00  0.00    +0.126 C 
ATOM     20  C   UNL     1      14.787   7.108  19.393  0.00  0.00    +0.126 C 
ATOM     21  C   UNL     1      16.626   8.796  20.640  0.00  0.00    +0.124 C 
ATOM     22  C   UNL     1      16.261   6.718  19.273  0.00  0.00    +0.124 C 
BRANCH  10  23
ATOM      2  F   UNL     1      21.788   5.361  22.206  0.00  0.00    -0.205 F 
ATOM     23  C   UNL     1      18.265   6.931  20.735  0.00  0.00    +0.030 A 
ATOM     25  C   UNL     1      18.848   7.478  21.876  0.00  0.00    +0.026 A 
ATOM     26  C   UNL     1      18.872   5.853  20.089  0.00  0.00    +0.026 A 
ATOM     29  C   UNL     1      20.038   6.948  22.374  0.00  0.00    +0.040 A 
ATOM     30  C   UNL     1      20.061   5.322  20.587  0.00  0.00    +0.040 A 
ATOM     31  C   UNL     1      20.644   5.870  21.729  0.00  0.00    +0.124 A 
ENDBRANCH  10  23
ENDBRANCH  16  18
ENDBRANCH  12  16
BRANCH  15  17
ATOM     17  C   UNL     1      12.644   9.510  22.561  0.00  0.00    +0.140 C 
BRANCH  17  11
ATOM     11  N   UNL     1      12.384  10.515  23.608  0.00  0.00    -0.187 NA
ATOM     38  H   UNL     1      11.493  10.413  24.111  0.00  0.00    +0.148 HD
BRANCH  11   1
ATOM      1  S   UNL     1      13.073  12.066  23.493  0.00  0.00    +0.058 S 
ATOM      7  O   UNL     1      13.819  12.170  22.253  0.00  0.00    -0.153 OA
ATOM      8  O   UNL     1      13.708  12.396  24.756  0.00  0.00    -0.153 OA
BRANCH   1  24
ATOM     24  C   UNL     1      11.639  13.090  23.353  0.00  0.00    +0.105 A 
ATOM     27  C   UNL     1      10.975  13.197  22.132  0.00  0.00    +0.029 A 
ATOM     28  C   UNL     1      11.175  13.795  24.464  0.00  0.00    +0.029 A 
ATOM     32  C   UNL     1       9.846  14.007  22.020  0.00  0.00    +0.005 A 
ATOM     33  C   UNL     1      10.044  14.606  24.353  0.00  0.00    +0.005 A 
ATOM     34  C   UNL     1       9.380  14.712  23.130  0.00  0.00    -0.050 A 
ATOM     35  C   UNL     1       8.172  15.578  23.011  0.00  0.00    +0.044 C 
ENDBRANCH   1  24
ENDBRANCH  11   1
ENDBRANCH  17  11
ENDBRANCH  15  17
TORSDOF 9
ENDMDL
MODEL 4
REMARK VINA RESULT:      -8.2     27.079     30.406
REMARK  Name = 40778181
REMARK  10 active torsions:
REMARK  status: ('A' for Active; 'I' for Inactive)
REMARK    1  A    between atoms: S_1  and  N_11
REMARK    2  A    between atoms: S_1  and  C_24
REMARK    3  A    between atoms: O_4  and  C_13
REMARK    4  A    between atoms: O_5  and  C_14
REMARK    5  A    between atoms: N_10  and  C_23
REMARK    6  A    between atoms: N_11  and  C_17
REMARK    7  A    between atoms: C_12  and  C_16
REMARK    8  A    between atoms: C_15  and  C_17
REMARK    9  A    between atoms: C_16  and  C_18
REMARK   10  A    between atoms: C_34  and  C_35
REMARK                            x       y       z     vdW  Elec       q    Type
REMARK                         _______ _______ _______ _____ _____    ______ ____
ROOT
ATOM      3  O   UNL     1     -17.027   3.143  27.012  0.00  0.00    -0.366 OA
ATOM     12  C   UNL     1     -16.918   2.469  25.746  0.00  0.00    +0.158 C 
ATOM     13  C   UNL     1     -16.618   1.016  26.078  0.00  0.00    +0.175 C 
ATOM     14  C   UNL     1     -17.429   0.821  27.342  0.00  0.00    +0.175 C 
ATOM     15  C   UNL     1     -17.240   2.158  28.051  0.00  0.00    +0.165 C 
ENDROOT
BRANCH  13   4
ATOM      4  O   UNL     1     -16.994   0.146  25.032  0.00  0.00    -0.387 OA
ATOM     36  H   UNL     1     -17.966   0.118  25.013  0.00  0.00    +0.210 HD
ENDBRANCH  13   4
BRANCH  14   5
ATOM      5  O   UNL     1     -18.813   0.678  27.025  0.00  0.00    -0.387 OA
ATOM     37  H   UNL     1     -19.230   0.193  27.758  0.00  0.00    +0.210 HD
ENDBRANCH  14   5
BRANCH  12  16
ATOM     16  C   UNL     1     -15.838   3.129  24.907  0.00  0.00    +0.130 C 
BRANCH  16  18
ATOM      6  O   UNL     1     -17.668   4.355  24.025  0.00  0.00    -0.276 OA
ATOM      9  N   UNL     1     -15.551   4.981  23.303  0.00  0.00    -0.298 N 
ATOM     10  N   UNL     1     -13.777   6.782  21.892  0.00  0.00    -0.327 N 
ATOM     18  C   UNL     1     -16.445   4.208  24.044  0.00  0.00    +0.218 C 
ATOM     19  C   UNL     1     -16.061   6.042  22.438  0.00  0.00    +0.126 C 
ATOM     20  C   UNL     1     -14.096   4.810  23.336  0.00  0.00    +0.126 C 
ATOM     21  C   UNL     1     -15.097   7.223  22.354  0.00  0.00    +0.124 C 
ATOM     22  C   UNL     1     -13.406   5.380  22.096  0.00  0.00    +0.124 C 
BRANCH  10  23
ATOM      2  F   UNL     1     -10.372  10.291  19.327  0.00  0.00    -0.205 F 
ATOM     23  C   UNL     1     -12.919   7.668  21.245  0.00  0.00    +0.030 A 
ATOM     25  C   UNL     1     -13.062   9.041  21.434  0.00  0.00    +0.026 A 
ATOM     26  C   UNL     1     -11.915   7.180  20.408  0.00  0.00    +0.026 A 
ATOM     29  C   UNL     1     -12.202   9.928  20.786  0.00  0.00    +0.040 A 
ATOM     30  C   UNL     1     -11.054   8.066  19.761  0.00  0.00    +0.040 A 
ATOM     31  C   UNL     1     -11.198   9.440  19.950  0.00  0.00    +0.124 A 
ENDBRANCH  10  23
ENDBRANCH  16  18
ENDBRANCH  12  16
BRANCH  15  17
ATOM     17  C   UNL     1     -16.027   2.180  28.969  0.00  0.00    +0.140 C 
BRANCH  17  11
ATOM     11  N   UNL     1     -16.017   0.963  29.802  0.00  0.00    -0.187 NA
ATOM     38  H   UNL     1     -16.938   0.632  30.116  0.00  0.00    +0.148 HD
BRANCH  11   1
ATOM      1  S   UNL     1     -14.656   0.590  30.752  0.00  0.00    +0.058 S 
ATOM      7  O   UNL     1     -13.489   0.477  29.897  0.00  0.00    -0.153 OA
ATOM      8  O   UNL     1     -14.998  -0.484  31.666  0.00  0.00    -0.153 OA
BRANCH   1  24
ATOM     24  C   UNL     1     -14.479   2.057  31.723  0.00  0.00    +0.105 A 
ATOM     27  C   UNL     1     -13.479   2.979  31.418  0.00  0.00    +0.029 A 
ATOM     28  C   UNL     1     -15.339   2.289  32.797  0.00  0.00    +0.029 A 
ATOM     32  C   UNL     1     -13.337   4.134  32.186  0.00  0.00    +0.005 A 
ATOM     33  C   UNL     1     -15.197   3.446  33.566  0.00  0.00    +0.005 A 
ATOM     34  C   UNL     1     -14.196   4.367  33.260  0.00  0.00    -0.050 A 
ATOM     35  C   UNL     1     -14.045   5.603  34.081  0.00  0.00    +0.044 C 
ENDBRANCH   1  24
ENDBRANCH  11   1
ENDBRANCH  17  11
ENDBRANCH  15  17
TORSDOF 9
ENDMDL
MODEL 5
REMARK VINA RESULT:      -7.8     27.980     31.254
REMARK  Name = 40778181
REMARK  10 active torsions:
REMARK  status: ('A' for Active; 'I' for Inactive)
REMARK    1  A    between atoms: S_1  and  N_11
REMARK    2  A    between atoms: S_1  and  C_24
REMARK    3  A    between atoms: O_4  and  C_13
REMARK    4  A    between atoms: O_5  and  C_14
REMARK    5  A    between atoms: N_10  and  C_23
REMARK    6  A    between atoms: N_11  and  C_17
REMARK    7  A    between atoms: C_12  and  C_16
REMARK    8  A    between atoms: C_15  and  C_17
REMARK    9  A    between atoms: C_16  and  C_18
REMARK   10  A    between atoms: C_34  and  C_35
REMARK                            x       y       z     vdW  Elec       q    Type
REMARK                         _______ _______ _______ _____ _____    ______ ____
ROOT
ATOM      3  O   UNL     1      -6.983  -9.398  17.070  0.00  0.00    -0.366 OA
ATOM     12  C   UNL     1      -8.235  -9.767  17.675  0.00  0.00    +0.158 C 
ATOM     13  C   UNL     1      -7.973 -11.082  18.392  0.00  0.00    +0.175 C 
ATOM     14  C   UNL     1      -6.551 -10.884  18.877  0.00  0.00    +0.175 C 
ATOM     15  C   UNL     1      -5.917 -10.140  17.707  0.00  0.00    +0.165 C 
ENDROOT
BRANCH  13   4
ATOM      4  O   UNL     1      -8.894 -11.307  19.438  0.00  0.00    -0.387 OA
ATOM     36  H   UNL     1      -9.559 -10.598  19.397  0.00  0.00    +0.210 HD
ENDBRANCH  13   4
BRANCH  14   5
ATOM      5  O   UNL     1      -6.531 -10.021  20.014  0.00  0.00    -0.387 OA
ATOM     37  H   UNL     1      -5.844  -9.351  19.858  0.00  0.00    +0.210 HD
ENDBRANCH  14   5
BRANCH  12  16
ATOM     16  C   UNL     1      -9.309  -9.869  16.607  0.00  0.00    +0.130 C 
BRANCH  16  18
ATOM      6  O   UNL     1     -10.996  -9.420  18.217  0.00  0.00    -0.276 OA
ATOM      9  N   UNL     1     -11.190  -8.332  16.173  0.00  0.00    -0.298 N 
ATOM     10  N   UNL     1     -12.434  -6.366  14.451  0.00  0.00    -0.327 N 
ATOM     18  C   UNL     1     -10.572  -9.191  17.082  0.00  0.00    +0.218 C 
ATOM     19  C   UNL     1     -12.419  -7.643  16.556  0.00  0.00    +0.126 C 
ATOM     20  C   UNL     1     -10.677  -8.054  14.829  0.00  0.00    +0.126 C 
ATOM     21  C   UNL     1     -12.525  -6.263  15.910  0.00  0.00    +0.124 C 
ATOM     22  C   UNL     1     -11.759  -7.535  13.881  0.00  0.00    +0.124 C 
BRANCH  10  23
ATOM      2  F   UNL     1     -14.704  -2.517  11.208  0.00  0.00    -0.205 F 
ATOM     23  C   UNL     1     -13.007  -5.395  13.633  0.00  0.00    +0.030 A 
ATOM     25  C   UNL     1     -14.394  -5.300  13.531  0.00  0.00    +0.026 A 
ATOM     26  C   UNL     1     -12.193  -4.518  12.915  0.00  0.00    +0.026 A 
ATOM     29  C   UNL     1     -14.968  -4.327  12.712  0.00  0.00    +0.040 A 
ATOM     30  C   UNL     1     -12.766  -3.545  12.097  0.00  0.00    +0.040 A 
ATOM     31  C   UNL     1     -14.154  -3.451  11.996  0.00  0.00    +0.124 A 
ENDBRANCH  10  23
ENDBRANCH  16  18
ENDBRANCH  12  16
BRANCH  15  17
ATOM     17  C   UNL     1      -5.311 -11.071  16.666  0.00  0.00    +0.140 C 
BRANCH  17  11
ATOM     11  N   UNL     1      -4.200 -10.386  15.981  0.00  0.00    -0.187 NA
ATOM     38  H   UNL     1      -4.389  -9.422  15.680  0.00  0.00    +0.148 HD
BRANCH  11   1
ATOM      1  S   UNL     1      -3.040 -11.288  15.122  0.00  0.00    +0.058 S 
ATOM      7  O   UNL     1      -3.420 -12.688  15.128  0.00  0.00    -0.153 OA
ATOM      8  O   UNL     1      -1.715 -10.890  15.556  0.00  0.00    -0.153 OA
BRANCH   1  24
ATOM     24  C   UNL     1      -3.250 -10.674  13.477  0.00  0.00    +0.105 A 
ATOM     27  C   UNL     1      -2.138 -10.469  12.662  0.00  0.00    +0.029 A 
ATOM     28  C   UNL     1      -4.529 -10.391  12.997  0.00  0.00    +0.029 A 
ATOM     32  C   UNL     1      -2.302  -9.981  11.366  0.00  0.00    +0.005 A 
ATOM     33  C   UNL     1      -4.694  -9.903  11.699  0.00  0.00    +0.005 A 
ATOM     34  C   UNL     1      -3.580  -9.698  10.885  0.00  0.00    -0.050 A 
ATOM     35  C   UNL     1      -3.757  -9.177   9.499  0.00  0.00    +0.044 C 
ENDBRANCH   1  24
ENDBRANCH  11   1
ENDBRANCH  17  11
ENDBRANCH  15  17
TORSDOF 9
ENDMDL
MODEL 6
REMARK VINA RESULT:      -7.8     27.637     30.781
REMARK  Name = 40778181
REMARK  10 active torsions:
REMARK  status: ('A' for Active; 'I' for Inactive)
REMARK    1  A    between atoms: S_1  and  N_11
REMARK    2  A    between atoms: S_1  and  C_24
REMARK    3  A    between atoms: O_4  and  C_13
REMARK    4  A    between atoms: O_5  and  C_14
REMARK    5  A    between atoms: N_10  and  C_23
REMARK    6  A    between atoms: N_11  and  C_17
REMARK    7  A    between atoms: C_12  and  C_16
REMARK    8  A    between atoms: C_15  and  C_17
REMARK    9  A    between atoms: C_16  and  C_18
REMARK   10  A    between atoms: C_34  and  C_35
REMARK                            x       y       z     vdW  Elec       q    Type
REMARK                         _______ _______ _______ _____ _____    ______ ____
ROOT
ATOM      3  O   UNL     1      -4.451 -11.377  18.881  0.00  0.00    -0.366 OA
ATOM     12  C   UNL     1      -5.813 -11.819  19.012  0.00  0.00    +0.158 C 
ATOM     13  C   UNL     1      -6.210 -12.338  17.640  0.00  0.00    +0.175 C 
ATOM     14  C   UNL     1      -4.912 -12.956  17.163  0.00  0.00    +0.175 C 
ATOM     15  C   UNL     1      -3.877 -11.970  17.692  0.00  0.00    +0.165 C 
ENDROOT
BRANCH  13   4
ATOM      4  O   UNL     1      -7.276 -13.262  17.712  0.00  0.00    -0.387 OA
ATOM     36  H   UNL     1      -7.839 -12.998  18.459  0.00  0.00    +0.210 HD
ENDBRANCH  13   4
BRANCH  14   5
ATOM      5  O   UNL     1      -4.696 -14.213  17.804  0.00  0.00    -0.387 OA
ATOM     37  H   UNL     1      -5.460 -14.378  18.383  0.00  0.00    +0.210 HD
ENDBRANCH  14   5
BRANCH  12  16
ATOM     16  C   UNL     1      -6.680 -10.669  19.493  0.00  0.00    +0.130 C 
BRANCH  16  18
ATOM      6  O   UNL     1      -8.577 -11.999  20.010  0.00  0.00    -0.276 OA
ATOM      9  N   UNL     1      -8.907 -10.247  18.520  0.00  0.00    -0.298 N 
ATOM     10  N   UNL     1     -10.640  -8.542  16.948  0.00  0.00    -0.327 N 
ATOM     18  C   UNL     1      -8.138 -11.039  19.373  0.00  0.00    +0.218 C 
ATOM     19  C   UNL     1     -10.326 -10.545  18.346  0.00  0.00    +0.126 C 
ATOM     20  C   UNL     1      -8.385  -9.100  17.772  0.00  0.00    +0.126 C 
ATOM     21  C   UNL     1     -11.150  -9.281  18.107  0.00  0.00    +0.124 C 
ATOM     22  C   UNL     1      -9.243  -8.747  16.557  0.00  0.00    +0.124 C 
BRANCH  10  23
ATOM      2  F   UNL     1     -13.950  -5.196  14.061  0.00  0.00    -0.205 F 
ATOM     23  C   UNL     1     -11.475  -7.698  16.220  0.00  0.00    +0.030 A 
ATOM     25  C   UNL     1     -10.941  -6.596  15.554  0.00  0.00    +0.026 A 
ATOM     26  C   UNL     1     -12.844  -7.956  16.156  0.00  0.00    +0.026 A 
ATOM     29  C   UNL     1     -11.777  -5.750  14.824  0.00  0.00    +0.040 A 
ATOM     30  C   UNL     1     -13.680  -7.112  15.426  0.00  0.00    +0.040 A 
ATOM     31  C   UNL     1     -13.146  -6.008  14.761  0.00  0.00    +0.124 A 
ENDBRANCH  10  23
ENDBRANCH  16  18
ENDBRANCH  12  16
BRANCH  15  17
ATOM     17  C   UNL     1      -3.569 -10.845  16.714  0.00  0.00    +0.140 C 
BRANCH  17  11
ATOM     11  N   UNL     1      -3.462 -11.396  15.350  0.00  0.00    -0.187 NA
ATOM     38  H   UNL     1      -4.047 -12.218  15.154  0.00  0.00    +0.148 HD
BRANCH  11   1
ATOM      1  S   UNL     1      -2.026 -11.195  14.459  0.00  0.00    +0.058 S 
ATOM      7  O   UNL     1      -1.453 -12.496  14.171  0.00  0.00    -0.153 OA
ATOM      8  O   UNL     1      -1.220 -10.165  15.087  0.00  0.00    -0.153 OA
BRANCH   1  24
ATOM     24  C   UNL     1      -2.634 -10.520  12.941  0.00  0.00    +0.105 A 
ATOM     27  C   UNL     1      -4.007 -10.452  12.709  0.00  0.00    +0.029 A 
ATOM     28  C   UNL     1      -1.739 -10.060  11.975  0.00  0.00    +0.029 A 
ATOM     32  C   UNL     1      -4.486  -9.923  11.511  0.00  0.00    +0.005 A 
ATOM     33  C   UNL     1      -2.218  -9.529  10.776  0.00  0.00    +0.005 A 
ATOM     34  C   UNL     1      -3.592  -9.462  10.545  0.00  0.00    -0.050 A 
ATOM     35  C   UNL     1      -4.104  -8.895   9.264  0.00  0.00    +0.044 C 
ENDBRANCH   1  24
ENDBRANCH  11   1
ENDBRANCH  17  11
ENDBRANCH  15  17
TORSDOF 9
ENDMDL
MODEL 7
REMARK VINA RESULT:      -7.7      4.549      5.858
REMARK  Name = 40778181
REMARK  10 active torsions:
REMARK  status: ('A' for Active; 'I' for Inactive)
REMARK    1  A    between atoms: S_1  and  N_11
REMARK    2  A    between atoms: S_1  and  C_24
REMARK    3  A    between atoms: O_4  and  C_13
REMARK    4  A    between atoms: O_5  and  C_14
REMARK    5  A    between atoms: N_10  and  C_23
REMARK    6  A    between atoms: N_11  and  C_17
REMARK    7  A    between atoms: C_12  and  C_16
REMARK    8  A    between atoms: C_15  and  C_17
REMARK    9  A    between atoms: C_16  and  C_18
REMARK   10  A    between atoms: C_34  and  C_35
REMARK                            x       y       z     vdW  Elec       q    Type
REMARK                         _______ _______ _______ _____ _____    ______ ____
ROOT
ATOM      3  O   UNL     1      10.553   8.332  20.448  0.00  0.00    -0.366 OA
ATOM     12  C   UNL     1      11.667   7.864  19.667  0.00  0.00    +0.158 C 
ATOM     13  C   UNL     1      12.581   7.145  20.646  0.00  0.00    +0.175 C 
ATOM     14  C   UNL     1      11.578   6.513  21.588  0.00  0.00    +0.175 C 
ATOM     15  C   UNL     1      10.514   7.599  21.695  0.00  0.00    +0.165 C 
ENDROOT
BRANCH  13   4
ATOM      4  O   UNL     1      13.411   6.203  20.000  0.00  0.00    -0.387 OA
ATOM     36  H   UNL     1      13.279   5.347  20.442  0.00  0.00    +0.210 HD
ENDBRANCH  13   4
BRANCH  14   5
ATOM      5  O   UNL     1      10.982   5.366  20.982  0.00  0.00    -0.387 OA
ATOM     37  H   UNL     1      10.881   5.559  20.034  0.00  0.00    +0.210 HD
ENDBRANCH  14   5
BRANCH  12  16
ATOM     16  C   UNL     1      12.334   9.039  18.975  0.00  0.00    +0.130 C 
BRANCH  16  18
ATOM      6  O   UNL     1      12.611   7.489  17.198  0.00  0.00    -0.276 OA
ATOM      9  N   UNL     1      13.766   9.497  17.018  0.00  0.00    -0.298 N 
ATOM     10  N   UNL     1      15.381  11.373  15.516  0.00  0.00    -0.327 N 
ATOM     18  C   UNL     1      12.909   8.596  17.651  0.00  0.00    +0.218 C 
ATOM     19  C   UNL     1      14.366   9.140  15.736  0.00  0.00    +0.126 C 
ATOM     20  C   UNL     1      14.109  10.817  17.554  0.00  0.00    +0.126 C 
ATOM     21  C   UNL     1      14.566  10.359  14.839  0.00  0.00    +0.124 C 
ATOM     22  C   UNL     1      15.417  11.365  16.981  0.00  0.00    +0.124 C 
BRANCH  10  23
ATOM      2  F   UNL     1      18.340  15.017  12.609  0.00  0.00    -0.205 F 
ATOM     23  C   UNL     1      16.127  12.292  14.783  0.00  0.00    +0.030 A 
ATOM     25  C   UNL     1      15.521  13.448  14.293  0.00  0.00    +0.026 A 
ATOM     26  C   UNL     1      17.480  12.056  14.539  0.00  0.00    +0.026 A 
ATOM     29  C   UNL     1      16.269  14.369  13.558  0.00  0.00    +0.040 A 
ATOM     30  C   UNL     1      18.228  12.977  13.806  0.00  0.00    +0.040 A 
ATOM     31  C   UNL     1      17.621  14.133  13.315  0.00  0.00    +0.124 A 
ENDBRANCH  10  23
ENDBRANCH  16  18
ENDBRANCH  12  16
BRANCH  15  17
ATOM     17  C   UNL     1      10.780   8.586  22.823  0.00  0.00    +0.140 C 
BRANCH  17  11
ATOM     11  N   UNL     1      10.543   9.959  22.341  0.00  0.00    -0.187 NA
ATOM     38  H   UNL     1       9.723  10.083  21.734  0.00  0.00    +0.148 HD
BRANCH  11   1
ATOM      1  S   UNL     1      11.845  11.041  22.168  0.00  0.00    +0.058 S 
ATOM      7  O   UNL     1      11.687  11.791  20.937  0.00  0.00    -0.153 OA
ATOM      8  O   UNL     1      13.084  10.337  22.440  0.00  0.00    -0.153 OA
BRANCH   1  24
ATOM     24  C   UNL     1      11.576  12.150  23.519  0.00  0.00    +0.105 A 
ATOM     27  C   UNL     1      12.394  12.087  24.647  0.00  0.00    +0.029 A 
ATOM     28  C   UNL     1      10.543  13.085  23.458  0.00  0.00    +0.029 A 
ATOM     32  C   UNL     1      12.179  12.959  25.714  0.00  0.00    +0.005 A 
ATOM     33  C   UNL     1      10.328  13.959  24.525  0.00  0.00    +0.005 A 
ATOM     34  C   UNL     1      11.147  13.894  25.653  0.00  0.00    -0.050 A 
ATOM     35  C   UNL     1      10.918  14.828  26.793  0.00  0.00    +0.044 C 
ENDBRANCH   1  24
ENDBRANCH  11   1
ENDBRANCH  17  11
ENDBRANCH  15  17
TORSDOF 9
ENDMDL
MODEL 8
REMARK VINA RESULT:      -7.7      2.657      4.177
REMARK  Name = 40778181
REMARK  10 active torsions:
REMARK  status: ('A' for Active; 'I' for Inactive)
REMARK    1  A    between atoms: S_1  and  N_11
REMARK    2  A    between atoms: S_1  and  C_24
REMARK    3  A    between atoms: O_4  and  C_13
REMARK    4  A    between atoms: O_5  and  C_14
REMARK    5  A    between atoms: N_10  and  C_23
REMARK    6  A    between atoms: N_11  and  C_17
REMARK    7  A    between atoms: C_12  and  C_16
REMARK    8  A    between atoms: C_15  and  C_17
REMARK    9  A    between atoms: C_16  and  C_18
REMARK   10  A    between atoms: C_34  and  C_35
REMARK                            x       y       z     vdW  Elec       q    Type
REMARK                         _______ _______ _______ _____ _____    ______ ____
ROOT
ATOM      3  O   UNL     1      11.642   9.499  20.355  0.00  0.00    -0.366 OA
ATOM     12  C   UNL     1      12.444   8.330  20.111  0.00  0.00    +0.158 C 
ATOM     13  C   UNL     1      12.513   7.594  21.439  0.00  0.00    +0.175 C 
ATOM     14  C   UNL     1      11.134   7.864  22.006  0.00  0.00    +0.175 C 
ATOM     15  C   UNL     1      10.889   9.305  21.576  0.00  0.00    +0.165 C 
ENDROOT
BRANCH  13   4
ATOM      4  O   UNL     1      12.788   6.220  21.268  0.00  0.00    -0.387 OA
ATOM     36  H   UNL     1      12.593   5.997  20.342  0.00  0.00    +0.210 HD
ENDBRANCH  13   4
BRANCH  14   5
ATOM      5  O   UNL     1      10.164   7.037  21.363  0.00  0.00    -0.387 OA
ATOM     37  H   UNL     1       9.610   7.616  20.811  0.00  0.00    +0.210 HD
ENDBRANCH  14   5
BRANCH  12  16
ATOM     16  C   UNL     1      13.805   8.745  19.582  0.00  0.00    +0.130 C 
BRANCH  16  18
ATOM      6  O   UNL     1      13.987   7.053  17.927  0.00  0.00    -0.276 OA
ATOM      9  N   UNL     1      15.663   7.121  19.535  0.00  0.00    -0.298 N 
ATOM     10  N   UNL     1      18.222   6.256  20.575  0.00  0.00    -0.327 N 
ATOM     18  C   UNL     1      14.486   7.565  18.931  0.00  0.00    +0.218 C 
ATOM     19  C   UNL     1      16.377   5.981  18.968  0.00  0.00    +0.126 C 
ATOM     20  C   UNL     1      16.258   7.739  20.723  0.00  0.00    +0.126 C 
ATOM     21  C   UNL     1      17.887   6.102  19.156  0.00  0.00    +0.124 C 
ATOM     22  C   UNL     1      17.196   6.792  21.473  0.00  0.00    +0.124 C 
BRANCH  10  23
ATOM      2  F   UNL     1      23.167   4.716  22.488  0.00  0.00    -0.205 F 
ATOM     23  C   UNL     1      19.469   5.868  21.058  0.00  0.00    +0.030 A 
ATOM     25  C   UNL     1      19.958   6.415  22.243  0.00  0.00    +0.026 A 
ATOM     26  C   UNL     1      20.228   4.932  20.356  0.00  0.00    +0.026 A 
ATOM     29  C   UNL     1      21.208   6.025  22.727  0.00  0.00    +0.040 A 
ATOM     30  C   UNL     1      21.477   4.542  20.839  0.00  0.00    +0.040 A 
ATOM     31  C   UNL     1      21.966   5.089  22.025  0.00  0.00    +0.124 A 
ENDBRANCH  10  23
ENDBRANCH  16  18
ENDBRANCH  12  16
BRANCH  15  17
ATOM     17  C   UNL     1      11.382  10.324  22.593  0.00  0.00    +0.140 C 
BRANCH  17  11
ATOM     11  N   UNL     1      12.026  11.449  21.891  0.00  0.00    -0.187 NA
ATOM     38  H   UNL     1      11.617  11.698  20.982  0.00  0.00    +0.148 HD
BRANCH  11   1
ATOM      1  S   UNL     1      13.670  11.795  22.160  0.00  0.00    +0.058 S 
ATOM      7  O   UNL     1      14.335  10.608  22.663  0.00  0.00    -0.153 OA
ATOM      8  O   UNL     1      13.778  13.052  22.877  0.00  0.00    -0.153 OA
BRANCH   1  24
ATOM     24  C   UNL     1      14.252  12.089  20.516  0.00  0.00    +0.105 A 
ATOM     27  C   UNL     1      15.607  11.952  20.221  0.00  0.00    +0.029 A 
ATOM     28  C   UNL     1      13.354  12.461  19.515  0.00  0.00    +0.029 A 
ATOM     32  C   UNL     1      16.067  12.187  18.925  0.00  0.00    +0.005 A 
ATOM     33  C   UNL     1      13.813  12.695  18.218  0.00  0.00    +0.005 A 
ATOM     34  C   UNL     1      15.170  12.558  17.924  0.00  0.00    -0.050 A 
ATOM     35  C   UNL     1      15.661  12.808  16.538  0.00  0.00    +0.044 C 
ENDBRANCH   1  24
ENDBRANCH  11   1
ENDBRANCH  17  11
ENDBRANCH  15  17
TORSDOF 9
ENDMDL
MODEL 9
REMARK VINA RESULT:      -7.6     28.275     30.114
REMARK  Name = 40778181
REMARK  10 active torsions:
REMARK  status: ('A' for Active; 'I' for Inactive)
REMARK    1  A    between atoms: S_1  and  N_11
REMARK    2  A    between atoms: S_1  and  C_24
REMARK    3  A    between atoms: O_4  and  C_13
REMARK    4  A    between atoms: O_5  and  C_14
REMARK    5  A    between atoms: N_10  and  C_23
REMARK    6  A    between atoms: N_11  and  C_17
REMARK    7  A    between atoms: C_12  and  C_16
REMARK    8  A    between atoms: C_15  and  C_17
REMARK    9  A    between atoms: C_16  and  C_18
REMARK   10  A    between atoms: C_34  and  C_35
REMARK                            x       y       z     vdW  Elec       q    Type
REMARK                         _______ _______ _______ _____ _____    ______ ____
ROOT
ATOM      3  O   UNL     1      -6.047 -11.658  17.259  0.00  0.00    -0.366 OA
ATOM     12  C   UNL     1      -4.741 -11.467  16.687  0.00  0.00    +0.158 C 
ATOM     13  C   UNL     1      -3.828 -11.127  17.853  0.00  0.00    +0.175 C 
ATOM     14  C   UNL     1      -4.412 -11.986  18.955  0.00  0.00    +0.175 C 
ATOM     15  C   UNL     1      -5.908 -11.879  18.682  0.00  0.00    +0.165 C 
ENDROOT
BRANCH  13   4
ATOM      4  O   UNL     1      -2.477 -11.423  17.570  0.00  0.00    -0.387 OA
ATOM     36  H   UNL     1      -2.460 -12.263  17.079  0.00  0.00    +0.210 HD
ENDBRANCH  13   4
BRANCH  14   5
ATOM      5  O   UNL     1      -4.025 -13.348  18.780  0.00  0.00    -0.387 OA
ATOM     37  H   UNL     1      -3.053 -13.381  18.821  0.00  0.00    +0.210 HD
ENDBRANCH  14   5
BRANCH  12  16
ATOM     16  C   UNL     1      -4.800 -10.377  15.632  0.00  0.00    +0.130 C 
BRANCH  16  18
ATOM      6  O   UNL     1      -2.689 -11.108  14.829  0.00  0.00    -0.276 OA
ATOM      9  N   UNL     1      -4.222 -10.399  13.233  0.00  0.00    -0.298 N 
ATOM     10  N   UNL     1      -5.062 -10.087  10.480  0.00  0.00    -0.327 N 
ATOM     18  C   UNL     1      -3.802 -10.666  14.537  0.00  0.00    +0.218 C 
ATOM     19  C   UNL     1      -3.311 -10.648  12.119  0.00  0.00    +0.126 C 
ATOM     20  C   UNL     1      -5.549  -9.883  12.888  0.00  0.00    +0.126 C 
ATOM     21  C   UNL     1      -4.056 -11.084  10.859  0.00  0.00    +0.124 C 
ATOM     22  C   UNL     1      -5.579  -9.196  11.522  0.00  0.00    +0.124 C 
BRANCH  10  23
ATOM      2  F   UNL     1      -6.735  -9.621   5.239  0.00  0.00    -0.205 F 
ATOM     23  C   UNL     1      -5.483  -9.970   9.158  0.00  0.00    +0.030 A 
ATOM     25  C   UNL     1      -4.852 -10.707   8.158  0.00  0.00    +0.026 A 
ATOM     26  C   UNL     1      -6.537  -9.115   8.836  0.00  0.00    +0.026 A 
ATOM     29  C   UNL     1      -5.275 -10.590   6.833  0.00  0.00    +0.040 A 
ATOM     30  C   UNL     1      -6.961  -8.998   7.512  0.00  0.00    +0.040 A 
ATOM     31  C   UNL     1      -6.329  -9.736   6.511  0.00  0.00    +0.124 A 
ENDBRANCH  10  23
ENDBRANCH  16  18
ENDBRANCH  12  16
BRANCH  15  17
ATOM     17  C   UNL     1      -6.564 -10.710  19.401  0.00  0.00    +0.140 C 
BRANCH  17  11
ATOM     11  N   UNL     1      -7.639 -10.154  18.558  0.00  0.00    -0.187 NA
ATOM     38  H   UNL     1      -7.494  -9.192  18.229  0.00  0.00    +0.148 HD
BRANCH  11   1
ATOM      1  S   UNL     1      -9.236 -10.719  18.728  0.00  0.00    +0.058 S 
ATOM      7  O   UNL     1      -9.611 -10.685  20.128  0.00  0.00    -0.153 OA
ATOM      8  O   UNL     1      -9.390 -11.940  17.960  0.00  0.00    -0.153 OA
BRANCH   1  24
ATOM     24  C   UNL     1     -10.154  -9.463  17.887  0.00  0.00    +0.105 A 
ATOM     27  C   UNL     1      -9.486  -8.412  17.259  0.00  0.00    +0.029 A 
ATOM     28  C   UNL     1     -11.548  -9.522  17.856  0.00  0.00    +0.029 A 
ATOM     32  C   UNL     1     -10.211  -7.420  16.600  0.00  0.00    +0.005 A 
ATOM     33  C   UNL     1     -12.273  -8.529  17.196  0.00  0.00    +0.005 A 
ATOM     34  C   UNL     1     -11.604  -7.478  16.568  0.00  0.00    -0.050 A 
ATOM     35  C   UNL     1     -12.379  -6.417  15.862  0.00  0.00    +0.044 C 
ENDBRANCH   1  24
ENDBRANCH  11   1
ENDBRANCH  17  11
ENDBRANCH  15  17
TORSDOF 9
ENDMDL
MODEL 10
REMARK VINA RESULT:      -7.6      4.358      7.896
REMARK  Name = 40778181
REMARK  10 active torsions:
REMARK  status: ('A' for Active; 'I' for Inactive)
REMARK    1  A    between atoms: S_1  and  N_11
REMARK    2  A    between atoms: S_1  and  C_24
REMARK    3  A    between atoms: O_4  and  C_13
REMARK    4  A    between atoms: O_5  and  C_14
REMARK    5  A    between atoms: N_10  and  C_23
REMARK    6  A    between atoms: N_11  and  C_17
REMARK    7  A    between atoms: C_12  and  C_16
REMARK    8  A    between atoms: C_15  and  C_17
REMARK    9  A    between atoms: C_16  and  C_18
REMARK   10  A    between atoms: C_34  and  C_35
REMARK                            x       y       z     vdW  Elec       q    Type
REMARK                         _______ _______ _______ _____ _____    ______ ____
ROOT
ATOM      3  O   UNL     1      12.865  10.356  21.790  0.00  0.00    -0.366 OA
ATOM     12  C   UNL     1      12.323  11.434  22.572  0.00  0.00    +0.158 C 
ATOM     13  C   UNL     1      10.819  11.210  22.594  0.00  0.00    +0.175 C 
ATOM     14  C   UNL     1      10.740   9.697  22.631  0.00  0.00    +0.175 C 
ATOM     15  C   UNL     1      11.883   9.296  21.707  0.00  0.00    +0.165 C 
ENDROOT
BRANCH  13   4
ATOM      4  O   UNL     1      10.208  11.829  23.706  0.00  0.00    -0.387 OA
ATOM     36  H   UNL     1      10.670  11.516  24.503  0.00  0.00    +0.210 HD
ENDBRANCH  13   4
BRANCH  14   5
ATOM      5  O   UNL     1      11.039   9.218  23.942  0.00  0.00    -0.387 OA
ATOM     37  H   UNL     1      11.987   9.368  24.097  0.00  0.00    +0.210 HD
ENDBRANCH  14   5
BRANCH  12  16
ATOM     16  C   UNL     1      12.723  12.763  21.958  0.00  0.00    +0.130 C 
BRANCH  16  18
ATOM      6  O   UNL     1      15.056  12.718  22.396  0.00  0.00    -0.276 OA
ATOM      9  N   UNL     1      14.414  12.687  20.163  0.00  0.00    -0.298 N 
ATOM     10  N   UNL     1      15.026  12.401  17.348  0.00  0.00    -0.327 N 
ATOM     18  C   UNL     1      14.172  12.720  21.536  0.00  0.00    +0.218 C 
ATOM     19  C   UNL     1      15.790  12.650  19.675  0.00  0.00    +0.126 C 
ATOM     20  C   UNL     1      13.361  12.678  19.144  0.00  0.00    +0.126 C 
ATOM     21  C   UNL     1      15.915  11.855  18.378  0.00  0.00    +0.124 C 
ATOM     22  C   UNL     1      13.854  13.165  17.781  0.00  0.00    +0.124 C 
BRANCH  10  23
ATOM      2  F   UNL     1      16.164  11.712  11.989  0.00  0.00    -0.205 F 
ATOM     23  C   UNL     1      15.313  12.227  15.996  0.00  0.00    +0.030 A 
ATOM     25  C   UNL     1      14.276  12.151  15.068  0.00  0.00    +0.026 A 
ATOM     26  C   UNL     1      16.638  12.129  15.571  0.00  0.00    +0.026 A 
ATOM     29  C   UNL     1      14.563  11.977  13.714  0.00  0.00    +0.040 A 
ATOM     30  C   UNL     1      16.926  11.956  14.218  0.00  0.00    +0.040 A 
ATOM     31  C   UNL     1      15.888  11.880  13.289  0.00  0.00    +0.124 A 
ENDBRANCH  10  23
ENDBRANCH  16  18
ENDBRANCH  12  16
BRANCH  15  17
ATOM     17  C   UNL     1      11.458   9.169  20.251  0.00  0.00    +0.140 C 
BRANCH  17  11
ATOM     11  N   UNL     1      12.645   8.924  19.412  0.00  0.00    -0.187 NA
ATOM     38  H   UNL     1      12.960   9.719  18.842  0.00  0.00    +0.148 HD
BRANCH  11   1
ATOM      1  S   UNL     1      12.994   7.351  18.864  0.00  0.00    +0.058 S 
ATOM      7  O   UNL     1      13.125   7.363  17.419  0.00  0.00    -0.153 OA
ATOM      8  O   UNL     1      12.090   6.415  19.506  0.00  0.00    -0.153 OA
BRANCH   1  24
ATOM     24  C   UNL     1      14.598   7.075  19.554  0.00  0.00    +0.105 A 
ATOM     27  C   UNL     1      15.633   6.603  18.747  0.00  0.00    +0.029 A 
ATOM     28  C   UNL     1      14.827   7.325  20.907  0.00  0.00    +0.029 A 
ATOM     32  C   UNL     1      16.897   6.382  19.292  0.00  0.00    +0.005 A 
ATOM     33  C   UNL     1      16.093   7.104  21.453  0.00  0.00    +0.005 A 
ATOM     34  C   UNL     1      17.127   6.632  20.645  0.00  0.00    -0.050 A 
ATOM     35  C   UNL     1      18.480   6.396  21.228  0.00  0.00    +0.044 C 
ENDBRANCH   1  24
ENDBRANCH  11   1
ENDBRANCH  17  11
ENDBRANCH  15  17
TORSDOF 9
ENDMDL
