MODEL 1
REMARK VINA RESULT:      -6.6      0.000      0.000
REMARK  Name = 45361082
REMARK  6 active torsions:
REMARK  status: ('A' for Active; 'I' for Inactive)
REMARK    1  A    between atoms: N_4  and  C_19
REMARK    2  A    between atoms: N_5  and  C_18
REMARK    3  A    between atoms: C_14  and  C_17
REMARK    4  A    between atoms: C_17  and  C_20
REMARK    5  A    between atoms: C_18  and  C_21
REMARK    6  A    between atoms: C_20  and  C_22
REMARK                            x       y       z     vdW  Elec       q    Type
REMARK                         _______ _______ _______ _____ _____    ______ ____
ROOT
ATOM      1  O   UNL     1      -6.352  -9.539  16.538  0.00  0.00    -0.274 OA
ATOM      4  N   UNL     1      -4.200 -12.451  15.166  0.00  0.00    -0.296 NA
ATOM      5  N   UNL     1      -6.763 -11.929  17.725  0.00  0.00    -0.283 NA
ATOM      6  N   UNL     1      -4.090  -9.808  16.320  0.00  0.00    -0.312 N 
ATOM     10  C   UNL     1      -4.899 -12.783  16.427  0.00  0.00    +0.084 C 
ATOM     11  C   UNL     1      -5.372 -11.617  17.343  0.00  0.00    +0.161 C 
ATOM     12  C   UNL     1      -6.199 -13.585  16.229  0.00  0.00    +0.036 C 
ATOM     13  C   UNL     1      -6.952 -13.361  17.524  0.00  0.00    +0.087 C 
ATOM     14  C   UNL     1      -2.898 -11.751  15.350  0.00  0.00    +0.074 C 
ATOM     15  C   UNL     1      -5.351 -10.236  16.693  0.00  0.00    +0.232 C 
ATOM     16  C   UNL     1      -2.904 -10.636  16.414  0.00  0.00    +0.123 C 
ATOM     19  C   UNL     1      -4.021 -13.652  14.333  0.00  0.00    +0.105 C 
ATOM     29  H   UNL     1      -3.996  -8.866  15.953  0.00  0.00    +0.149 HD
ENDROOT
BRANCH  14  17
ATOM     17  C   UNL     1      -2.432 -11.119  14.020  0.00  0.00    +0.029 C 
BRANCH  17  20
ATOM     20  C   UNL     1      -3.601 -10.636  13.183  0.00  0.00    +0.097 C 
BRANCH  20  22
ATOM      2  O   UNL     1      -1.993 -10.446  11.450  0.00  0.00    -0.276 OA
ATOM      3  O   UNL     1      -6.083  -8.879   9.153  0.00  0.00    -0.377 OA
ATOM      7  N   UNL     1      -4.086  -9.531  11.030  0.00  0.00    -0.297 N 
ATOM     22  C   UNL     1      -3.146 -10.198  11.813  0.00  0.00    +0.216 C 
ATOM     23  C   UNL     1      -3.729  -9.077   9.686  0.00  0.00    +0.136 C 
ATOM     24  C   UNL     1      -5.419  -9.109  11.474  0.00  0.00    +0.136 C 
ATOM     26  C   UNL     1      -4.838  -9.416   8.700  0.00  0.00    +0.179 C 
ATOM     27  C   UNL     1      -6.459  -9.442  10.412  0.00  0.00    +0.179 C 
ENDBRANCH  20  22
ENDBRANCH  17  20
ENDBRANCH  14  17
BRANCH   5  18
ATOM     18  C   UNL     1      -7.093 -11.519  19.084  0.00  0.00    +0.159 C 
BRANCH  18  21
ATOM      8  N   UNL     1      -8.912 -10.012  18.249  0.00  0.00    -0.347 N 
ATOM      9  N   UNL     1      -9.385 -11.174  20.082  0.00  0.00    -0.239 NA
ATOM     21  C   UNL     1      -8.472 -10.922  19.171  0.00  0.00    +0.121 A 
ATOM     25  C   UNL     1     -10.188  -9.662  18.596  0.00  0.00    +0.104 A 
ATOM     28  C   UNL     1     -10.457 -10.392  19.730  0.00  0.00    +0.130 A 
ATOM     30  H   UNL     1      -8.392  -9.662  17.455  0.00  0.00    +0.167 HD
ENDBRANCH  18  21
ENDBRANCH   5  18
TORSDOF 5
ENDMDL
MODEL 2
REMARK VINA RESULT:      -6.5      3.686      7.416
REMARK  Name = 45361082
REMARK  6 active torsions:
REMARK  status: ('A' for Active; 'I' for Inactive)
REMARK    1  A    between atoms: N_4  and  C_19
REMARK    2  A    between atoms: N_5  and  C_18
REMARK    3  A    between atoms: C_14  and  C_17
REMARK    4  A    between atoms: C_17  and  C_20
REMARK    5  A    between atoms: C_18  and  C_21
REMARK    6  A    between atoms: C_20  and  C_22
REMARK                            x       y       z     vdW  Elec       q    Type
REMARK                         _______ _______ _______ _____ _____    ______ ____
ROOT
ATOM      1  O   UNL     1      -5.279  -9.401  16.262  0.00  0.00    -0.274 OA
ATOM      4  N   UNL     1      -8.520 -10.400  18.131  0.00  0.00    -0.296 NA
ATOM      5  N   UNL     1      -5.445 -12.004  16.963  0.00  0.00    -0.283 NA
ATOM      6  N   UNL     1      -7.493  -9.197  15.717  0.00  0.00    -0.312 N 
ATOM     10  C   UNL     1      -7.720 -11.562  17.686  0.00  0.00    +0.084 C 
ATOM     11  C   UNL     1      -6.700 -11.360  16.527  0.00  0.00    +0.161 C 
ATOM     12  C   UNL     1      -6.836 -12.172  18.790  0.00  0.00    +0.036 C 
ATOM     13  C   UNL     1      -5.793 -12.950  18.016  0.00  0.00    +0.087 C 
ATOM     14  C   UNL     1      -9.443  -9.855  17.095  0.00  0.00    +0.074 C 
ATOM     15  C   UNL     1      -6.398  -9.905  16.178  0.00  0.00    +0.232 C 
ATOM     16  C   UNL     1      -8.837  -9.737  15.683  0.00  0.00    +0.123 C 
ATOM     19  C   UNL     1      -9.264 -10.716  19.362  0.00  0.00    +0.105 C 
ATOM     29  H   UNL     1      -7.343  -8.247  15.394  0.00  0.00    +0.149 HD
ENDROOT
BRANCH  14  17
ATOM     17  C   UNL     1      -9.944  -8.453  17.503  0.00  0.00    +0.029 C 
BRANCH  17  20
ATOM     20  C   UNL     1     -11.299  -8.139  16.899  0.00  0.00    +0.097 C 
BRANCH  20  22
ATOM      2  O   UNL     1     -10.108  -6.517  15.645  0.00  0.00    -0.276 OA
ATOM      3  O   UNL     1     -14.694  -5.921  13.890  0.00  0.00    -0.377 OA
ATOM      7  N   UNL     1     -12.423  -6.475  15.463  0.00  0.00    -0.297 N 
ATOM     22  C   UNL     1     -11.214  -6.971  15.948  0.00  0.00    +0.216 C 
ATOM     23  C   UNL     1     -12.431  -5.347  14.532  0.00  0.00    +0.136 C 
ATOM     24  C   UNL     1     -13.756  -6.906  15.899  0.00  0.00    +0.136 C 
ATOM     26  C   UNL     1     -13.393  -5.614  13.384  0.00  0.00    +0.179 C 
ATOM     27  C   UNL     1     -14.666  -7.104  14.694  0.00  0.00    +0.179 C 
ENDBRANCH  20  22
ENDBRANCH  17  20
ENDBRANCH  14  17
BRANCH   5  18
ATOM     18  C   UNL     1      -4.714 -12.639  15.874  0.00  0.00    +0.159 C 
BRANCH  18  21
ATOM      8  N   UNL     1      -2.815 -11.167  16.586  0.00  0.00    -0.347 N 
ATOM      9  N   UNL     1      -2.592 -12.141  14.603  0.00  0.00    -0.239 NA
ATOM     21  C   UNL     1      -3.370 -11.999  15.653  0.00  0.00    +0.121 A 
ATOM     25  C   UNL     1      -1.607 -10.752  16.099  0.00  0.00    +0.104 A 
ATOM     28  C   UNL     1      -1.492 -11.366  14.874  0.00  0.00    +0.130 A 
ATOM     30  H   UNL     1      -3.222 -10.906  17.475  0.00  0.00    +0.167 HD
ENDBRANCH  18  21
ENDBRANCH   5  18
TORSDOF 5
ENDMDL
MODEL 3
REMARK VINA RESULT:      -6.4      2.290      7.328
REMARK  Name = 45361082
REMARK  6 active torsions:
REMARK  status: ('A' for Active; 'I' for Inactive)
REMARK    1  A    between atoms: N_4  and  C_19
REMARK    2  A    between atoms: N_5  and  C_18
REMARK    3  A    between atoms: C_14  and  C_17
REMARK    4  A    between atoms: C_17  and  C_20
REMARK    5  A    between atoms: C_18  and  C_21
REMARK    6  A    between atoms: C_20  and  C_22
REMARK                            x       y       z     vdW  Elec       q    Type
REMARK                         _______ _______ _______ _____ _____    ______ ____
ROOT
ATOM      1  O   UNL     1      -1.340 -10.447  15.519  0.00  0.00    -0.274 OA
ATOM      4  N   UNL     1      -4.380 -12.690  16.369  0.00  0.00    -0.296 NA
ATOM      5  N   UNL     1      -2.203 -12.024  13.504  0.00  0.00    -0.283 NA
ATOM      6  N   UNL     1      -3.434  -9.964  16.308  0.00  0.00    -0.312 N 
ATOM     10  C   UNL     1      -4.071 -12.646  14.922  0.00  0.00    +0.084 C 
ATOM     11  C   UNL     1      -3.243 -11.446  14.376  0.00  0.00    +0.161 C 
ATOM     12  C   UNL     1      -3.258 -13.853  14.420  0.00  0.00    +0.036 C 
ATOM     13  C   UNL     1      -2.655 -13.357  13.123  0.00  0.00    +0.087 C 
ATOM     14  C   UNL     1      -5.239 -11.571  16.849  0.00  0.00    +0.074 C 
ATOM     15  C   UNL     1      -2.559 -10.595  15.443  0.00  0.00    +0.232 C 
ATOM     16  C   UNL     1      -4.867 -10.182  16.295  0.00  0.00    +0.123 C 
ATOM     19  C   UNL     1      -4.974 -13.986  16.739  0.00  0.00    +0.105 C 
ATOM     29  H   UNL     1      -3.046  -9.322  16.991  0.00  0.00    +0.149 HD
ENDROOT
BRANCH  14  17
ATOM     17  C   UNL     1      -5.198 -11.483  18.390  0.00  0.00    +0.029 C 
BRANCH  17  20
ATOM     20  C   UNL     1      -6.115 -10.397  18.919  0.00  0.00    +0.097 C 
BRANCH  20  22
ATOM      2  O   UNL     1      -7.661 -11.780  20.068  0.00  0.00    -0.276 OA
ATOM      3  O   UNL     1     -10.703  -8.930  17.407  0.00  0.00    -0.377 OA
ATOM      7  N   UNL     1      -8.527 -10.421  18.396  0.00  0.00    -0.297 N 
ATOM     22  C   UNL     1      -7.499 -10.934  19.185  0.00  0.00    +0.216 C 
ATOM     23  C   UNL     1      -9.901 -10.883  18.592  0.00  0.00    +0.136 C 
ATOM     24  C   UNL     1      -8.354  -9.513  17.257  0.00  0.00    +0.136 C 
ATOM     26  C   UNL     1     -10.861  -9.703  18.599  0.00  0.00    +0.179 C 
ATOM     27  C   UNL     1      -9.382  -8.391  17.316  0.00  0.00    +0.179 C 
ENDBRANCH  20  22
ENDBRANCH  17  20
ENDBRANCH  14  17
BRANCH   5  18
ATOM     18  C   UNL     1      -1.898 -11.196  12.344  0.00  0.00    +0.159 C 
BRANCH  18  21
ATOM      8  N   UNL     1      -3.407 -11.621  10.388  0.00  0.00    -0.347 N 
ATOM      9  N   UNL     1      -4.040  -9.995  11.762  0.00  0.00    -0.239 NA
ATOM     21  C   UNL     1      -3.127 -10.909  11.522  0.00  0.00    +0.121 A 
ATOM     25  C   UNL     1      -4.574 -11.129   9.873  0.00  0.00    +0.104 A 
ATOM     28  C   UNL     1      -4.945 -10.126  10.738  0.00  0.00    +0.130 A 
ATOM     30  H   UNL     1      -2.855 -12.375  10.001  0.00  0.00    +0.167 HD
ENDBRANCH  18  21
ENDBRANCH   5  18
TORSDOF 5
ENDMDL
MODEL 4
REMARK VINA RESULT:      -6.3     28.668     31.238
REMARK  Name = 45361082
REMARK  6 active torsions:
REMARK  status: ('A' for Active; 'I' for Inactive)
REMARK    1  A    between atoms: N_4  and  C_19
REMARK    2  A    between atoms: N_5  and  C_18
REMARK    3  A    between atoms: C_14  and  C_17
REMARK    4  A    between atoms: C_17  and  C_20
REMARK    5  A    between atoms: C_18  and  C_21
REMARK    6  A    between atoms: C_20  and  C_22
REMARK                            x       y       z     vdW  Elec       q    Type
REMARK                         _______ _______ _______ _____ _____    ______ ____
ROOT
ATOM      1  O   UNL     1      20.348   6.293  24.185  0.00  0.00    -0.274 OA
ATOM      4  N   UNL     1      18.583   6.632  20.754  0.00  0.00    -0.296 NA
ATOM      5  N   UNL     1      21.781   5.431  22.065  0.00  0.00    -0.283 NA
ATOM      6  N   UNL     1      19.436   8.088  23.095  0.00  0.00    -0.312 N 
ATOM     10  C   UNL     1      20.022   6.311  20.642  0.00  0.00    +0.084 C 
ATOM     11  C   UNL     1      20.951   6.632  21.850  0.00  0.00    +0.161 C 
ATOM     12  C   UNL     1      20.313   4.818  20.402  0.00  0.00    +0.036 C 
ATOM     13  C   UNL     1      21.760   4.668  20.823  0.00  0.00    +0.087 C 
ATOM     14  C   UNL     1      18.285   8.085  20.902  0.00  0.00    +0.074 C 
ATOM     15  C   UNL     1      20.225   6.954  23.154  0.00  0.00    +0.232 C 
ATOM     16  C   UNL     1      19.208   8.841  21.877  0.00  0.00    +0.123 C 
ATOM     19  C   UNL     1      17.830   6.069  19.620  0.00  0.00    +0.105 C 
ATOM     29  H   UNL     1      18.989   8.402  23.950  0.00  0.00    +0.149 HD
ENDROOT
BRANCH  14  17
ATOM     17  C   UNL     1      16.833   8.292  21.381  0.00  0.00    +0.029 C 
BRANCH  17  20
ATOM     20  C   UNL     1      16.033   9.143  20.413  0.00  0.00    +0.097 C 
BRANCH  20  22
ATOM      2  O   UNL     1      13.964   9.289  21.562  0.00  0.00    -0.276 OA
ATOM      3  O   UNL     1      12.515   7.509  17.181  0.00  0.00    -0.377 OA
ATOM      7  N   UNL     1      13.939   8.196  19.513  0.00  0.00    -0.297 N 
ATOM     22  C   UNL     1      14.554   8.886  20.557  0.00  0.00    +0.216 C 
ATOM     23  C   UNL     1      12.505   7.910  19.569  0.00  0.00    +0.136 C 
ATOM     24  C   UNL     1      14.629   7.594  18.368  0.00  0.00    +0.136 C 
ATOM     26  C   UNL     1      11.851   8.217  18.231  0.00  0.00    +0.179 C 
ATOM     27  C   UNL     1      13.884   7.910  17.078  0.00  0.00    +0.179 C 
ENDBRANCH  20  22
ENDBRANCH  17  20
ENDBRANCH  14  17
BRANCH   5  18
ATOM     18  C   UNL     1      23.139   5.739  22.495  0.00  0.00    +0.159 C 
BRANCH  18  21
ATOM      8  N   UNL     1      23.602   3.655  23.808  0.00  0.00    -0.347 N 
ATOM      9  N   UNL     1      24.987   4.062  22.120  0.00  0.00    -0.239 NA
ATOM     21  C   UNL     1      23.934   4.492  22.778  0.00  0.00    +0.121 A 
ATOM     25  C   UNL     1      24.502   2.626  23.806  0.00  0.00    +0.104 A 
ATOM     28  C   UNL     1      25.347   2.899  22.755  0.00  0.00    +0.130 A 
ATOM     30  H   UNL     1      22.832   3.774  24.453  0.00  0.00    +0.167 HD
ENDBRANCH  18  21
ENDBRANCH   5  18
TORSDOF 5
ENDMDL
MODEL 5
REMARK VINA RESULT:      -6.2     26.228     29.716
REMARK  Name = 45361082
REMARK  6 active torsions:
REMARK  status: ('A' for Active; 'I' for Inactive)
REMARK    1  A    between atoms: N_4  and  C_19
REMARK    2  A    between atoms: N_5  and  C_18
REMARK    3  A    between atoms: C_14  and  C_17
REMARK    4  A    between atoms: C_17  and  C_20
REMARK    5  A    between atoms: C_18  and  C_21
REMARK    6  A    between atoms: C_20  and  C_22
REMARK                            x       y       z     vdW  Elec       q    Type
REMARK                         _______ _______ _______ _____ _____    ______ ____
ROOT
ATOM      1  O   UNL     1      13.249   6.221   7.622  0.00  0.00    -0.274 OA
ATOM      4  N   UNL     1      14.711   9.634   6.520  0.00  0.00    -0.296 NA
ATOM      5  N   UNL     1      11.425   8.159   7.166  0.00  0.00    -0.283 NA
ATOM      6  N   UNL     1      14.617   6.820   5.887  0.00  0.00    -0.312 N 
ATOM     10  C   UNL     1      13.244   9.543   6.351  0.00  0.00    +0.084 C 
ATOM     11  C   UNL     1      12.592   8.132   6.264  0.00  0.00    +0.161 C 
ATOM     12  C   UNL     1      12.441  10.198   7.490  0.00  0.00    +0.036 C 
ATOM     13  C   UNL     1      11.074   9.559   7.371  0.00  0.00    +0.087 C 
ATOM     14  C   UNL     1      15.497   9.080   5.383  0.00  0.00    +0.074 C 
ATOM     15  C   UNL     1      13.497   6.976   6.683  0.00  0.00    +0.232 C 
ATOM     16  C   UNL     1      14.979   7.739   4.826  0.00  0.00    +0.123 C 
ATOM     19  C   UNL     1      15.122  11.020   6.798  0.00  0.00    +0.105 C 
ATOM     29  H   UNL     1      15.219   6.022   6.064  0.00  0.00    +0.149 HD
ENDROOT
BRANCH  14  17
ATOM     17  C   UNL     1      16.970   8.871   5.796  0.00  0.00    +0.029 C 
BRANCH  17  20
ATOM     20  C   UNL     1      17.874   8.681   4.593  0.00  0.00    +0.097 C 
BRANCH  20  22
ATOM      2  O   UNL     1      19.162  10.588   5.162  0.00  0.00    -0.276 OA
ATOM      3  O   UNL     1      22.690   7.164   4.617  0.00  0.00    -0.377 OA
ATOM      7  N   UNL     1      20.339   8.710   4.468  0.00  0.00    -0.297 N 
ATOM     22  C   UNL     1      19.178   9.419   4.768  0.00  0.00    +0.216 C 
ATOM     23  C   UNL     1      21.646   9.350   4.616  0.00  0.00    +0.136 C 
ATOM     24  C   UNL     1      20.388   7.368   3.879  0.00  0.00    +0.136 C 
ATOM     26  C   UNL     1      22.620   8.411   5.313  0.00  0.00    +0.179 C 
ATOM     27  C   UNL     1      21.418   6.511   4.604  0.00  0.00    +0.179 C 
ENDBRANCH  20  22
ENDBRANCH  17  20
ENDBRANCH  14  17
BRANCH   5  18
ATOM     18  C   UNL     1      10.297   7.378   6.672  0.00  0.00    +0.159 C 
BRANCH  18  21
ATOM      8  N   UNL     1      10.368   4.979   7.393  0.00  0.00    -0.347 N 
ATOM      9  N   UNL     1       9.206   6.348   8.701  0.00  0.00    -0.239 NA
ATOM     21  C   UNL     1       9.936   6.259   7.612  0.00  0.00    +0.121 A 
ATOM     25  C   UNL     1       9.880   4.203   8.408  0.00  0.00    +0.104 A 
ATOM     28  C   UNL     1       9.166   5.070   9.202  0.00  0.00    +0.130 A 
ATOM     30  H   UNL     1      10.943   4.663   6.624  0.00  0.00    +0.167 HD
ENDBRANCH  18  21
ENDBRANCH   5  18
TORSDOF 5
ENDMDL
MODEL 6
REMARK VINA RESULT:      -6.2     28.976     31.538
REMARK  Name = 45361082
REMARK  6 active torsions:
REMARK  status: ('A' for Active; 'I' for Inactive)
REMARK    1  A    between atoms: N_4  and  C_19
REMARK    2  A    between atoms: N_5  and  C_18
REMARK    3  A    between atoms: C_14  and  C_17
REMARK    4  A    between atoms: C_17  and  C_20
REMARK    5  A    between atoms: C_18  and  C_21
REMARK    6  A    between atoms: C_20  and  C_22
REMARK                            x       y       z     vdW  Elec       q    Type
REMARK                         _______ _______ _______ _____ _____    ______ ____
ROOT
ATOM      1  O   UNL     1      20.586   6.454  24.192  0.00  0.00    -0.274 OA
ATOM      4  N   UNL     1      19.043   6.037  20.665  0.00  0.00    -0.296 NA
ATOM      5  N   UNL     1      22.368   6.120  22.191  0.00  0.00    -0.283 NA
ATOM      6  N   UNL     1      19.158   7.764  22.973  0.00  0.00    -0.312 N 
ATOM     10  C   UNL     1      20.506   6.260  20.641  0.00  0.00    +0.084 C 
ATOM     11  C   UNL     1      21.175   6.929  21.878  0.00  0.00    +0.161 C 
ATOM     12  C   UNL     1      21.333   4.970  20.487  0.00  0.00    +0.036 C 
ATOM     13  C   UNL     1      22.705   5.369  20.987  0.00  0.00    +0.087 C 
ATOM     14  C   UNL     1      18.231   7.284  20.727  0.00  0.00    +0.074 C 
ATOM     15  C   UNL     1      20.299   6.998  23.126  0.00  0.00    +0.232 C 
ATOM     16  C   UNL     1      18.752   8.350  21.711  0.00  0.00    +0.123 C 
ATOM     19  C   UNL     1      18.621   5.209  19.522  0.00  0.00    +0.105 C 
ATOM     29  H   UNL     1      18.574   7.915  23.789  0.00  0.00    +0.149 HD
ENDROOT
BRANCH  14  17
ATOM     17  C   UNL     1      16.774   6.961  21.122  0.00  0.00    +0.029 C 
BRANCH  17  20
ATOM     20  C   UNL     1      15.783   7.877  20.431  0.00  0.00    +0.097 C 
BRANCH  20  22
ATOM      2  O   UNL     1      14.710   8.468  22.461  0.00  0.00    -0.276 OA
ATOM      3  O   UNL     1      10.861   8.234  19.363  0.00  0.00    -0.377 OA
ATOM      7  N   UNL     1      13.328   7.900  20.683  0.00  0.00    -0.297 N 
ATOM     22  C   UNL     1      14.565   8.109  21.290  0.00  0.00    +0.216 C 
ATOM     23  C   UNL     1      12.095   8.108  21.443  0.00  0.00    +0.136 C 
ATOM     24  C   UNL     1      13.122   7.353  19.338  0.00  0.00    +0.136 C 
ATOM     26  C   UNL     1      11.087   8.889  20.614  0.00  0.00    +0.179 C 
ATOM     27  C   UNL     1      12.066   8.163  18.596  0.00  0.00    +0.179 C 
ENDBRANCH  20  22
ENDBRANCH  17  20
ENDBRANCH  14  17
BRANCH   5  18
ATOM     18  C   UNL     1      23.491   6.913  22.674  0.00  0.00    +0.159 C 
BRANCH  18  21
ATOM      8  N   UNL     1      23.431   6.820  25.178  0.00  0.00    -0.347 N 
ATOM      9  N   UNL     1      24.992   5.578  24.202  0.00  0.00    -0.239 NA
ATOM     21  C   UNL     1      23.999   6.415  24.002  0.00  0.00    +0.121 A 
ATOM     25  C   UNL     1      24.106   6.202  26.193  0.00  0.00    +0.104 A 
ATOM     28  C   UNL     1      25.064   5.440  25.566  0.00  0.00    +0.130 A 
ATOM     30  H   UNL     1      22.653   7.459  25.280  0.00  0.00    +0.167 HD
ENDBRANCH  18  21
ENDBRANCH   5  18
TORSDOF 5
ENDMDL
MODEL 7
REMARK VINA RESULT:      -6.2      2.354      7.860
REMARK  Name = 45361082
REMARK  6 active torsions:
REMARK  status: ('A' for Active; 'I' for Inactive)
REMARK    1  A    between atoms: N_4  and  C_19
REMARK    2  A    between atoms: N_5  and  C_18
REMARK    3  A    between atoms: C_14  and  C_17
REMARK    4  A    between atoms: C_17  and  C_20
REMARK    5  A    between atoms: C_18  and  C_21
REMARK    6  A    between atoms: C_20  and  C_22
REMARK                            x       y       z     vdW  Elec       q    Type
REMARK                         _______ _______ _______ _____ _____    ______ ____
ROOT
ATOM      1  O   UNL     1      -6.743  -8.697  12.148  0.00  0.00    -0.274 OA
ATOM      4  N   UNL     1      -3.294 -10.372  12.693  0.00  0.00    -0.296 NA
ATOM      5  N   UNL     1      -5.418  -9.359   9.890  0.00  0.00    -0.283 NA
ATOM      6  N   UNL     1      -6.106 -10.563  13.310  0.00  0.00    -0.312 N 
ATOM     10  C   UNL     1      -3.772 -10.459  11.295  0.00  0.00    +0.084 C 
ATOM     11  C   UNL     1      -5.296 -10.299  11.021  0.00  0.00    +0.161 C 
ATOM     12  C   UNL     1      -3.165  -9.397  10.359  0.00  0.00    +0.036 C 
ATOM     13  C   UNL     1      -4.135  -9.355   9.198  0.00  0.00    +0.087 C 
ATOM     14  C   UNL     1      -3.809 -11.447  13.587  0.00  0.00    +0.074 C 
ATOM     15  C   UNL     1      -6.109  -9.750  12.192  0.00  0.00    +0.232 C 
ATOM     16  C   UNL     1      -5.307 -11.768  13.421  0.00  0.00    +0.123 C 
ATOM     19  C   UNL     1      -1.823 -10.329  12.741  0.00  0.00    +0.105 C 
ATOM     29  H   UNL     1      -6.691 -10.294  14.095  0.00  0.00    +0.149 HD
ENDROOT
BRANCH  14  17
ATOM     17  C   UNL     1      -3.576 -11.075  15.067  0.00  0.00    +0.029 C 
BRANCH  17  20
ATOM     20  C   UNL     1      -4.588 -11.735  15.984  0.00  0.00    +0.097 C 
BRANCH  20  22
ATOM      2  O   UNL     1      -5.417  -9.540  16.326  0.00  0.00    -0.276 OA
ATOM      3  O   UNL     1      -8.089 -12.108  19.602  0.00  0.00    -0.377 OA
ATOM      7  N   UNL     1      -6.101 -11.158  17.846  0.00  0.00    -0.297 N 
ATOM     22  C   UNL     1      -5.402 -10.707  16.728  0.00  0.00    +0.216 C 
ATOM     23  C   UNL     1      -6.920 -10.227  18.622  0.00  0.00    +0.136 C 
ATOM     24  C   UNL     1      -6.006 -12.503  18.423  0.00  0.00    +0.136 C 
ATOM     26  C   UNL     1      -8.270 -10.851  18.945  0.00  0.00    +0.179 C 
ATOM     27  C   UNL     1      -7.394 -13.032  18.760  0.00  0.00    +0.179 C 
ENDBRANCH  20  22
ENDBRANCH  17  20
ENDBRANCH  14  17
BRANCH   5  18
ATOM     18  C   UNL     1      -6.523  -9.676   8.994  0.00  0.00    +0.159 C 
BRANCH  18  21
ATOM      8  N   UNL     1      -7.044  -7.411   8.055  0.00  0.00    -0.347 N 
ATOM      9  N   UNL     1      -8.654  -8.351   9.260  0.00  0.00    -0.239 NA
ATOM     21  C   UNL     1      -7.436  -8.495   8.791  0.00  0.00    +0.121 A 
ATOM     25  C   UNL     1      -8.079  -6.519   8.056  0.00  0.00    +0.104 A 
ATOM     28  C   UNL     1      -9.062  -7.122   8.806  0.00  0.00    +0.130 A 
ATOM     30  H   UNL     1      -6.152  -7.290   7.592  0.00  0.00    +0.167 HD
ENDBRANCH  18  21
ENDBRANCH   5  18
TORSDOF 5
ENDMDL
MODEL 8
REMARK VINA RESULT:      -6.0      1.774      2.378
REMARK  Name = 45361082
REMARK  6 active torsions:
REMARK  status: ('A' for Active; 'I' for Inactive)
REMARK    1  A    between atoms: N_4  and  C_19
REMARK    2  A    between atoms: N_5  and  C_18
REMARK    3  A    between atoms: C_14  and  C_17
REMARK    4  A    between atoms: C_17  and  C_20
REMARK    5  A    between atoms: C_18  and  C_21
REMARK    6  A    between atoms: C_20  and  C_22
REMARK                            x       y       z     vdW  Elec       q    Type
REMARK                         _______ _______ _______ _____ _____    ______ ____
ROOT
ATOM      1  O   UNL     1      -7.363 -12.208  15.365  0.00  0.00    -0.274 OA
ATOM      4  N   UNL     1      -3.626 -11.307  14.897  0.00  0.00    -0.296 NA
ATOM      5  N   UNL     1      -6.271 -10.757  17.364  0.00  0.00    -0.283 NA
ATOM      6  N   UNL     1      -6.241 -11.120  13.692  0.00  0.00    -0.312 N 
ATOM     10  C   UNL     1      -4.272 -10.565  16.001  0.00  0.00    +0.084 C 
ATOM     11  C   UNL     1      -5.823 -10.431  15.997  0.00  0.00    +0.161 C 
ATOM     12  C   UNL     1      -4.006 -11.162  17.396  0.00  0.00    +0.036 C 
ATOM     13  C   UNL     1      -5.121 -10.588  18.244  0.00  0.00    +0.087 C 
ATOM     14  C   UNL     1      -3.806 -10.691  13.552  0.00  0.00    +0.074 C 
ATOM     15  C   UNL     1      -6.548 -11.353  15.019  0.00  0.00    +0.232 C 
ATOM     16  C   UNL     1      -5.229 -10.178  13.258  0.00  0.00    +0.123 C 
ATOM     19  C   UNL     1      -2.195 -11.519  15.174  0.00  0.00    +0.105 C 
ATOM     29  H   UNL     1      -6.748 -11.646  12.987  0.00  0.00    +0.149 HD
ENDROOT
BRANCH  14  17
ATOM     17  C   UNL     1      -3.437 -11.699  12.443  0.00  0.00    +0.029 C 
BRANCH  17  20
ATOM     20  C   UNL     1      -2.934 -11.005  11.192  0.00  0.00    +0.097 C 
BRANCH  20  22
ATOM      2  O   UNL     1      -3.761 -12.575   9.619  0.00  0.00    -0.276 OA
ATOM      3  O   UNL     1      -6.451  -8.577   8.504  0.00  0.00    -0.377 OA
ATOM      7  N   UNL     1      -4.455 -10.375   9.353  0.00  0.00    -0.297 N 
ATOM     22  C   UNL     1      -3.749 -11.397   9.985  0.00  0.00    +0.216 C 
ATOM     23  C   UNL     1      -5.275 -10.669   8.178  0.00  0.00    +0.136 C 
ATOM     24  C   UNL     1      -4.363  -8.948   9.682  0.00  0.00    +0.136 C 
ATOM     26  C   UNL     1      -6.627  -9.980   8.290  0.00  0.00    +0.179 C 
ATOM     27  C   UNL     1      -5.753  -8.327   9.727  0.00  0.00    +0.179 C 
ENDBRANCH  20  22
ENDBRANCH  17  20
ENDBRANCH  14  17
BRANCH   5  18
ATOM     18  C   UNL     1      -7.415  -9.967  17.800  0.00  0.00    +0.159 C 
BRANCH  18  21
ATOM      8  N   UNL     1      -9.370 -10.169  19.355  0.00  0.00    -0.347 N 
ATOM      9  N   UNL     1      -8.335 -12.069  18.852  0.00  0.00    -0.239 NA
ATOM     21  C   UNL     1      -8.356 -10.769  18.661  0.00  0.00    +0.121 A 
ATOM     25  C   UNL     1     -10.038 -11.151  20.033  0.00  0.00    +0.104 A 
ATOM     28  C   UNL     1      -9.381 -12.314  19.706  0.00  0.00    +0.130 A 
ATOM     30  H   UNL     1      -9.588  -9.182  19.366  0.00  0.00    +0.167 HD
ENDBRANCH  18  21
ENDBRANCH   5  18
TORSDOF 5
ENDMDL
MODEL 9
REMARK VINA RESULT:      -5.9      3.084      5.097
REMARK  Name = 45361082
REMARK  6 active torsions:
REMARK  status: ('A' for Active; 'I' for Inactive)
REMARK    1  A    between atoms: N_4  and  C_19
REMARK    2  A    between atoms: N_5  and  C_18
REMARK    3  A    between atoms: C_14  and  C_17
REMARK    4  A    between atoms: C_17  and  C_20
REMARK    5  A    between atoms: C_18  and  C_21
REMARK    6  A    between atoms: C_20  and  C_22
REMARK                            x       y       z     vdW  Elec       q    Type
REMARK                         _______ _______ _______ _____ _____    ______ ____
ROOT
ATOM      1  O   UNL     1      -8.053  -8.886  16.848  0.00  0.00    -0.274 OA
ATOM      4  N   UNL     1      -7.841 -12.622  17.847  0.00  0.00    -0.296 NA
ATOM      5  N   UNL     1     -10.429 -10.104  17.252  0.00  0.00    -0.283 NA
ATOM      6  N   UNL     1      -6.982  -9.961  18.561  0.00  0.00    -0.312 N 
ATOM     10  C   UNL     1      -9.192 -12.045  18.022  0.00  0.00    +0.084 C 
ATOM     11  C   UNL     1      -9.328 -10.500  18.151  0.00  0.00    +0.161 C 
ATOM     12  C   UNL     1     -10.160 -12.357  16.866  0.00  0.00    +0.036 C 
ATOM     13  C   UNL     1     -11.232 -11.297  17.007  0.00  0.00    +0.087 C 
ATOM     14  C   UNL     1      -6.922 -12.399  18.998  0.00  0.00    +0.074 C 
ATOM     15  C   UNL     1      -8.082  -9.707  17.764  0.00  0.00    +0.232 C 
ATOM     16  C   UNL     1      -6.960 -10.978  19.594  0.00  0.00    +0.123 C 
ATOM     19  C   UNL     1      -7.921 -14.057  17.528  0.00  0.00    +0.105 C 
ATOM     29  H   UNL     1      -6.144  -9.410  18.406  0.00  0.00    +0.149 HD
ENDROOT
BRANCH  14  17
ATOM     17  C   UNL     1      -5.462 -12.690  18.588  0.00  0.00    +0.029 C 
BRANCH  17  20
ATOM     20  C   UNL     1      -5.302 -12.765  17.081  0.00  0.00    +0.097 C 
BRANCH  20  22
ATOM      2  O   UNL     1      -4.377 -10.586  17.213  0.00  0.00    -0.276 OA
ATOM      3  O   UNL     1      -1.832 -12.490  13.424  0.00  0.00    -0.377 OA
ATOM      7  N   UNL     1      -3.770 -11.862  15.370  0.00  0.00    -0.297 N 
ATOM     22  C   UNL     1      -4.445 -11.635  16.568  0.00  0.00    +0.216 C 
ATOM     23  C   UNL     1      -2.913 -10.820  14.804  0.00  0.00    +0.136 C 
ATOM     24  C   UNL     1      -3.926 -13.043  14.515  0.00  0.00    +0.136 C 
ATOM     26  C   UNL     1      -1.594 -11.415  14.336  0.00  0.00    +0.179 C 
ATOM     27  C   UNL     1      -2.564 -13.545  14.054  0.00  0.00    +0.179 C 
ENDBRANCH  20  22
ENDBRANCH  17  20
ENDBRANCH  14  17
BRANCH   5  18
ATOM     18  C   UNL     1     -11.229  -9.002  17.770  0.00  0.00    +0.159 C 
BRANCH  18  21
ATOM      8  N   UNL     1     -10.340  -6.995  16.562  0.00  0.00    -0.347 N 
ATOM      9  N   UNL     1     -12.397  -7.623  16.009  0.00  0.00    -0.239 NA
ATOM     21  C   UNL     1     -11.358  -7.884  16.770  0.00  0.00    +0.121 A 
ATOM     25  C   UNL     1     -10.757  -6.110  15.607  0.00  0.00    +0.104 A 
ATOM     28  C   UNL     1     -12.029  -6.519  15.281  0.00  0.00    +0.130 A 
ATOM     30  H   UNL     1      -9.442  -6.991  17.027  0.00  0.00    +0.167 HD
ENDBRANCH  18  21
ENDBRANCH   5  18
TORSDOF 5
ENDMDL
MODEL 10
REMARK VINA RESULT:      -5.8     25.543     27.066
REMARK  Name = 45361082
REMARK  6 active torsions:
REMARK  status: ('A' for Active; 'I' for Inactive)
REMARK    1  A    between atoms: N_4  and  C_19
REMARK    2  A    between atoms: N_5  and  C_18
REMARK    3  A    between atoms: C_14  and  C_17
REMARK    4  A    between atoms: C_17  and  C_20
REMARK    5  A    between atoms: C_18  and  C_21
REMARK    6  A    between atoms: C_20  and  C_22
REMARK                            x       y       z     vdW  Elec       q    Type
REMARK                         _______ _______ _______ _____ _____    ______ ____
ROOT
ATOM      1  O   UNL     1      12.228   8.081   6.715  0.00  0.00    -0.274 OA
ATOM      4  N   UNL     1      10.090   7.286   3.585  0.00  0.00    -0.296 NA
ATOM      5  N   UNL     1       9.772   9.205   6.685  0.00  0.00    -0.283 NA
ATOM      6  N   UNL     1      11.557   6.106   5.772  0.00  0.00    -0.312 N 
ATOM     10  C   UNL     1       9.318   7.923   4.675  0.00  0.00    +0.084 C 
ATOM     11  C   UNL     1       9.877   7.844   6.125  0.00  0.00    +0.161 C 
ATOM     12  C   UNL     1       9.112   9.438   4.492  0.00  0.00    +0.036 C 
ATOM     13  C   UNL     1       8.782   9.920   5.889  0.00  0.00    +0.087 C 
ATOM     14  C   UNL     1      10.223   5.807   3.707  0.00  0.00    +0.074 C 
ATOM     15  C   UNL     1      11.331   7.390   6.233  0.00  0.00    +0.232 C 
ATOM     16  C   UNL     1      10.541   5.298   5.126  0.00  0.00    +0.123 C 
ATOM     19  C   UNL     1       9.533   7.643   2.269  0.00  0.00    +0.105 C 
ATOM     29  H   UNL     1      12.486   5.716   5.888  0.00  0.00    +0.149 HD
ENDROOT
BRANCH  14  17
ATOM     17  C   UNL     1      11.331   5.285   2.767  0.00  0.00    +0.029 C 
BRANCH  17  20
ATOM     20  C   UNL     1      10.937   3.983   2.096  0.00  0.00    +0.097 C 
BRANCH  20  22
ATOM      2  O   UNL     1       9.669   4.598   0.190  0.00  0.00    -0.276 OA
ATOM      3  O   UNL     1      14.147   3.931  -1.801  0.00  0.00    -0.377 OA
ATOM      7  N   UNL     1      11.830   3.843  -0.200  0.00  0.00    -0.297 N 
ATOM     22  C   UNL     1      10.746   4.171   0.612  0.00  0.00    +0.216 C 
ATOM     23  C   UNL     1      11.731   4.000  -1.651  0.00  0.00    +0.136 C 
ATOM     24  C   UNL     1      13.075   3.215   0.254  0.00  0.00    +0.136 C 
ATOM     26  C   UNL     1      12.986   4.664  -2.199  0.00  0.00    +0.179 C 
ATOM     27  C   UNL     1      14.276   3.908  -0.377  0.00  0.00    +0.179 C 
ENDBRANCH  20  22
ENDBRANCH  17  20
ENDBRANCH  14  17
BRANCH   5  18
ATOM     18  C   UNL     1       9.449   9.221   8.106  0.00  0.00    +0.159 C 
BRANCH  18  21
ATOM      8  N   UNL     1       9.475  11.165   9.687  0.00  0.00    -0.347 N 
ATOM      9  N   UNL     1      11.420  10.663   8.741  0.00  0.00    -0.239 NA
ATOM     21  C   UNL     1      10.149  10.341   8.828  0.00  0.00    +0.121 A 
ATOM     25  C   UNL     1      10.374  12.070  10.178  0.00  0.00    +0.104 A 
ATOM     28  C   UNL     1      11.568  11.740   9.579  0.00  0.00    +0.130 A 
ATOM     30  H   UNL     1       8.491  11.115   9.919  0.00  0.00    +0.167 HD
ENDBRANCH  18  21
ENDBRANCH   5  18
TORSDOF 5
ENDMDL
