MODEL 1
REMARK VINA RESULT:      -6.8      0.000      0.000
REMARK  Name = 28960844
REMARK  9 active torsions:
REMARK  status: ('A' for Active; 'I' for Inactive)
REMARK    1  A    between atoms: N_3  and  C_13
REMARK    2  A    between atoms: N_4  and  C_8
REMARK    3  A    between atoms: N_7  and  C_23
REMARK    4  A    between atoms: N_7  and  C_28
REMARK    5  A    between atoms: N_7  and  C_29
REMARK    6  A    between atoms: C_9  and  C_12
REMARK    7  A    between atoms: C_14  and  C_16
REMARK    8  A    between atoms: C_15  and  C_17
REMARK    9  A    between atoms: C_17  and  C_20
REMARK                            x       y       z     vdW  Elec       q    Type
REMARK                         _______ _______ _______ _____ _____    ______ ____
ROOT
ATOM      3  N   UNL     1      -3.095 -12.857  13.976  0.00  0.00    -0.293 NA
ATOM      8  C   UNL     1      -1.989 -11.454  12.478  0.00  0.00    +0.089 C 
ATOM      9  C   UNL     1      -2.595 -11.759  14.825  0.00  0.00    +0.147 C 
ATOM     10  C   UNL     1      -1.993 -10.745  13.833  0.00  0.00    +0.052 C 
ATOM     11  C   UNL     1      -2.186 -12.923  12.828  0.00  0.00    +0.107 C 
ATOM     13  C   UNL     1      -3.178 -14.132  14.677  0.00  0.00    +0.105 C 
ENDROOT
BRANCH   9  12
ATOM      1  O   UNL     1      -4.589 -10.370  15.087  0.00  0.00    -0.336 OA
ATOM      5  N   UNL     1      -3.826 -11.245  17.002  0.00  0.00    -0.194 NA
ATOM      6  N   UNL     1      -5.452  -9.918  16.094  0.00  0.00    -0.061 NA
ATOM     12  C   UNL     1      -3.661 -11.144  15.708  0.00  0.00    +0.245 A 
ATOM     15  C   UNL     1      -4.937 -10.477  17.193  0.00  0.00    +0.176 A 
BRANCH  15  17
ATOM     17  C   UNL     1      -5.529 -10.272  18.519  0.00  0.00    +0.114 C 
BRANCH  17  20
ATOM     20  C   UNL     1      -6.847 -11.006  18.750  0.00  0.00    -0.040 A 
ATOM     24  C   UNL     1      -8.047 -10.436  18.327  0.00  0.00    +0.004 A 
ATOM     25  C   UNL     1      -6.851 -12.247  19.386  0.00  0.00    +0.004 A 
ATOM     26  C   UNL     1      -9.252 -11.107  18.537  0.00  0.00    +0.000 A 
ATOM     27  C   UNL     1      -8.055 -12.919  19.598  0.00  0.00    +0.000 A 
ATOM     30  C   UNL     1      -9.255 -12.349  19.173  0.00  0.00    +0.000 A 
ENDBRANCH  17  20
ENDBRANCH  15  17
ENDBRANCH   9  12
BRANCH   8   4
ATOM      2  O   UNL     1      -1.854  -9.217  10.684  0.00  0.00    -0.270 OA
ATOM      4  N   UNL     1      -3.046 -10.971  11.622  0.00  0.00    -0.307 N 
ATOM     14  C   UNL     1      -2.885  -9.877  10.786  0.00  0.00    +0.244 C 
ATOM     31  H   UNL     1      -3.924 -11.477  11.649  0.00  0.00    +0.149 HD
BRANCH  14  16
ATOM     16  C   UNL     1      -4.076  -9.490   9.988  0.00  0.00    +0.037 A 
ATOM     18  C   UNL     1      -4.415 -10.214   8.845  0.00  0.00    +0.015 A 
ATOM     19  C   UNL     1      -4.856  -8.402  10.381  0.00  0.00    +0.015 A 
ATOM     21  C   UNL     1      -5.534  -9.850   8.095  0.00  0.00    +0.024 A 
ATOM     22  C   UNL     1      -5.974  -8.037   9.630  0.00  0.00    +0.024 A 
ATOM     23  C   UNL     1      -6.313  -8.762   8.487  0.00  0.00    +0.029 A 
BRANCH  23   7
ATOM      7  N   UNL     1      -7.443  -8.393   7.730  0.00  0.00    -0.336 N 
ATOM     28  C   UNL     1      -7.935  -9.259   6.677  0.00  0.00    +0.129 C 
ATOM     29  C   UNL     1      -8.133  -7.147   8.000  0.00  0.00    +0.129 C 
ENDBRANCH  23   7
ENDBRANCH  14  16
ENDBRANCH   8   4
TORSDOF 6
ENDMDL
MODEL 2
REMARK VINA RESULT:      -6.6     25.281     28.338
REMARK  Name = 28960844
REMARK  9 active torsions:
REMARK  status: ('A' for Active; 'I' for Inactive)
REMARK    1  A    between atoms: N_3  and  C_13
REMARK    2  A    between atoms: N_4  and  C_8
REMARK    3  A    between atoms: N_7  and  C_23
REMARK    4  A    between atoms: N_7  and  C_28
REMARK    5  A    between atoms: N_7  and  C_29
REMARK    6  A    between atoms: C_9  and  C_12
REMARK    7  A    between atoms: C_14  and  C_16
REMARK    8  A    between atoms: C_15  and  C_17
REMARK    9  A    between atoms: C_17  and  C_20
REMARK                            x       y       z     vdW  Elec       q    Type
REMARK                         _______ _______ _______ _____ _____    ______ ____
ROOT
ATOM      3  N   UNL     1      11.998   8.845   6.284  0.00  0.00    -0.293 NA
ATOM      8  C   UNL     1      11.664   6.538   6.355  0.00  0.00    +0.089 C 
ATOM      9  C   UNL     1      13.214   8.333   6.944  0.00  0.00    +0.147 C 
ATOM     10  C   UNL     1      13.082   6.799   6.864  0.00  0.00    +0.052 C 
ATOM     11  C   UNL     1      10.945   7.864   6.565  0.00  0.00    +0.107 C 
ATOM     13  C   UNL     1      11.625  10.183   6.725  0.00  0.00    +0.105 C 
ENDROOT
BRANCH   9  12
ATOM      1  O   UNL     1      14.923  10.066   6.721  0.00  0.00    -0.336 OA
ATOM      5  N   UNL     1      15.273   8.265   5.438  0.00  0.00    -0.194 NA
ATOM      6  N   UNL     1      16.108  10.314   6.016  0.00  0.00    -0.061 NA
ATOM     12  C   UNL     1      14.498   8.839   6.321  0.00  0.00    +0.245 A 
ATOM     15  C   UNL     1      16.248   9.206   5.282  0.00  0.00    +0.176 A 
BRANCH  15  17
ATOM     17  C   UNL     1      17.378   9.020   4.365  0.00  0.00    +0.114 C 
BRANCH  17  20
ATOM     20  C   UNL     1      18.661   8.522   5.026  0.00  0.00    -0.040 A 
ATOM     24  C   UNL     1      18.944   8.865   6.348  0.00  0.00    +0.004 A 
ATOM     25  C   UNL     1      19.550   7.725   4.306  0.00  0.00    +0.004 A 
ATOM     26  C   UNL     1      20.116   8.410   6.951  0.00  0.00    +0.000 A 
ATOM     27  C   UNL     1      20.723   7.270   4.909  0.00  0.00    +0.000 A 
ATOM     30  C   UNL     1      21.006   7.612   6.231  0.00  0.00    +0.000 A 
ENDBRANCH  17  20
ENDBRANCH  15  17
ENDBRANCH   9  12
BRANCH   8   4
ATOM      2  O   UNL     1       9.723   4.882   5.039  0.00  0.00    -0.270 OA
ATOM      4  N   UNL     1      11.661   6.153   4.964  0.00  0.00    -0.307 N 
ATOM     14  C   UNL     1      10.676   5.346   4.417  0.00  0.00    +0.244 C 
ATOM     31  H   UNL     1      12.416   6.510   4.388  0.00  0.00    +0.149 HD
BRANCH  14  16
ATOM     16  C   UNL     1      10.830   5.020   2.977  0.00  0.00    +0.037 A 
ATOM     18  C   UNL     1      11.661   3.970   2.585  0.00  0.00    +0.015 A 
ATOM     19  C   UNL     1      10.147   5.764   2.015  0.00  0.00    +0.015 A 
ATOM     21  C   UNL     1      11.807   3.663   1.232  0.00  0.00    +0.024 A 
ATOM     22  C   UNL     1      10.294   5.459   0.662  0.00  0.00    +0.024 A 
ATOM     23  C   UNL     1      11.124   4.408   0.271  0.00  0.00    +0.029 A 
BRANCH  23   7
ATOM      7  N   UNL     1      11.271   4.100  -1.098  0.00  0.00    -0.336 N 
ATOM     28  C   UNL     1      12.266   3.139  -1.530  0.00  0.00    +0.129 C 
ATOM     29  C   UNL     1      10.423   4.733  -2.088  0.00  0.00    +0.129 C 
ENDBRANCH  23   7
ENDBRANCH  14  16
ENDBRANCH   8   4
TORSDOF 6
ENDMDL
MODEL 3
REMARK VINA RESULT:      -6.6      2.754      7.617
REMARK  Name = 28960844
REMARK  9 active torsions:
REMARK  status: ('A' for Active; 'I' for Inactive)
REMARK    1  A    between atoms: N_3  and  C_13
REMARK    2  A    between atoms: N_4  and  C_8
REMARK    3  A    between atoms: N_7  and  C_23
REMARK    4  A    between atoms: N_7  and  C_28
REMARK    5  A    between atoms: N_7  and  C_29
REMARK    6  A    between atoms: C_9  and  C_12
REMARK    7  A    between atoms: C_14  and  C_16
REMARK    8  A    between atoms: C_15  and  C_17
REMARK    9  A    between atoms: C_17  and  C_20
REMARK                            x       y       z     vdW  Elec       q    Type
REMARK                         _______ _______ _______ _____ _____    ______ ____
ROOT
ATOM      3  N   UNL     1      -2.912 -10.735  15.731  0.00  0.00    -0.293 NA
ATOM      8  C   UNL     1      -4.789 -11.876  16.514  0.00  0.00    +0.089 C 
ATOM      9  C   UNL     1      -3.029 -11.889  14.819  0.00  0.00    +0.147 C 
ATOM     10  C   UNL     1      -4.350 -12.571  15.225  0.00  0.00    +0.052 C 
ATOM     11  C   UNL     1      -3.537 -11.153  16.990  0.00  0.00    +0.107 C 
ATOM     13  C   UNL     1      -1.537 -10.294  15.926  0.00  0.00    +0.105 C 
ENDROOT
BRANCH   9  12
ATOM      1  O   UNL     1      -2.953 -12.531  12.462  0.00  0.00    -0.336 OA
ATOM      5  N   UNL     1      -3.007 -10.318  12.807  0.00  0.00    -0.194 NA
ATOM      6  N   UNL     1      -2.929 -11.938  11.193  0.00  0.00    -0.061 NA
ATOM     12  C   UNL     1      -2.999 -11.507  13.354  0.00  0.00    +0.245 A 
ATOM     15  C   UNL     1      -2.964 -10.633  11.480  0.00  0.00    +0.176 A 
BRANCH  15  17
ATOM     17  C   UNL     1      -2.953  -9.607  10.432  0.00  0.00    +0.114 C 
BRANCH  17  20
ATOM     20  C   UNL     1      -4.288  -9.409   9.718  0.00  0.00    -0.040 A 
ATOM     24  C   UNL     1      -5.316  -8.703  10.342  0.00  0.00    +0.004 A 
ATOM     25  C   UNL     1      -4.479  -9.936   8.441  0.00  0.00    +0.004 A 
ATOM     26  C   UNL     1      -6.535  -8.522   9.689  0.00  0.00    +0.000 A 
ATOM     27  C   UNL     1      -5.698  -9.756   7.787  0.00  0.00    +0.000 A 
ATOM     30  C   UNL     1      -6.726  -9.049   8.411  0.00  0.00    +0.000 A 
ENDBRANCH  17  20
ENDBRANCH  15  17
ENDBRANCH   9  12
BRANCH   8   4
ATOM      2  O   UNL     1      -7.485 -12.109  17.475  0.00  0.00    -0.270 OA
ATOM      4  N   UNL     1      -5.872 -10.950  16.277  0.00  0.00    -0.307 N 
ATOM     14  C   UNL     1      -7.146 -11.150  16.786  0.00  0.00    +0.244 C 
ATOM     31  H   UNL     1      -5.659 -10.129  15.722  0.00  0.00    +0.149 HD
BRANCH  14  16
ATOM     16  C   UNL     1      -8.154 -10.120  16.429  0.00  0.00    +0.037 A 
ATOM     18  C   UNL     1      -8.482  -9.119  17.344  0.00  0.00    +0.015 A 
ATOM     19  C   UNL     1      -8.775 -10.154  15.181  0.00  0.00    +0.015 A 
ATOM     21  C   UNL     1      -9.430  -8.152  17.010  0.00  0.00    +0.024 A 
ATOM     22  C   UNL     1      -9.724  -9.187  14.847  0.00  0.00    +0.024 A 
ATOM     23  C   UNL     1     -10.052  -8.186  15.763  0.00  0.00    +0.029 A 
BRANCH  23   7
ATOM      7  N   UNL     1     -11.010  -7.209  15.424  0.00  0.00    -0.336 N 
ATOM     28  C   UNL     1     -11.840  -7.374  14.247  0.00  0.00    +0.129 C 
ATOM     29  C   UNL     1     -11.184  -6.032  16.252  0.00  0.00    +0.129 C 
ENDBRANCH  23   7
ENDBRANCH  14  16
ENDBRANCH   8   4
TORSDOF 6
ENDMDL
MODEL 4
REMARK VINA RESULT:      -6.6      4.558      9.462
REMARK  Name = 28960844
REMARK  9 active torsions:
REMARK  status: ('A' for Active; 'I' for Inactive)
REMARK    1  A    between atoms: N_3  and  C_13
REMARK    2  A    between atoms: N_4  and  C_8
REMARK    3  A    between atoms: N_7  and  C_23
REMARK    4  A    between atoms: N_7  and  C_28
REMARK    5  A    between atoms: N_7  and  C_29
REMARK    6  A    between atoms: C_9  and  C_12
REMARK    7  A    between atoms: C_14  and  C_16
REMARK    8  A    between atoms: C_15  and  C_17
REMARK    9  A    between atoms: C_17  and  C_20
REMARK                            x       y       z     vdW  Elec       q    Type
REMARK                         _______ _______ _______ _____ _____    ______ ____
ROOT
ATOM      3  N   UNL     1     -11.622 -10.344  16.739  0.00  0.00    -0.293 NA
ATOM      8  C   UNL     1     -10.128 -10.495  18.523  0.00  0.00    +0.089 C 
ATOM      9  C   UNL     1     -11.792  -9.063  17.450  0.00  0.00    +0.147 C 
ATOM     10  C   UNL     1     -10.705  -9.079  18.543  0.00  0.00    +0.052 C 
ATOM     11  C   UNL     1     -11.157 -11.304  17.746  0.00  0.00    +0.107 C 
ATOM     13  C   UNL     1     -12.838 -10.798  16.076  0.00  0.00    +0.105 C 
ENDROOT
BRANCH   9  12
ATOM      1  O   UNL     1     -10.434  -7.407  16.271  0.00  0.00    -0.336 OA
ATOM      5  N   UNL     1     -12.640  -7.153  15.983  0.00  0.00    -0.194 NA
ATOM      6  N   UNL     1     -10.592  -6.295  15.434  0.00  0.00    -0.061 NA
ATOM     12  C   UNL     1     -11.688  -7.852  16.546  0.00  0.00    +0.245 A 
ATOM     15  C   UNL     1     -11.920  -6.210  15.310  0.00  0.00    +0.176 A 
BRANCH  15  17
ATOM     17  C   UNL     1     -12.559  -5.165  14.504  0.00  0.00    +0.114 C 
BRANCH  17  20
ATOM     20  C   UNL     1     -12.405  -5.338  12.996  0.00  0.00    -0.040 A 
ATOM     24  C   UNL     1     -12.537  -6.602  12.421  0.00  0.00    +0.004 A 
ATOM     25  C   UNL     1     -12.133  -4.232  12.192  0.00  0.00    +0.004 A 
ATOM     26  C   UNL     1     -12.397  -6.760  11.042  0.00  0.00    +0.000 A 
ATOM     27  C   UNL     1     -11.992  -4.389  10.813  0.00  0.00    +0.000 A 
ATOM     30  C   UNL     1     -12.124  -5.653  10.238  0.00  0.00    +0.000 A 
ENDBRANCH  17  20
ENDBRANCH  15  17
ENDBRANCH   9  12
BRANCH   8   4
ATOM      2  O   UNL     1      -7.578 -10.760  19.816  0.00  0.00    -0.270 OA
ATOM      4  N   UNL     1      -8.836 -10.533  17.880  0.00  0.00    -0.307 N 
ATOM     14  C   UNL     1      -7.654 -10.665  18.593  0.00  0.00    +0.244 C 
ATOM     31  H   UNL     1      -8.825 -10.469  16.869  0.00  0.00    +0.149 HD
BRANCH  14  16
ATOM     16  C   UNL     1      -6.407 -10.661  17.787  0.00  0.00    +0.037 A 
ATOM     18  C   UNL     1      -5.269 -11.315  18.260  0.00  0.00    +0.015 A 
ATOM     19  C   UNL     1      -6.372 -10.001  16.559  0.00  0.00    +0.015 A 
ATOM     21  C   UNL     1      -4.097 -11.312  17.503  0.00  0.00    +0.024 A 
ATOM     22  C   UNL     1      -5.200  -9.996  15.803  0.00  0.00    +0.024 A 
ATOM     23  C   UNL     1      -4.062 -10.651  16.275  0.00  0.00    +0.029 A 
BRANCH  23   7
ATOM      7  N   UNL     1      -2.878 -10.646  15.510  0.00  0.00    -0.336 N 
ATOM     28  C   UNL     1      -2.942 -10.651  14.062  0.00  0.00    +0.129 C 
ATOM     29  C   UNL     1      -1.583 -10.628  16.160  0.00  0.00    +0.129 C 
ENDBRANCH  23   7
ENDBRANCH  14  16
ENDBRANCH   8   4
TORSDOF 6
ENDMDL
MODEL 5
REMARK VINA RESULT:      -6.5      3.257      4.528
REMARK  Name = 28960844
REMARK  9 active torsions:
REMARK  status: ('A' for Active; 'I' for Inactive)
REMARK    1  A    between atoms: N_3  and  C_13
REMARK    2  A    between atoms: N_4  and  C_8
REMARK    3  A    between atoms: N_7  and  C_23
REMARK    4  A    between atoms: N_7  and  C_28
REMARK    5  A    between atoms: N_7  and  C_29
REMARK    6  A    between atoms: C_9  and  C_12
REMARK    7  A    between atoms: C_14  and  C_16
REMARK    8  A    between atoms: C_15  and  C_17
REMARK    9  A    between atoms: C_17  and  C_20
REMARK                            x       y       z     vdW  Elec       q    Type
REMARK                         _______ _______ _______ _____ _____    ______ ____
ROOT
ATOM      3  N   UNL     1      -5.748 -11.988  16.573  0.00  0.00    -0.293 NA
ATOM      8  C   UNL     1      -3.807 -11.091  15.644  0.00  0.00    +0.089 C 
ATOM      9  C   UNL     1      -5.735 -10.597  17.062  0.00  0.00    +0.147 C 
ATOM     10  C   UNL     1      -4.542  -9.943  16.337  0.00  0.00    +0.052 C 
ATOM     11  C   UNL     1      -4.347 -12.341  16.326  0.00  0.00    +0.107 C 
ATOM     13  C   UNL     1      -6.386 -12.916  17.499  0.00  0.00    +0.105 C 
ENDROOT
BRANCH   9  12
ATOM      1  O   UNL     1      -7.512  -9.871  15.549  0.00  0.00    -0.336 OA
ATOM      5  N   UNL     1      -7.782  -9.197  17.668  0.00  0.00    -0.194 NA
ATOM      6  N   UNL     1      -8.703  -9.133  15.575  0.00  0.00    -0.061 NA
ATOM     12  C   UNL     1      -7.036  -9.859  16.821  0.00  0.00    +0.245 A 
ATOM     15  C   UNL     1      -8.793  -8.771  16.858  0.00  0.00    +0.176 A 
BRANCH  15  17
ATOM     17  C   UNL     1      -9.910  -7.962  17.359  0.00  0.00    +0.114 C 
BRANCH  17  20
ATOM     20  C   UNL     1     -10.891  -7.494  16.288  0.00  0.00    -0.040 A 
ATOM     24  C   UNL     1     -10.754  -6.228  15.720  0.00  0.00    +0.004 A 
ATOM     25  C   UNL     1     -11.927  -8.333  15.878  0.00  0.00    +0.004 A 
ATOM     26  C   UNL     1     -11.650  -5.800  14.741  0.00  0.00    +0.000 A 
ATOM     27  C   UNL     1     -12.824  -7.907  14.899  0.00  0.00    +0.000 A 
ATOM     30  C   UNL     1     -12.686  -6.640  14.330  0.00  0.00    +0.000 A 
ENDBRANCH  17  20
ENDBRANCH  15  17
ENDBRANCH   9  12
BRANCH   8   4
ATOM      2  O   UNL     1      -1.985 -10.350  13.553  0.00  0.00    -0.270 OA
ATOM      4  N   UNL     1      -4.070 -11.111  14.225  0.00  0.00    -0.307 N 
ATOM     14  C   UNL     1      -3.122 -10.733  13.287  0.00  0.00    +0.244 C 
ATOM     31  H   UNL     1      -4.988 -11.427  13.933  0.00  0.00    +0.149 HD
BRANCH  14  16
ATOM     16  C   UNL     1      -3.556 -10.785  11.869  0.00  0.00    +0.037 A 
ATOM     18  C   UNL     1      -3.741 -12.017  11.240  0.00  0.00    +0.015 A 
ATOM     19  C   UNL     1      -3.779  -9.602  11.163  0.00  0.00    +0.015 A 
ATOM     21  C   UNL     1      -4.149 -12.065   9.907  0.00  0.00    +0.024 A 
ATOM     22  C   UNL     1      -4.186  -9.651   9.830  0.00  0.00    +0.024 A 
ATOM     23  C   UNL     1      -4.370 -10.883   9.201  0.00  0.00    +0.029 A 
BRANCH  23   7
ATOM      7  N   UNL     1      -4.782 -10.931   7.854  0.00  0.00    -0.336 N 
ATOM     28  C   UNL     1      -4.397 -12.044   7.008  0.00  0.00    +0.129 C 
ATOM     29  C   UNL     1      -5.602  -9.873   7.298  0.00  0.00    +0.129 C 
ENDBRANCH  23   7
ENDBRANCH  14  16
ENDBRANCH   8   4
TORSDOF 6
ENDMDL
MODEL 6
REMARK VINA RESULT:      -6.5     23.323     27.375
REMARK  Name = 28960844
REMARK  9 active torsions:
REMARK  status: ('A' for Active; 'I' for Inactive)
REMARK    1  A    between atoms: N_3  and  C_13
REMARK    2  A    between atoms: N_4  and  C_8
REMARK    3  A    between atoms: N_7  and  C_23
REMARK    4  A    between atoms: N_7  and  C_28
REMARK    5  A    between atoms: N_7  and  C_29
REMARK    6  A    between atoms: C_9  and  C_12
REMARK    7  A    between atoms: C_14  and  C_16
REMARK    8  A    between atoms: C_15  and  C_17
REMARK    9  A    between atoms: C_17  and  C_20
REMARK                            x       y       z     vdW  Elec       q    Type
REMARK                         _______ _______ _______ _____ _____    ______ ____
ROOT
ATOM      3  N   UNL     1     -14.100   9.900  32.541  0.00  0.00    -0.293 NA
ATOM      8  C   UNL     1     -13.183   8.137  33.762  0.00  0.00    +0.089 C 
ATOM      9  C   UNL     1     -12.653  10.181  32.532  0.00  0.00    +0.147 C 
ATOM     10  C   UNL     1     -12.014   8.948  33.202  0.00  0.00    +0.052 C 
ATOM     11  C   UNL     1     -14.350   9.116  33.755  0.00  0.00    +0.107 C 
ATOM     13  C   UNL     1     -14.920  11.105  32.495  0.00  0.00    +0.105 C 
ENDROOT
BRANCH   9  12
ATOM      1  O   UNL     1     -11.769  11.730  30.860  0.00  0.00    -0.336 OA
ATOM      5  N   UNL     1     -11.882   9.603  30.168  0.00  0.00    -0.194 NA
ATOM      6  N   UNL     1     -11.288  11.721  29.544  0.00  0.00    -0.061 NA
ATOM     12  C   UNL     1     -12.096  10.443  31.148  0.00  0.00    +0.245 A 
ATOM     15  C   UNL     1     -11.386  10.432  29.206  0.00  0.00    +0.176 A 
BRANCH  15  17
ATOM     17  C   UNL     1     -10.987   9.945  27.881  0.00  0.00    +0.114 C 
BRANCH  17  20
ATOM     20  C   UNL     1     -11.922  10.345  26.744  0.00  0.00    -0.040 A 
ATOM     24  C   UNL     1     -11.397  10.750  25.517  0.00  0.00    +0.004 A 
ATOM     25  C   UNL     1     -13.303  10.306  26.932  0.00  0.00    +0.004 A 
ATOM     26  C   UNL     1     -12.252  11.115  24.478  0.00  0.00    +0.000 A 
ATOM     27  C   UNL     1     -14.160  10.672  25.893  0.00  0.00    +0.000 A 
ATOM     30  C   UNL     1     -13.634  11.076  24.666  0.00  0.00    +0.000 A 
ENDBRANCH  17  20
ENDBRANCH  15  17
ENDBRANCH   9  12
BRANCH   8   4
ATOM      2  O   UNL     1     -14.311   5.650  34.649  0.00  0.00    -0.270 OA
ATOM      4  N   UNL     1     -13.464   6.979  32.947  0.00  0.00    -0.307 N 
ATOM     14  C   UNL     1     -14.013   5.818  33.468  0.00  0.00    +0.244 C 
ATOM     31  H   UNL     1     -13.251   7.052  31.958  0.00  0.00    +0.149 HD
BRANCH  14  16
ATOM     16  C   UNL     1     -14.217   4.707  32.504  0.00  0.00    +0.037 A 
ATOM     18  C   UNL     1     -15.499   4.416  32.037  0.00  0.00    +0.015 A 
ATOM     19  C   UNL     1     -13.128   3.954  32.066  0.00  0.00    +0.015 A 
ATOM     21  C   UNL     1     -15.691   3.372  31.132  0.00  0.00    +0.024 A 
ATOM     22  C   UNL     1     -13.320   2.910  31.162  0.00  0.00    +0.024 A 
ATOM     23  C   UNL     1     -14.602   2.619  30.694  0.00  0.00    +0.029 A 
BRANCH  23   7
ATOM      7  N   UNL     1     -14.795   1.563  29.780  0.00  0.00    -0.336 N 
ATOM     28  C   UNL     1     -13.959   0.381  29.838  0.00  0.00    +0.129 C 
ATOM     29  C   UNL     1     -15.836   1.643  28.774  0.00  0.00    +0.129 C 
ENDBRANCH  23   7
ENDBRANCH  14  16
ENDBRANCH   8   4
TORSDOF 6
ENDMDL
MODEL 7
REMARK VINA RESULT:      -6.3     22.698     26.636
REMARK  Name = 28960844
REMARK  9 active torsions:
REMARK  status: ('A' for Active; 'I' for Inactive)
REMARK    1  A    between atoms: N_3  and  C_13
REMARK    2  A    between atoms: N_4  and  C_8
REMARK    3  A    between atoms: N_7  and  C_23
REMARK    4  A    between atoms: N_7  and  C_28
REMARK    5  A    between atoms: N_7  and  C_29
REMARK    6  A    between atoms: C_9  and  C_12
REMARK    7  A    between atoms: C_14  and  C_16
REMARK    8  A    between atoms: C_15  and  C_17
REMARK    9  A    between atoms: C_17  and  C_20
REMARK                            x       y       z     vdW  Elec       q    Type
REMARK                         _______ _______ _______ _____ _____    ______ ____
ROOT
ATOM      3  N   UNL     1     -15.632   7.941  33.114  0.00  0.00    -0.293 NA
ATOM      8  C   UNL     1     -15.269   5.654  33.392  0.00  0.00    +0.089 C 
ATOM      9  C   UNL     1     -14.204   7.852  33.474  0.00  0.00    +0.147 C 
ATOM     10  C   UNL     1     -13.908   6.339  33.513  0.00  0.00    +0.052 C 
ATOM     11  C   UNL     1     -16.269   6.759  33.704  0.00  0.00    +0.107 C 
ATOM     13  C   UNL     1     -16.260   9.177  33.562  0.00  0.00    +0.105 C 
ENDROOT
BRANCH   9  12
ATOM      1  O   UNL     1     -12.112   7.998  32.218  0.00  0.00    -0.336 OA
ATOM      5  N   UNL     1     -13.472   9.755  31.938  0.00  0.00    -0.194 NA
ATOM      6  N   UNL     1     -11.452   8.865  31.337  0.00  0.00    -0.061 NA
ATOM     12  C   UNL     1     -13.293   8.598  32.521  0.00  0.00    +0.245 A 
ATOM     15  C   UNL     1     -12.318   9.877  31.222  0.00  0.00    +0.176 A 
BRANCH  15  17
ATOM     17  C   UNL     1     -12.039  11.045  30.379  0.00  0.00    +0.114 C 
BRANCH  17  20
ATOM     20  C   UNL     1     -12.065  10.770  28.878  0.00  0.00    -0.040 A 
ATOM     24  C   UNL     1     -10.870  10.635  28.171  0.00  0.00    +0.004 A 
ATOM     25  C   UNL     1     -13.285  10.655  28.213  0.00  0.00    +0.004 A 
ATOM     26  C   UNL     1     -10.895  10.384  26.800  0.00  0.00    +0.000 A 
ATOM     27  C   UNL     1     -13.311  10.404  26.841  0.00  0.00    +0.000 A 
ATOM     30  C   UNL     1     -12.115  10.268  26.134  0.00  0.00    +0.000 A 
ENDBRANCH  17  20
ENDBRANCH  15  17
ENDBRANCH   9  12
BRANCH   8   4
ATOM      2  O   UNL     1     -15.684   2.896  32.711  0.00  0.00    -0.270 OA
ATOM      4  N   UNL     1     -15.477   5.115  32.069  0.00  0.00    -0.307 N 
ATOM     14  C   UNL     1     -15.670   3.762  31.839  0.00  0.00    +0.244 C 
ATOM     31  H   UNL     1     -15.487   5.777  31.301  0.00  0.00    +0.149 HD
BRANCH  14  16
ATOM     16  C   UNL     1     -15.844   3.364  30.419  0.00  0.00    +0.037 A 
ATOM     18  C   UNL     1     -16.144   4.328  29.456  0.00  0.00    +0.015 A 
ATOM     19  C   UNL     1     -15.709   2.027  30.047  0.00  0.00    +0.015 A 
ATOM     21  C   UNL     1     -16.309   3.955  28.122  0.00  0.00    +0.024 A 
ATOM     22  C   UNL     1     -15.875   1.653  28.713  0.00  0.00    +0.024 A 
ATOM     23  C   UNL     1     -16.175   2.618  27.751  0.00  0.00    +0.029 A 
BRANCH  23   7
ATOM      7  N   UNL     1     -16.341   2.239  26.403  0.00  0.00    -0.336 N 
ATOM     28  C   UNL     1     -16.821   0.913  26.068  0.00  0.00    +0.129 C 
ATOM     29  C   UNL     1     -16.041   3.172  25.335  0.00  0.00    +0.129 C 
ENDBRANCH  23   7
ENDBRANCH  14  16
ENDBRANCH   8   4
TORSDOF 6
ENDMDL
MODEL 8
REMARK VINA RESULT:      -6.2      1.395      2.130
REMARK  Name = 28960844
REMARK  9 active torsions:
REMARK  status: ('A' for Active; 'I' for Inactive)
REMARK    1  A    between atoms: N_3  and  C_13
REMARK    2  A    between atoms: N_4  and  C_8
REMARK    3  A    between atoms: N_7  and  C_23
REMARK    4  A    between atoms: N_7  and  C_28
REMARK    5  A    between atoms: N_7  and  C_29
REMARK    6  A    between atoms: C_9  and  C_12
REMARK    7  A    between atoms: C_14  and  C_16
REMARK    8  A    between atoms: C_15  and  C_17
REMARK    9  A    between atoms: C_17  and  C_20
REMARK                            x       y       z     vdW  Elec       q    Type
REMARK                         _______ _______ _______ _____ _____    ______ ____
ROOT
ATOM      3  N   UNL     1      -3.212 -12.769  13.912  0.00  0.00    -0.293 NA
ATOM      8  C   UNL     1      -2.103 -11.365  12.417  0.00  0.00    +0.089 C 
ATOM      9  C   UNL     1      -2.752 -11.651  14.756  0.00  0.00    +0.147 C 
ATOM     10  C   UNL     1      -2.149 -10.638  13.762  0.00  0.00    +0.052 C 
ATOM     11  C   UNL     1      -2.279 -12.832  12.783  0.00  0.00    +0.107 C 
ATOM     13  C   UNL     1      -3.285 -14.037  14.628  0.00  0.00    +0.105 C 
ENDROOT
BRANCH   9  12
ATOM      1  O   UNL     1      -3.638 -11.043  16.951  0.00  0.00    -0.336 OA
ATOM      5  N   UNL     1      -4.987 -10.518  15.242  0.00  0.00    -0.194 NA
ATOM      6  N   UNL     1      -4.772 -10.446  17.518  0.00  0.00    -0.061 NA
ATOM     12  C   UNL     1      -3.847 -11.046  15.608  0.00  0.00    +0.245 A 
ATOM     15  C   UNL     1      -5.519 -10.164  16.447  0.00  0.00    +0.176 A 
BRANCH  15  17
ATOM     17  C   UNL     1      -6.831  -9.516  16.564  0.00  0.00    +0.114 C 
BRANCH  17  20
ATOM     20  C   UNL     1      -8.022 -10.435  16.306  0.00  0.00    -0.040 A 
ATOM     24  C   UNL     1      -8.316 -11.464  17.201  0.00  0.00    +0.004 A 
ATOM     25  C   UNL     1      -8.816 -10.245  15.176  0.00  0.00    +0.004 A 
ATOM     26  C   UNL     1      -9.405 -12.304  16.966  0.00  0.00    +0.000 A 
ATOM     27  C   UNL     1      -9.905 -11.084  14.940  0.00  0.00    +0.000 A 
ATOM     30  C   UNL     1     -10.200 -12.113  15.835  0.00  0.00    +0.000 A 
ENDBRANCH  17  20
ENDBRANCH  15  17
ENDBRANCH   9  12
BRANCH   8   4
ATOM      2  O   UNL     1      -1.963  -9.170  10.571  0.00  0.00    -0.270 OA
ATOM      4  N   UNL     1      -3.152 -10.914  11.534  0.00  0.00    -0.307 N 
ATOM     14  C   UNL     1      -2.989  -9.839  10.674  0.00  0.00    +0.244 C 
ATOM     31  H   UNL     1      -4.025 -11.428  11.559  0.00  0.00    +0.149 HD
BRANCH  14  16
ATOM     16  C   UNL     1      -4.171  -9.484   9.848  0.00  0.00    +0.037 A 
ATOM     18  C   UNL     1      -5.111  -8.573  10.332  0.00  0.00    +0.015 A 
ATOM     19  C   UNL     1      -4.344 -10.062   8.591  0.00  0.00    +0.015 A 
ATOM     21  C   UNL     1      -6.222  -8.240   9.557  0.00  0.00    +0.024 A 
ATOM     22  C   UNL     1      -5.456  -9.730   7.817  0.00  0.00    +0.024 A 
ATOM     23  C   UNL     1      -6.396  -8.818   8.301  0.00  0.00    +0.029 A 
BRANCH  23   7
ATOM      7  N   UNL     1      -7.519  -8.483   7.517  0.00  0.00    -0.336 N 
ATOM     28  C   UNL     1      -8.295  -7.296   7.817  0.00  0.00    +0.129 C 
ATOM     29  C   UNL     1      -7.907  -9.315   6.396  0.00  0.00    +0.129 C 
ENDBRANCH  23   7
ENDBRANCH  14  16
ENDBRANCH   8   4
TORSDOF 6
ENDMDL
MODEL 9
REMARK VINA RESULT:      -6.2     20.586     24.073
REMARK  Name = 28960844
REMARK  9 active torsions:
REMARK  status: ('A' for Active; 'I' for Inactive)
REMARK    1  A    between atoms: N_3  and  C_13
REMARK    2  A    between atoms: N_4  and  C_8
REMARK    3  A    between atoms: N_7  and  C_23
REMARK    4  A    between atoms: N_7  and  C_28
REMARK    5  A    between atoms: N_7  and  C_29
REMARK    6  A    between atoms: C_9  and  C_12
REMARK    7  A    between atoms: C_14  and  C_16
REMARK    8  A    between atoms: C_15  and  C_17
REMARK    9  A    between atoms: C_17  and  C_20
REMARK                            x       y       z     vdW  Elec       q    Type
REMARK                         _______ _______ _______ _____ _____    ______ ____
ROOT
ATOM      3  N   UNL     1       4.331 -14.510  33.961  0.00  0.00    -0.293 NA
ATOM      8  C   UNL     1       2.790 -12.943  34.741  0.00  0.00    +0.089 C 
ATOM      9  C   UNL     1       3.612 -14.087  32.744  0.00  0.00    +0.147 C 
ATOM     10  C   UNL     1       2.694 -12.942  33.215  0.00  0.00    +0.052 C 
ATOM     11  C   UNL     1       3.398 -14.299  35.072  0.00  0.00    +0.107 C 
ATOM     13  C   UNL     1       4.802 -15.888  33.901  0.00  0.00    +0.105 C 
ENDROOT
BRANCH   9  12
ATOM      1  O   UNL     1       4.290 -14.228  30.400  0.00  0.00    -0.336 OA
ATOM      5  N   UNL     1       5.541 -12.838  31.632  0.00  0.00    -0.194 NA
ATOM      6  N   UNL     1       5.254 -13.698  29.532  0.00  0.00    -0.061 NA
ATOM     12  C   UNL     1       4.530 -13.669  31.615  0.00  0.00    +0.245 A 
ATOM     15  C   UNL     1       5.952 -12.887  30.333  0.00  0.00    +0.176 A 
BRANCH  15  17
ATOM     17  C   UNL     1       7.091 -12.104  29.841  0.00  0.00    +0.114 C 
BRANCH  17  20
ATOM     20  C   UNL     1       7.345 -10.803  30.596  0.00  0.00    -0.040 A 
ATOM     24  C   UNL     1       8.308 -10.756  31.604  0.00  0.00    +0.004 A 
ATOM     25  C   UNL     1       6.613  -9.659  30.278  0.00  0.00    +0.004 A 
ATOM     26  C   UNL     1       8.540  -9.566  32.294  0.00  0.00    +0.000 A 
ATOM     27  C   UNL     1       6.843  -8.469  30.968  0.00  0.00    +0.000 A 
ATOM     30  C   UNL     1       7.807  -8.422  31.975  0.00  0.00    +0.000 A 
ENDBRANCH  17  20
ENDBRANCH  15  17
ENDBRANCH   9  12
BRANCH   8   4
ATOM      2  O   UNL     1       1.917 -10.305  35.464  0.00  0.00    -0.270 OA
ATOM      4  N   UNL     1       3.618 -11.863  35.222  0.00  0.00    -0.307 N 
ATOM     14  C   UNL     1       3.102 -10.619  35.547  0.00  0.00    +0.244 C 
ATOM     31  H   UNL     1       4.608 -12.056  35.325  0.00  0.00    +0.149 HD
BRANCH  14  16
ATOM     16  C   UNL     1       4.089  -9.607  36.003  0.00  0.00    +0.037 A 
ATOM     18  C   UNL     1       3.924  -8.977  37.237  0.00  0.00    +0.015 A 
ATOM     19  C   UNL     1       5.181  -9.284  35.197  0.00  0.00    +0.015 A 
ATOM     21  C   UNL     1       4.850  -8.027  37.665  0.00  0.00    +0.024 A 
ATOM     22  C   UNL     1       6.107  -8.332  35.624  0.00  0.00    +0.024 A 
ATOM     23  C   UNL     1       5.941  -7.703  36.859  0.00  0.00    +0.029 A 
BRANCH  23   7
ATOM      7  N   UNL     1       6.878  -6.742  37.290  0.00  0.00    -0.336 N 
ATOM     28  C   UNL     1       6.861  -6.264  38.658  0.00  0.00    +0.129 C 
ATOM     29  C   UNL     1       7.875  -6.226  36.373  0.00  0.00    +0.129 C 
ENDBRANCH  23   7
ENDBRANCH  14  16
ENDBRANCH   8   4
TORSDOF 6
ENDMDL
MODEL 10
REMARK VINA RESULT:      -6.2      4.066      7.266
REMARK  Name = 28960844
REMARK  9 active torsions:
REMARK  status: ('A' for Active; 'I' for Inactive)
REMARK    1  A    between atoms: N_3  and  C_13
REMARK    2  A    between atoms: N_4  and  C_8
REMARK    3  A    between atoms: N_7  and  C_23
REMARK    4  A    between atoms: N_7  and  C_28
REMARK    5  A    between atoms: N_7  and  C_29
REMARK    6  A    between atoms: C_9  and  C_12
REMARK    7  A    between atoms: C_14  and  C_16
REMARK    8  A    between atoms: C_15  and  C_17
REMARK    9  A    between atoms: C_17  and  C_20
REMARK                            x       y       z     vdW  Elec       q    Type
REMARK                         _______ _______ _______ _____ _____    ______ ____
ROOT
ATOM      3  N   UNL     1      -7.781 -10.175   8.889  0.00  0.00    -0.293 NA
ATOM      8  C   UNL     1      -7.642  -7.985   8.098  0.00  0.00    +0.089 C 
ATOM      9  C   UNL     1      -6.451  -9.723   9.338  0.00  0.00    +0.147 C 
ATOM     10  C   UNL     1      -6.401  -8.229   8.958  0.00  0.00    +0.052 C 
ATOM     11  C   UNL     1      -8.093  -9.382   7.696  0.00  0.00    +0.107 C 
ATOM     13  C   UNL     1      -7.841 -11.606   8.622  0.00  0.00    +0.105 C 
ENDROOT
BRANCH   9  12
ATOM      1  O   UNL     1      -6.528  -8.937  11.651  0.00  0.00    -0.336 OA
ATOM      5  N   UNL     1      -5.702 -11.005  11.415  0.00  0.00    -0.194 NA
ATOM      6  N   UNL     1      -6.207  -9.378  12.942  0.00  0.00    -0.061 NA
ATOM     12  C   UNL     1      -6.200  -9.955  10.813  0.00  0.00    +0.245 A 
ATOM     15  C   UNL     1      -5.727 -10.605  12.719  0.00  0.00    +0.176 A 
BRANCH  15  17
ATOM     17  C   UNL     1      -5.253 -11.464  13.810  0.00  0.00    +0.114 C 
BRANCH  17  20
ATOM     20  C   UNL     1      -3.926 -11.036  14.430  0.00  0.00    -0.040 A 
ATOM     24  C   UNL     1      -3.766 -11.048  15.815  0.00  0.00    +0.004 A 
ATOM     25  C   UNL     1      -2.873 -10.632  13.610  0.00  0.00    +0.004 A 
ATOM     26  C   UNL     1      -2.553 -10.658  16.381  0.00  0.00    +0.000 A 
ATOM     27  C   UNL     1      -1.659 -10.240  14.175  0.00  0.00    +0.000 A 
ATOM     30  C   UNL     1      -1.499 -10.254  15.561  0.00  0.00    +0.000 A 
ENDBRANCH  17  20
ENDBRANCH  15  17
ENDBRANCH   9  12
BRANCH   8   4
ATOM      2  O   UNL     1      -9.655  -6.251   7.013  0.00  0.00    -0.270 OA
ATOM      4  N   UNL     1      -8.671  -7.292   8.836  0.00  0.00    -0.307 N 
ATOM     14  C   UNL     1      -9.604  -6.473   8.220  0.00  0.00    +0.244 C 
ATOM     31  H   UNL     1      -8.693  -7.438   9.839  0.00  0.00    +0.149 HD
BRANCH  14  16
ATOM     16  C   UNL     1     -10.581  -5.811   9.122  0.00  0.00    +0.037 A 
ATOM     18  C   UNL     1     -11.390  -6.580   9.959  0.00  0.00    +0.015 A 
ATOM     19  C   UNL     1     -10.692  -4.421   9.131  0.00  0.00    +0.015 A 
ATOM     21  C   UNL     1     -12.308  -5.960  10.805  0.00  0.00    +0.024 A 
ATOM     22  C   UNL     1     -11.611  -3.800   9.976  0.00  0.00    +0.024 A 
ATOM     23  C   UNL     1     -12.419  -4.570  10.814  0.00  0.00    +0.029 A 
BRANCH  23   7
ATOM      7  N   UNL     1     -13.347  -3.940  11.669  0.00  0.00    -0.336 N 
ATOM     28  C   UNL     1     -14.365  -3.062  11.126  0.00  0.00    +0.129 C 
ATOM     29  C   UNL     1     -13.301  -4.170  13.099  0.00  0.00    +0.129 C 
ENDBRANCH  23   7
ENDBRANCH  14  16
ENDBRANCH   8   4
TORSDOF 6
ENDMDL
