MODEL 1
REMARK VINA RESULT:      -6.9      0.000      0.000
REMARK  Name = 38029318
REMARK  14 active torsions:
REMARK  status: ('A' for Active; 'I' for Inactive)
REMARK    1  A    between atoms: S_1  and  N_5
REMARK    2  A    between atoms: S_1  and  C_22
REMARK    3  A    between atoms: N_5  and  C_16
REMARK    4  A    between atoms: N_6  and  C_23
REMARK    5  A    between atoms: C_9  and  C_13
REMARK    6  A    between atoms: C_10  and  C_16
REMARK    7  A    between atoms: C_12  and  C_17
REMARK    8  A    between atoms: C_13  and  C_18
REMARK    9  A    between atoms: C_13  and  C_19
REMARK   10  A    between atoms: C_14  and  C_20
REMARK   11  A    between atoms: C_17  and  C_21
REMARK   12  A    between atoms: C_23  and  C_26
REMARK   13  A    between atoms: C_29  and  C_35
REMARK   14  A    between atoms: C_34  and  C_36
REMARK                            x       y       z     vdW  Elec       q    Type
REMARK                         _______ _______ _______ _____ _____    ______ ____
ROOT
ATOM      9  C   UNL     1      -5.784 -10.583  15.124  0.00  0.00    +0.000 C 
ATOM     10  C   UNL     1      -6.674 -10.586  16.392  0.00  0.00    +0.030 C 
ATOM     11  C   UNL     1      -4.815 -11.776  15.147  0.00  0.00    +0.012 C 
ATOM     12  C   UNL     1      -3.902 -11.761  16.387  0.00  0.00    +0.023 C 
ATOM     14  C   UNL     1      -4.683 -11.500  17.659  0.00  0.00    -0.073 C 
ATOM     15  C   UNL     1      -5.925 -10.987  17.640  0.00  0.00    -0.023 C 
ATOM     20  C   UNL     1      -4.019 -11.884  18.952  0.00  0.00    +0.039 C 
ENDROOT
BRANCH   9  13
ATOM     13  C   UNL     1      -6.619 -10.617  13.841  0.00  0.00    -0.013 C 
ATOM     18  C   UNL     1      -6.105  -9.583  12.844  0.00  0.00    +0.007 C 
ATOM     19  C   UNL     1      -6.599 -12.014  13.230  0.00  0.00    +0.007 C 
ENDBRANCH   9  13
BRANCH  10  16
ATOM     16  C   UNL     1      -7.334  -9.219  16.608  0.00  0.00    +0.113 C 
BRANCH  16   5
ATOM      5  N   UNL     1      -8.204  -9.287  17.794  0.00  0.00    -0.189 NA
ATOM     37  H   UNL     1      -7.740  -9.433  18.700  0.00  0.00    +0.148 HD
BRANCH   5   1
ATOM      1  S   UNL     1      -9.823  -9.793  17.641  0.00  0.00    +0.058 S 
ATOM      3  O   UNL     1     -10.474  -9.709  18.935  0.00  0.00    -0.153 OA
ATOM      4  O   UNL     1      -9.864 -11.029  16.883  0.00  0.00    -0.153 OA
BRANCH   1  22
ATOM     22  C   UNL     1     -10.498  -8.530  16.607  0.00  0.00    +0.105 A 
ATOM     24  C   UNL     1     -10.856  -8.821  15.291  0.00  0.00    +0.030 A 
ATOM     25  C   UNL     1     -10.673  -7.238  17.107  0.00  0.00    +0.030 A 
ATOM     27  C   UNL     1     -11.389  -7.824  14.475  0.00  0.00    +0.021 A 
ATOM     28  C   UNL     1     -11.207  -6.241  16.291  0.00  0.00    +0.021 A 
ATOM     29  C   UNL     1     -11.565  -6.533  14.975  0.00  0.00    +0.052 A 
BRANCH  29  35
ATOM      7  N   UNL     1     -12.554  -4.681  13.459  0.00  0.00    -0.191 NA
ATOM     35  C   UNL     1     -12.110  -5.512  14.138  0.00  0.00    +0.099 C 
ENDBRANCH  29  35
ENDBRANCH   1  22
ENDBRANCH   5   1
ENDBRANCH  16   5
ENDBRANCH  10  16
BRANCH  12  17
ATOM     17  C   UNL     1      -2.764 -10.747  16.223  0.00  0.00    +0.103 C 
BRANCH  17  21
ATOM      2  O   UNL     1      -1.157 -11.945  14.869  0.00  0.00    -0.276 OA
ATOM      6  N   UNL     1      -2.203 -10.060  14.003  0.00  0.00    -0.311 N 
ATOM     21  C   UNL     1      -1.944 -11.009  14.980  0.00  0.00    +0.214 C 
ATOM     38  H   UNL     1      -2.885  -9.330  14.189  0.00  0.00    +0.149 HD
BRANCH   6  23
ATOM     23  C   UNL     1      -1.559 -10.062  12.709  0.00  0.00    +0.139 C 
BRANCH  23  26
ATOM     26  C   UNL     1      -2.520 -10.390  11.604  0.00  0.00    -0.030 A 
ATOM     30  C   UNL     1      -3.080 -11.665  11.522  0.00  0.00    +0.006 A 
ATOM     31  C   UNL     1      -2.850  -9.421  10.656  0.00  0.00    +0.006 A 
ATOM     32  C   UNL     1      -3.973 -11.970  10.495  0.00  0.00    +0.019 A 
ATOM     33  C   UNL     1      -3.743  -9.726   9.629  0.00  0.00    +0.019 A 
ATOM     34  C   UNL     1      -4.305 -11.001   9.548  0.00  0.00    +0.052 A 
BRANCH  34  36
ATOM      8  N   UNL     1      -5.962 -11.567   7.640  0.00  0.00    -0.191 NA
ATOM     36  C   UNL     1      -5.219 -11.313   8.496  0.00  0.00    +0.099 C 
ENDBRANCH  34  36
ENDBRANCH  23  26
ENDBRANCH   6  23
ENDBRANCH  17  21
ENDBRANCH  12  17
TORSDOF 11
ENDMDL
MODEL 2
REMARK VINA RESULT:      -6.9     27.543     30.511
REMARK  Name = 38029318
REMARK  14 active torsions:
REMARK  status: ('A' for Active; 'I' for Inactive)
REMARK    1  A    between atoms: S_1  and  N_5
REMARK    2  A    between atoms: S_1  and  C_22
REMARK    3  A    between atoms: N_5  and  C_16
REMARK    4  A    between atoms: N_6  and  C_23
REMARK    5  A    between atoms: C_9  and  C_13
REMARK    6  A    between atoms: C_10  and  C_16
REMARK    7  A    between atoms: C_12  and  C_17
REMARK    8  A    between atoms: C_13  and  C_18
REMARK    9  A    between atoms: C_13  and  C_19
REMARK   10  A    between atoms: C_14  and  C_20
REMARK   11  A    between atoms: C_17  and  C_21
REMARK   12  A    between atoms: C_23  and  C_26
REMARK   13  A    between atoms: C_29  and  C_35
REMARK   14  A    between atoms: C_34  and  C_36
REMARK                            x       y       z     vdW  Elec       q    Type
REMARK                         _______ _______ _______ _____ _____    ______ ____
ROOT
ATOM      9  C   UNL     1      16.167   9.227  21.689  0.00  0.00    +0.000 C 
ATOM     10  C   UNL     1      15.147   8.472  20.799  0.00  0.00    +0.030 C 
ATOM     11  C   UNL     1      17.534   9.300  20.992  0.00  0.00    +0.012 C 
ATOM     12  C   UNL     1      18.101   7.904  20.673  0.00  0.00    +0.023 C 
ATOM     14  C   UNL     1      17.063   7.007  20.031  0.00  0.00    -0.073 C 
ATOM     15  C   UNL     1      15.749   7.285  20.086  0.00  0.00    -0.023 C 
ATOM     20  C   UNL     1      17.574   5.807  19.284  0.00  0.00    +0.039 C 
ENDROOT
BRANCH   9  13
ATOM     13  C   UNL     1      15.685  10.638  22.037  0.00  0.00    -0.013 C 
ATOM     18  C   UNL     1      16.798  11.427  22.719  0.00  0.00    +0.007 C 
ATOM     19  C   UNL     1      15.201  11.359  20.783  0.00  0.00    +0.007 C 
ENDBRANCH   9  13
BRANCH  10  16
ATOM     16  C   UNL     1      13.931   8.017  21.615  0.00  0.00    +0.113 C 
BRANCH  16   5
ATOM      5  N   UNL     1      12.722   8.662  21.075  0.00  0.00    -0.189 NA
ATOM     37  H   UNL     1      12.181   9.246  21.724  0.00  0.00    +0.148 HD
BRANCH   5   1
ATOM      1  S   UNL     1      11.898   7.968  19.756  0.00  0.00    +0.058 S 
ATOM      3  O   UNL     1      10.541   8.479  19.718  0.00  0.00    -0.153 OA
ATOM      4  O   UNL     1      12.139   6.537  19.745  0.00  0.00    -0.153 OA
BRANCH   1  22
ATOM     22  C   UNL     1      12.777   8.650  18.384  0.00  0.00    +0.105 A 
ATOM     24  C   UNL     1      13.339   7.807  17.426  0.00  0.00    +0.030 A 
ATOM     25  C   UNL     1      12.910  10.034  18.259  0.00  0.00    +0.030 A 
ATOM     27  C   UNL     1      14.033   8.346  16.343  0.00  0.00    +0.021 A 
ATOM     28  C   UNL     1      13.603  10.572  17.175  0.00  0.00    +0.021 A 
ATOM     29  C   UNL     1      14.166   9.729  16.217  0.00  0.00    +0.052 A 
BRANCH  29  35
ATOM      7  N   UNL     1      15.455  10.729  14.206  0.00  0.00    -0.191 NA
ATOM     35  C   UNL     1      14.877  10.281  15.107  0.00  0.00    +0.099 C 
ENDBRANCH  29  35
ENDBRANCH   1  22
ENDBRANCH   5   1
ENDBRANCH  16   5
ENDBRANCH  10  16
BRANCH  12  17
ATOM     17  C   UNL     1      18.694   7.249  21.926  0.00  0.00    +0.103 C 
BRANCH  17  21
ATOM      2  O   UNL     1      20.885   7.596  22.890  0.00  0.00    -0.276 OA
ATOM      6  N   UNL     1      20.704   6.888  20.684  0.00  0.00    -0.311 N 
ATOM     21  C   UNL     1      20.206   7.274  21.920  0.00  0.00    +0.214 C 
ATOM     38  H   UNL     1      20.056   6.627  19.947  0.00  0.00    +0.149 HD
BRANCH   6  23
ATOM     23  C   UNL     1      22.118   6.820  20.390  0.00  0.00    +0.139 C 
BRANCH  23  26
ATOM     26  C   UNL     1      22.677   5.449  20.633  0.00  0.00    -0.030 A 
ATOM     30  C   UNL     1      21.825   4.397  20.970  0.00  0.00    +0.006 A 
ATOM     31  C   UNL     1      24.050   5.227  20.525  0.00  0.00    +0.006 A 
ATOM     32  C   UNL     1      22.345   3.123  21.195  0.00  0.00    +0.019 A 
ATOM     33  C   UNL     1      24.571   3.952  20.750  0.00  0.00    +0.019 A 
ATOM     34  C   UNL     1      23.718   2.900  21.086  0.00  0.00    +0.052 A 
BRANCH  34  36
ATOM      8  N   UNL     1      24.684   0.534  21.506  0.00  0.00    -0.191 NA
ATOM     36  C   UNL     1      24.251   1.595  21.318  0.00  0.00    +0.099 C 
ENDBRANCH  34  36
ENDBRANCH  23  26
ENDBRANCH   6  23
ENDBRANCH  17  21
ENDBRANCH  12  17
TORSDOF 11
ENDMDL
MODEL 3
REMARK VINA RESULT:      -6.9      4.263      7.526
REMARK  Name = 38029318
REMARK  14 active torsions:
REMARK  status: ('A' for Active; 'I' for Inactive)
REMARK    1  A    between atoms: S_1  and  N_5
REMARK    2  A    between atoms: S_1  and  C_22
REMARK    3  A    between atoms: N_5  and  C_16
REMARK    4  A    between atoms: N_6  and  C_23
REMARK    5  A    between atoms: C_9  and  C_13
REMARK    6  A    between atoms: C_10  and  C_16
REMARK    7  A    between atoms: C_12  and  C_17
REMARK    8  A    between atoms: C_13  and  C_18
REMARK    9  A    between atoms: C_13  and  C_19
REMARK   10  A    between atoms: C_14  and  C_20
REMARK   11  A    between atoms: C_17  and  C_21
REMARK   12  A    between atoms: C_23  and  C_26
REMARK   13  A    between atoms: C_29  and  C_35
REMARK   14  A    between atoms: C_34  and  C_36
REMARK                            x       y       z     vdW  Elec       q    Type
REMARK                         _______ _______ _______ _____ _____    ______ ____
ROOT
ATOM      9  C   UNL     1      -5.370 -10.573  10.832  0.00  0.00    +0.000 C 
ATOM     10  C   UNL     1      -4.859  -9.667   9.684  0.00  0.00    +0.030 C 
ATOM     11  C   UNL     1      -4.764 -10.131  12.173  0.00  0.00    +0.012 C 
ATOM     12  C   UNL     1      -3.225 -10.180  12.160  0.00  0.00    +0.023 C 
ATOM     14  C   UNL     1      -2.651  -9.535  10.915  0.00  0.00    -0.073 C 
ATOM     15  C   UNL     1      -3.400  -9.302   9.823  0.00  0.00    -0.023 C 
ATOM     20  C   UNL     1      -1.206  -9.124  10.969  0.00  0.00    +0.039 C 
ENDROOT
BRANCH   9  13
ATOM     13  C   UNL     1      -6.900 -10.565  10.926  0.00  0.00    -0.013 C 
ATOM     18  C   UNL     1      -7.357 -11.243  12.214  0.00  0.00    +0.007 C 
ATOM     19  C   UNL     1      -7.430  -9.137  10.849  0.00  0.00    +0.007 C 
ENDBRANCH   9  13
BRANCH  10  16
ATOM     16  C   UNL     1      -5.096 -10.320   8.317  0.00  0.00    +0.113 C 
BRANCH  16   5
ATOM      5  N   UNL     1      -5.714  -9.335   7.414  0.00  0.00    -0.189 NA
ATOM     37  H   UNL     1      -5.400  -8.361   7.508  0.00  0.00    +0.148 HD
BRANCH   5   1
ATOM      1  S   UNL     1      -7.273  -9.609   6.785  0.00  0.00    +0.058 S 
ATOM      3  O   UNL     1      -7.846 -10.780   7.423  0.00  0.00    -0.153 OA
ATOM      4  O   UNL     1      -7.224  -9.517   5.339  0.00  0.00    -0.153 OA
BRANCH   1  22
ATOM     22  C   UNL     1      -8.150  -8.189   7.364  0.00  0.00    +0.105 A 
ATOM     24  C   UNL     1      -7.448  -7.081   7.839  0.00  0.00    +0.030 A 
ATOM     25  C   UNL     1      -9.545  -8.175   7.346  0.00  0.00    +0.030 A 
ATOM     27  C   UNL     1      -8.141  -5.960   8.296  0.00  0.00    +0.021 A 
ATOM     28  C   UNL     1     -10.237  -7.054   7.802  0.00  0.00    +0.021 A 
ATOM     29  C   UNL     1      -9.536  -5.946   8.278  0.00  0.00    +0.052 A 
BRANCH  29  35
ATOM      7  N   UNL     1     -10.821  -3.864   9.127  0.00  0.00    -0.191 NA
ATOM     35  C   UNL     1     -10.245  -4.797   8.747  0.00  0.00    +0.099 C 
ENDBRANCH  29  35
ENDBRANCH   1  22
ENDBRANCH   5   1
ENDBRANCH  16   5
ENDBRANCH  10  16
BRANCH  12  17
ATOM     17  C   UNL     1      -2.716 -11.616  12.320  0.00  0.00    +0.103 C 
BRANCH  17  21
ATOM      2  O   UNL     1      -2.303 -13.114  14.174  0.00  0.00    -0.276 OA
ATOM      6  N   UNL     1      -2.368 -10.822  14.548  0.00  0.00    -0.311 N 
ATOM     21  C   UNL     1      -2.441 -11.965  13.765  0.00  0.00    +0.214 C 
ATOM     38  H   UNL     1      -2.483  -9.913  14.109  0.00  0.00    +0.149 HD
BRANCH   6  23
ATOM     23  C   UNL     1      -2.117 -10.854  15.971  0.00  0.00    +0.139 C 
BRANCH  23  26
ATOM     26  C   UNL     1      -3.389 -10.864  16.767  0.00  0.00    -0.030 A 
ATOM     30  C   UNL     1      -4.536 -10.257  16.256  0.00  0.00    +0.006 A 
ATOM     31  C   UNL     1      -3.423 -11.477  18.019  0.00  0.00    +0.006 A 
ATOM     32  C   UNL     1      -5.718 -10.267  16.996  0.00  0.00    +0.019 A 
ATOM     33  C   UNL     1      -4.605 -11.487  18.760  0.00  0.00    +0.019 A 
ATOM     34  C   UNL     1      -5.753 -10.881  18.248  0.00  0.00    +0.052 A 
BRANCH  34  36
ATOM      8  N   UNL     1      -7.948 -10.897  19.623  0.00  0.00    -0.191 NA
ATOM     36  C   UNL     1      -6.964 -10.890  19.006  0.00  0.00    +0.099 C 
ENDBRANCH  34  36
ENDBRANCH  23  26
ENDBRANCH   6  23
ENDBRANCH  17  21
ENDBRANCH  12  17
TORSDOF 11
ENDMDL
MODEL 4
REMARK VINA RESULT:      -6.8     27.575     30.329
REMARK  Name = 38029318
REMARK  14 active torsions:
REMARK  status: ('A' for Active; 'I' for Inactive)
REMARK    1  A    between atoms: S_1  and  N_5
REMARK    2  A    between atoms: S_1  and  C_22
REMARK    3  A    between atoms: N_5  and  C_16
REMARK    4  A    between atoms: N_6  and  C_23
REMARK    5  A    between atoms: C_9  and  C_13
REMARK    6  A    between atoms: C_10  and  C_16
REMARK    7  A    between atoms: C_12  and  C_17
REMARK    8  A    between atoms: C_13  and  C_18
REMARK    9  A    between atoms: C_13  and  C_19
REMARK   10  A    between atoms: C_14  and  C_20
REMARK   11  A    between atoms: C_17  and  C_21
REMARK   12  A    between atoms: C_23  and  C_26
REMARK   13  A    between atoms: C_29  and  C_35
REMARK   14  A    between atoms: C_34  and  C_36
REMARK                            x       y       z     vdW  Elec       q    Type
REMARK                         _______ _______ _______ _____ _____    ______ ____
ROOT
ATOM      9  C   UNL     1      16.599   8.796  21.683  0.00  0.00    +0.000 C 
ATOM     10  C   UNL     1      15.534   7.989  20.898  0.00  0.00    +0.030 C 
ATOM     11  C   UNL     1      17.910   8.868  20.885  0.00  0.00    +0.012 C 
ATOM     12  C   UNL     1      18.483   7.472  20.578  0.00  0.00    +0.023 C 
ATOM     14  C   UNL     1      17.421   6.532  20.047  0.00  0.00    -0.073 C 
ATOM     15  C   UNL     1      16.108   6.786  20.188  0.00  0.00    -0.023 C 
ATOM     20  C   UNL     1      17.902   5.313  19.310  0.00  0.00    +0.039 C 
ENDROOT
BRANCH   9  13
ATOM     13  C   UNL     1      16.113  10.211  22.013  0.00  0.00    -0.013 C 
ATOM     18  C   UNL     1      17.257  11.050  22.572  0.00  0.00    +0.007 C 
ATOM     19  C   UNL     1      15.514  10.869  20.774  0.00  0.00    +0.007 C 
ENDBRANCH   9  13
BRANCH  10  16
ATOM     16  C   UNL     1      14.390   7.543  21.817  0.00  0.00    +0.113 C 
BRANCH  16   5
ATOM      5  N   UNL     1      13.626   6.476  21.150  0.00  0.00    -0.189 NA
ATOM     37  H   UNL     1      14.171   5.730  20.699  0.00  0.00    +0.148 HD
BRANCH   5   1
ATOM      1  S   UNL     1      12.062   6.787  20.553  0.00  0.00    +0.058 S 
ATOM      3  O   UNL     1      11.120   5.884  21.187  0.00  0.00    -0.153 OA
ATOM      4  O   UNL     1      12.116   6.888  19.107  0.00  0.00    -0.153 OA
BRANCH   1  22
ATOM     22  C   UNL     1      11.758   8.414  21.173  0.00  0.00    +0.105 A 
ATOM     24  C   UNL     1      11.133   8.586  22.407  0.00  0.00    +0.030 A 
ATOM     25  C   UNL     1      12.144   9.528  20.426  0.00  0.00    +0.030 A 
ATOM     27  C   UNL     1      10.893   9.869  22.896  0.00  0.00    +0.021 A 
ATOM     28  C   UNL     1      11.905  10.812  20.916  0.00  0.00    +0.021 A 
ATOM     29  C   UNL     1      11.279  10.984  22.150  0.00  0.00    +0.052 A 
BRANCH  29  35
ATOM      7  N   UNL     1      10.833  13.368  23.057  0.00  0.00    -0.191 NA
ATOM     35  C   UNL     1      11.033  12.299  22.651  0.00  0.00    +0.099 C 
ENDBRANCH  29  35
ENDBRANCH   1  22
ENDBRANCH   5   1
ENDBRANCH  16   5
ENDBRANCH  10  16
BRANCH  12  17
ATOM     17  C   UNL     1      19.178   6.877  21.807  0.00  0.00    +0.103 C 
BRANCH  17  21
ATOM      2  O   UNL     1      21.469   7.656  21.845  0.00  0.00    -0.276 OA
ATOM      6  N   UNL     1      21.008   5.492  21.136  0.00  0.00    -0.311 N 
ATOM     21  C   UNL     1      20.673   6.751  21.611  0.00  0.00    +0.214 C 
ATOM     38  H   UNL     1      20.272   4.807  20.986  0.00  0.00    +0.149 HD
BRANCH   6  23
ATOM     23  C   UNL     1      22.367   5.090  20.855  0.00  0.00    +0.139 C 
BRANCH  23  26
ATOM     26  C   UNL     1      22.801   3.938  21.714  0.00  0.00    -0.030 A 
ATOM     30  C   UNL     1      23.532   2.889  21.156  0.00  0.00    +0.006 A 
ATOM     31  C   UNL     1      22.472   3.917  23.069  0.00  0.00    +0.006 A 
ATOM     32  C   UNL     1      23.935   1.819  21.955  0.00  0.00    +0.019 A 
ATOM     33  C   UNL     1      22.876   2.847  23.868  0.00  0.00    +0.019 A 
ATOM     34  C   UNL     1      23.607   1.797  23.311  0.00  0.00    +0.052 A 
BRANCH  34  36
ATOM      8  N   UNL     1      24.357  -0.190  24.793  0.00  0.00    -0.191 NA
ATOM     36  C   UNL     1      24.020   0.701  24.128  0.00  0.00    +0.099 C 
ENDBRANCH  34  36
ENDBRANCH  23  26
ENDBRANCH   6  23
ENDBRANCH  17  21
ENDBRANCH  12  17
TORSDOF 11
ENDMDL
MODEL 5
REMARK VINA RESULT:      -6.7      2.319      8.472
REMARK  Name = 38029318
REMARK  14 active torsions:
REMARK  status: ('A' for Active; 'I' for Inactive)
REMARK    1  A    between atoms: S_1  and  N_5
REMARK    2  A    between atoms: S_1  and  C_22
REMARK    3  A    between atoms: N_5  and  C_16
REMARK    4  A    between atoms: N_6  and  C_23
REMARK    5  A    between atoms: C_9  and  C_13
REMARK    6  A    between atoms: C_10  and  C_16
REMARK    7  A    between atoms: C_12  and  C_17
REMARK    8  A    between atoms: C_13  and  C_18
REMARK    9  A    between atoms: C_13  and  C_19
REMARK   10  A    between atoms: C_14  and  C_20
REMARK   11  A    between atoms: C_17  and  C_21
REMARK   12  A    between atoms: C_23  and  C_26
REMARK   13  A    between atoms: C_29  and  C_35
REMARK   14  A    between atoms: C_34  and  C_36
REMARK                            x       y       z     vdW  Elec       q    Type
REMARK                         _______ _______ _______ _____ _____    ______ ____
ROOT
ATOM      9  C   UNL     1      -5.896 -11.522  15.125  0.00  0.00    +0.000 C 
ATOM     10  C   UNL     1      -4.500 -11.971  15.627  0.00  0.00    +0.030 C 
ATOM     11  C   UNL     1      -6.416 -10.349  15.971  0.00  0.00    +0.012 C 
ATOM     12  C   UNL     1      -6.527 -10.712  17.463  0.00  0.00    +0.023 C 
ATOM     14  C   UNL     1      -5.279 -11.407  17.968  0.00  0.00    -0.073 C 
ATOM     15  C   UNL     1      -4.379 -11.951  17.132  0.00  0.00    -0.023 C 
ATOM     20  C   UNL     1      -5.068 -11.421  19.456  0.00  0.00    +0.039 C 
ENDROOT
BRANCH   9  13
ATOM     13  C   UNL     1      -5.868 -11.124  13.646  0.00  0.00    -0.013 C 
ATOM     18  C   UNL     1      -6.740 -12.068  12.825  0.00  0.00    +0.007 C 
ATOM     19  C   UNL     1      -6.325  -9.679  13.475  0.00  0.00    +0.007 C 
ENDBRANCH   9  13
BRANCH  10  16
ATOM     16  C   UNL     1      -4.147 -13.369  15.103  0.00  0.00    +0.113 C 
BRANCH  16   5
ATOM      5  N   UNL     1      -2.687 -13.469  14.949  0.00  0.00    -0.189 NA
ATOM     37  H   UNL     1      -2.115 -12.864  15.551  0.00  0.00    +0.148 HD
BRANCH   5   1
ATOM      1  S   UNL     1      -2.015 -13.977  13.469  0.00  0.00    +0.058 S 
ATOM      3  O   UNL     1      -2.662 -15.206  13.047  0.00  0.00    -0.153 OA
ATOM      4  O   UNL     1      -0.569 -13.907  13.554  0.00  0.00    -0.153 OA
BRANCH   1  22
ATOM     22  C   UNL     1      -2.531 -12.687  12.378  0.00  0.00    +0.105 A 
ATOM     24  C   UNL     1      -2.107 -11.377  12.596  0.00  0.00    +0.030 A 
ATOM     25  C   UNL     1      -3.365 -12.979  11.297  0.00  0.00    +0.030 A 
ATOM     27  C   UNL     1      -2.514 -10.358  11.735  0.00  0.00    +0.021 A 
ATOM     28  C   UNL     1      -3.771 -11.960  10.435  0.00  0.00    +0.021 A 
ATOM     29  C   UNL     1      -3.347 -10.649  10.654  0.00  0.00    +0.052 A 
BRANCH  29  35
ATOM      7  N   UNL     1      -4.104  -8.758   9.055  0.00  0.00    -0.191 NA
ATOM     35  C   UNL     1      -3.765  -9.606   9.772  0.00  0.00    +0.099 C 
ENDBRANCH  29  35
ENDBRANCH   1  22
ENDBRANCH   5   1
ENDBRANCH  16   5
ENDBRANCH  10  16
BRANCH  12  17
ATOM     17  C   UNL     1      -7.775 -11.558  17.735  0.00  0.00    +0.103 C 
BRANCH  17  21
ATOM      2  O   UNL     1      -8.846 -10.786  19.763  0.00  0.00    -0.276 OA
ATOM      6  N   UNL     1      -9.702 -10.143  17.701  0.00  0.00    -0.311 N 
ATOM     21  C   UNL     1      -8.812 -10.802  18.536  0.00  0.00    +0.214 C 
ATOM     38  H   UNL     1      -9.579 -10.209  16.695  0.00  0.00    +0.149 HD
BRANCH   6  23
ATOM     23  C   UNL     1     -10.799  -9.341  18.193  0.00  0.00    +0.139 C 
BRANCH  23  26
ATOM     26  C   UNL     1     -11.238  -8.314  17.191  0.00  0.00    -0.030 A 
ATOM     30  C   UNL     1     -12.534  -8.350  16.677  0.00  0.00    +0.006 A 
ATOM     31  C   UNL     1     -10.348  -7.325  16.771  0.00  0.00    +0.006 A 
ATOM     32  C   UNL     1     -12.942  -7.395  15.745  0.00  0.00    +0.019 A 
ATOM     33  C   UNL     1     -10.756  -6.370  15.840  0.00  0.00    +0.019 A 
ATOM     34  C   UNL     1     -12.053  -6.405  15.326  0.00  0.00    +0.052 A 
BRANCH  34  36
ATOM      8  N   UNL     1     -12.810  -4.633  13.596  0.00  0.00    -0.191 NA
ATOM     36  C   UNL     1     -12.470  -5.427  14.372  0.00  0.00    +0.099 C 
ENDBRANCH  34  36
ENDBRANCH  23  26
ENDBRANCH   6  23
ENDBRANCH  17  21
ENDBRANCH  12  17
TORSDOF 11
ENDMDL
MODEL 6
REMARK VINA RESULT:      -6.7     27.597     30.539
REMARK  Name = 38029318
REMARK  14 active torsions:
REMARK  status: ('A' for Active; 'I' for Inactive)
REMARK    1  A    between atoms: S_1  and  N_5
REMARK    2  A    between atoms: S_1  and  C_22
REMARK    3  A    between atoms: N_5  and  C_16
REMARK    4  A    between atoms: N_6  and  C_23
REMARK    5  A    between atoms: C_9  and  C_13
REMARK    6  A    between atoms: C_10  and  C_16
REMARK    7  A    between atoms: C_12  and  C_17
REMARK    8  A    between atoms: C_13  and  C_18
REMARK    9  A    between atoms: C_13  and  C_19
REMARK   10  A    between atoms: C_14  and  C_20
REMARK   11  A    between atoms: C_17  and  C_21
REMARK   12  A    between atoms: C_23  and  C_26
REMARK   13  A    between atoms: C_29  and  C_35
REMARK   14  A    between atoms: C_34  and  C_36
REMARK                            x       y       z     vdW  Elec       q    Type
REMARK                         _______ _______ _______ _____ _____    ______ ____
ROOT
ATOM      9  C   UNL     1      13.015  11.733  22.727  0.00  0.00    +0.000 C 
ATOM     10  C   UNL     1      12.000  11.356  21.619  0.00  0.00    +0.030 C 
ATOM     11  C   UNL     1      14.231  12.448  22.118  0.00  0.00    +0.012 C 
ATOM     12  C   UNL     1      14.951  11.582  21.068  0.00  0.00    +0.023 C 
ATOM     14  C   UNL     1      13.978  10.955  20.091  0.00  0.00    -0.073 C 
ATOM     15  C   UNL     1      12.661  10.875  20.349  0.00  0.00    -0.023 C 
ATOM     20  C   UNL     1      14.547  10.461  18.791  0.00  0.00    +0.039 C 
ENDROOT
BRANCH   9  13
ATOM     13  C   UNL     1      12.380  12.615  23.806  0.00  0.00    -0.013 C 
ATOM     18  C   UNL     1      13.437  13.079  24.803  0.00  0.00    +0.007 C 
ATOM     19  C   UNL     1      11.675  13.809  23.170  0.00  0.00    +0.007 C 
ENDBRANCH   9  13
BRANCH  10  16
ATOM     16  C   UNL     1      11.008  10.296  22.114  0.00  0.00    +0.113 C 
BRANCH  16   5
ATOM      5  N   UNL     1      11.730   9.033  22.341  0.00  0.00    -0.189 NA
ATOM     37  H   UNL     1      12.627   9.096  22.838  0.00  0.00    +0.148 HD
BRANCH   5   1
ATOM      1  S   UNL     1      11.495   7.711  21.293  0.00  0.00    +0.058 S 
ATOM      3  O   UNL     1      10.791   8.162  20.107  0.00  0.00    -0.153 OA
ATOM      4  O   UNL     1      10.992   6.584  22.056  0.00  0.00    -0.153 OA
BRANCH   1  22
ATOM     22  C   UNL     1      13.154   7.321  20.828  0.00  0.00    +0.105 A 
ATOM     24  C   UNL     1      14.161   7.291  21.792  0.00  0.00    +0.030 A 
ATOM     25  C   UNL     1      13.457   7.044  19.494  0.00  0.00    +0.030 A 
ATOM     27  C   UNL     1      15.470   6.983  21.425  0.00  0.00    +0.021 A 
ATOM     28  C   UNL     1      14.767   6.735  19.127  0.00  0.00    +0.021 A 
ATOM     29  C   UNL     1      15.774   6.706  20.092  0.00  0.00    +0.052 A 
BRANCH  29  35
ATOM      7  N   UNL     1      18.206   6.135  19.409  0.00  0.00    -0.191 NA
ATOM     35  C   UNL     1      17.116   6.391  19.715  0.00  0.00    +0.099 C 
ENDBRANCH  29  35
ENDBRANCH   1  22
ENDBRANCH   5   1
ENDBRANCH  16   5
ENDBRANCH  10  16
BRANCH  12  17
ATOM     17  C   UNL     1      15.823  10.513  21.737  0.00  0.00    +0.103 C 
BRANCH  17  21
ATOM      2  O   UNL     1      17.647  11.142  20.277  0.00  0.00    -0.276 OA
ATOM      6  N   UNL     1      18.107  10.066  22.284  0.00  0.00    -0.311 N 
ATOM     21  C   UNL     1      17.274  10.624  21.325  0.00  0.00    +0.214 C 
ATOM     38  H   UNL     1      17.699   9.673  23.127  0.00  0.00    +0.149 HD
BRANCH   6  23
ATOM     23  C   UNL     1      19.546  10.030  22.155  0.00  0.00    +0.139 C 
BRANCH  23  26
ATOM     26  C   UNL     1      20.055   8.636  21.930  0.00  0.00    -0.030 A 
ATOM     30  C   UNL     1      21.004   8.391  20.938  0.00  0.00    +0.006 A 
ATOM     31  C   UNL     1      19.578   7.585  22.714  0.00  0.00    +0.006 A 
ATOM     32  C   UNL     1      21.477   7.096  20.730  0.00  0.00    +0.019 A 
ATOM     33  C   UNL     1      20.051   6.289  22.506  0.00  0.00    +0.019 A 
ATOM     34  C   UNL     1      21.001   6.044  21.513  0.00  0.00    +0.052 A 
BRANCH  34  36
ATOM      8  N   UNL     1      21.880   3.639  21.126  0.00  0.00    -0.191 NA
ATOM     36  C   UNL     1      21.485   4.718  21.300  0.00  0.00    +0.099 C 
ENDBRANCH  34  36
ENDBRANCH  23  26
ENDBRANCH   6  23
ENDBRANCH  17  21
ENDBRANCH  12  17
TORSDOF 11
ENDMDL
MODEL 7
REMARK VINA RESULT:      -6.6      2.353      3.461
REMARK  Name = 38029318
REMARK  14 active torsions:
REMARK  status: ('A' for Active; 'I' for Inactive)
REMARK    1  A    between atoms: S_1  and  N_5
REMARK    2  A    between atoms: S_1  and  C_22
REMARK    3  A    between atoms: N_5  and  C_16
REMARK    4  A    between atoms: N_6  and  C_23
REMARK    5  A    between atoms: C_9  and  C_13
REMARK    6  A    between atoms: C_10  and  C_16
REMARK    7  A    between atoms: C_12  and  C_17
REMARK    8  A    between atoms: C_13  and  C_18
REMARK    9  A    between atoms: C_13  and  C_19
REMARK   10  A    between atoms: C_14  and  C_20
REMARK   11  A    between atoms: C_17  and  C_21
REMARK   12  A    between atoms: C_23  and  C_26
REMARK   13  A    between atoms: C_29  and  C_35
REMARK   14  A    between atoms: C_34  and  C_36
REMARK                            x       y       z     vdW  Elec       q    Type
REMARK                         _______ _______ _______ _____ _____    ______ ____
ROOT
ATOM      9  C   UNL     1      -5.715 -10.575  15.289  0.00  0.00    +0.000 C 
ATOM     10  C   UNL     1      -6.537 -10.548  16.602  0.00  0.00    +0.030 C 
ATOM     11  C   UNL     1      -4.782 -11.796  15.266  0.00  0.00    +0.012 C 
ATOM     12  C   UNL     1      -3.804 -11.804  16.456  0.00  0.00    +0.023 C 
ATOM     14  C   UNL     1      -4.509 -11.517  17.766  0.00  0.00    -0.073 C 
ATOM     15  C   UNL     1      -5.735 -10.967  17.811  0.00  0.00    -0.023 C 
ATOM     20  C   UNL     1      -3.789 -11.916  19.023  0.00  0.00    +0.039 C 
ENDROOT
BRANCH   9  13
ATOM     13  C   UNL     1      -6.618 -10.588  14.051  0.00  0.00    -0.013 C 
ATOM     18  C   UNL     1      -6.053  -9.670  12.972  0.00  0.00    +0.007 C 
ATOM     19  C   UNL     1      -6.778 -12.010  13.524  0.00  0.00    +0.007 C 
ENDBRANCH   9  13
BRANCH  10  16
ATOM     16  C   UNL     1      -7.145  -9.161  16.846  0.00  0.00    +0.113 C 
BRANCH  16   5
ATOM      5  N   UNL     1      -8.289  -9.293  17.763  0.00  0.00    -0.189 NA
ATOM     37  H   UNL     1      -8.182  -9.950  18.546  0.00  0.00    +0.148 HD
BRANCH   5   1
ATOM      1  S   UNL     1      -9.868  -8.964  17.214  0.00  0.00    +0.058 S 
ATOM      3  O   UNL     1     -10.084  -9.638  15.948  0.00  0.00    -0.153 OA
ATOM      4  O   UNL     1     -10.126  -7.541  17.336  0.00  0.00    -0.153 OA
BRANCH   1  22
ATOM     22  C   UNL     1     -10.850  -9.774  18.439  0.00  0.00    +0.105 A 
ATOM     24  C   UNL     1     -10.295 -10.782  19.225  0.00  0.00    +0.030 A 
ATOM     25  C   UNL     1     -12.184  -9.404  18.619  0.00  0.00    +0.030 A 
ATOM     27  C   UNL     1     -11.071 -11.422  20.191  0.00  0.00    +0.021 A 
ATOM     28  C   UNL     1     -12.960 -10.043  19.586  0.00  0.00    +0.021 A 
ATOM     29  C   UNL     1     -12.404 -11.052  20.372  0.00  0.00    +0.052 A 
BRANCH  29  35
ATOM      7  N   UNL     1     -13.845 -12.240  22.167  0.00  0.00    -0.191 NA
ATOM     35  C   UNL     1     -13.199 -11.708  21.362  0.00  0.00    +0.099 C 
ENDBRANCH  29  35
ENDBRANCH   1  22
ENDBRANCH   5   1
ENDBRANCH  16   5
ENDBRANCH  10  16
BRANCH  12  17
ATOM     17  C   UNL     1      -2.648 -10.825  16.227  0.00  0.00    +0.103 C 
BRANCH  17  21
ATOM      2  O   UNL     1      -1.222 -12.111  14.756  0.00  0.00    -0.276 OA
ATOM      6  N   UNL     1      -2.110 -10.096  14.014  0.00  0.00    -0.311 N 
ATOM     21  C   UNL     1      -1.908 -11.109  14.940  0.00  0.00    +0.214 C 
ATOM     38  H   UNL     1      -2.709  -9.313  14.260  0.00  0.00    +0.149 HD
BRANCH   6  23
ATOM     23  C   UNL     1      -1.522 -10.103  12.694  0.00  0.00    +0.139 C 
BRANCH  23  26
ATOM     26  C   UNL     1      -2.537 -10.396  11.628  0.00  0.00    -0.030 A 
ATOM     30  C   UNL     1      -2.855  -9.422  10.682  0.00  0.00    +0.006 A 
ATOM     31  C   UNL     1      -3.163 -11.642  11.585  0.00  0.00    +0.006 A 
ATOM     32  C   UNL     1      -3.798  -9.695   9.691  0.00  0.00    +0.019 A 
ATOM     33  C   UNL     1      -4.106 -11.915  10.594  0.00  0.00    +0.019 A 
ATOM     34  C   UNL     1      -4.424 -10.940   9.647  0.00  0.00    +0.052 A 
BRANCH  34  36
ATOM      8  N   UNL     1      -6.175 -11.446   7.807  0.00  0.00    -0.191 NA
ATOM     36  C   UNL     1      -5.390 -11.219   8.632  0.00  0.00    +0.099 C 
ENDBRANCH  34  36
ENDBRANCH  23  26
ENDBRANCH   6  23
ENDBRANCH  17  21
ENDBRANCH  12  17
TORSDOF 11
ENDMDL
MODEL 8
REMARK VINA RESULT:      -6.6     23.786     27.231
REMARK  Name = 38029318
REMARK  14 active torsions:
REMARK  status: ('A' for Active; 'I' for Inactive)
REMARK    1  A    between atoms: S_1  and  N_5
REMARK    2  A    between atoms: S_1  and  C_22
REMARK    3  A    between atoms: N_5  and  C_16
REMARK    4  A    between atoms: N_6  and  C_23
REMARK    5  A    between atoms: C_9  and  C_13
REMARK    6  A    between atoms: C_10  and  C_16
REMARK    7  A    between atoms: C_12  and  C_17
REMARK    8  A    between atoms: C_13  and  C_18
REMARK    9  A    between atoms: C_13  and  C_19
REMARK   10  A    between atoms: C_14  and  C_20
REMARK   11  A    between atoms: C_17  and  C_21
REMARK   12  A    between atoms: C_23  and  C_26
REMARK   13  A    between atoms: C_29  and  C_35
REMARK   14  A    between atoms: C_34  and  C_36
REMARK                            x       y       z     vdW  Elec       q    Type
REMARK                         _______ _______ _______ _____ _____    ______ ____
ROOT
ATOM      9  C   UNL     1      12.176   8.215   5.121  0.00  0.00    +0.000 C 
ATOM     10  C   UNL     1      12.138   9.476   4.220  0.00  0.00    +0.030 C 
ATOM     11  C   UNL     1      13.099   7.149   4.510  0.00  0.00    +0.012 C 
ATOM     12  C   UNL     1      12.650   6.729   3.098  0.00  0.00    +0.023 C 
ATOM     14  C   UNL     1      12.335   7.927   2.227  0.00  0.00    -0.073 C 
ATOM     15  C   UNL     1      12.122   9.149   2.746  0.00  0.00    -0.023 C 
ATOM     20  C   UNL     1      12.313   7.698   0.742  0.00  0.00    +0.039 C 
ENDROOT
BRANCH   9  13
ATOM     13  C   UNL     1      12.633   8.545   6.545  0.00  0.00    -0.013 C 
ATOM     18  C   UNL     1      12.892   7.264   7.331  0.00  0.00    +0.007 C 
ATOM     19  C   UNL     1      13.882   9.421   6.512  0.00  0.00    +0.007 C 
ENDBRANCH   9  13
BRANCH  10  16
ATOM     16  C   UNL     1      10.935  10.364   4.562  0.00  0.00    +0.113 C 
BRANCH  16   5
ATOM      5  N   UNL     1       9.726   9.788   3.952  0.00  0.00    -0.189 NA
ATOM     37  H   UNL     1       9.633   9.879   2.933  0.00  0.00    +0.148 HD
BRANCH   5   1
ATOM      1  S   UNL     1       8.298   9.630   4.867  0.00  0.00    +0.058 S 
ATOM      3  O   UNL     1       7.207   9.250   3.989  0.00  0.00    -0.153 OA
ATOM      4  O   UNL     1       8.164  10.780   5.741  0.00  0.00    -0.153 OA
BRANCH   1  22
ATOM     22  C   UNL     1       8.680   8.243   5.893  0.00  0.00    +0.105 A 
ATOM     24  C   UNL     1       8.928   8.428   7.253  0.00  0.00    +0.030 A 
ATOM     25  C   UNL     1       8.735   6.962   5.342  0.00  0.00    +0.030 A 
ATOM     27  C   UNL     1       9.230   7.334   8.062  0.00  0.00    +0.021 A 
ATOM     28  C   UNL     1       9.036   5.867   6.152  0.00  0.00    +0.021 A 
ATOM     29  C   UNL     1       9.284   6.053   7.513  0.00  0.00    +0.052 A 
BRANCH  29  35
ATOM      7  N   UNL     1       9.846   4.021   9.017  0.00  0.00    -0.191 NA
ATOM     35  C   UNL     1       9.594   4.931   8.342  0.00  0.00    +0.099 C 
ENDBRANCH  29  35
ENDBRANCH   1  22
ENDBRANCH   5   1
ENDBRANCH  16   5
ENDBRANCH  10  16
BRANCH  12  17
ATOM     17  C   UNL     1      11.458   5.766   3.161  0.00  0.00    +0.103 C 
BRANCH  17  21
ATOM      2  O   UNL     1      10.837   3.686   2.094  0.00  0.00    -0.276 OA
ATOM      6  N   UNL     1      13.056   4.372   2.057  0.00  0.00    -0.311 N 
ATOM     21  C   UNL     1      11.714   4.494   2.385  0.00  0.00    +0.214 C 
ATOM     38  H   UNL     1      13.703   5.105   2.335  0.00  0.00    +0.149 HD
BRANCH   6  23
ATOM     23  C   UNL     1      13.589   3.251   1.316  0.00  0.00    +0.139 C 
BRANCH  23  26
ATOM     26  C   UNL     1      13.564   3.494  -0.164  0.00  0.00    -0.030 A 
ATOM     30  C   UNL     1      12.564   2.919  -0.948  0.00  0.00    +0.006 A 
ATOM     31  C   UNL     1      14.543   4.292  -0.757  0.00  0.00    +0.006 A 
ATOM     32  C   UNL     1      12.541   3.145  -2.325  0.00  0.00    +0.019 A 
ATOM     33  C   UNL     1      14.520   4.518  -2.133  0.00  0.00    +0.019 A 
ATOM     34  C   UNL     1      13.519   3.944  -2.918  0.00  0.00    +0.052 A 
BRANCH  34  36
ATOM      8  N   UNL     1      13.477   4.362  -5.473  0.00  0.00    -0.191 NA
ATOM     36  C   UNL     1      13.496   4.174  -4.327  0.00  0.00    +0.099 C 
ENDBRANCH  34  36
ENDBRANCH  23  26
ENDBRANCH   6  23
ENDBRANCH  17  21
ENDBRANCH  12  17
TORSDOF 11
ENDMDL
MODEL 9
REMARK VINA RESULT:      -6.5     23.888     26.691
REMARK  Name = 38029318
REMARK  14 active torsions:
REMARK  status: ('A' for Active; 'I' for Inactive)
REMARK    1  A    between atoms: S_1  and  N_5
REMARK    2  A    between atoms: S_1  and  C_22
REMARK    3  A    between atoms: N_5  and  C_16
REMARK    4  A    between atoms: N_6  and  C_23
REMARK    5  A    between atoms: C_9  and  C_13
REMARK    6  A    between atoms: C_10  and  C_16
REMARK    7  A    between atoms: C_12  and  C_17
REMARK    8  A    between atoms: C_13  and  C_18
REMARK    9  A    between atoms: C_13  and  C_19
REMARK   10  A    between atoms: C_14  and  C_20
REMARK   11  A    between atoms: C_17  and  C_21
REMARK   12  A    between atoms: C_23  and  C_26
REMARK   13  A    between atoms: C_29  and  C_35
REMARK   14  A    between atoms: C_34  and  C_36
REMARK                            x       y       z     vdW  Elec       q    Type
REMARK                         _______ _______ _______ _____ _____    ______ ____
ROOT
ATOM      9  C   UNL     1       9.565   8.280   2.177  0.00  0.00    +0.000 C 
ATOM     10  C   UNL     1       8.492   8.201   3.292  0.00  0.00    +0.030 C 
ATOM     11  C   UNL     1       9.890   6.875   1.646  0.00  0.00    +0.012 C 
ATOM     12  C   UNL     1      10.405   5.938   2.754  0.00  0.00    +0.023 C 
ATOM     14  C   UNL     1       9.541   6.007   3.997  0.00  0.00    -0.073 C 
ATOM     15  C   UNL     1       8.682   7.019   4.213  0.00  0.00    -0.023 C 
ATOM     20  C   UNL     1       9.653   4.862   4.965  0.00  0.00    +0.039 C 
ENDROOT
BRANCH   9  13
ATOM     13  C   UNL     1       9.120   9.182   1.022  0.00  0.00    -0.013 C 
ATOM     18  C   UNL     1      10.069  10.368   0.878  0.00  0.00    +0.007 C 
ATOM     19  C   UNL     1       9.048   8.386  -0.277  0.00  0.00    +0.007 C 
ENDBRANCH   9  13
BRANCH  10  16
ATOM     16  C   UNL     1       8.455   9.493   4.118  0.00  0.00    +0.113 C 
BRANCH  16   5
ATOM      5  N   UNL     1       9.833   9.885   4.456  0.00  0.00    -0.189 NA
ATOM     37  H   UNL     1      10.581   9.505   3.864  0.00  0.00    +0.148 HD
BRANCH   5   1
ATOM      1  S   UNL     1      10.230  10.323   6.054  0.00  0.00    +0.058 S 
ATOM      3  O   UNL     1       9.190  11.183   6.586  0.00  0.00    -0.153 OA
ATOM      4  O   UNL     1      11.618  10.742   6.100  0.00  0.00    -0.153 OA
BRANCH   1  22
ATOM     22  C   UNL     1      10.133   8.768   6.888  0.00  0.00    +0.105 A 
ATOM     24  C   UNL     1      11.222   7.898   6.873  0.00  0.00    +0.030 A 
ATOM     25  C   UNL     1       8.963   8.410   7.561  0.00  0.00    +0.030 A 
ATOM     27  C   UNL     1      11.145   6.672   7.531  0.00  0.00    +0.021 A 
ATOM     28  C   UNL     1       8.886   7.183   8.220  0.00  0.00    +0.021 A 
ATOM     29  C   UNL     1       9.977   6.313   8.205  0.00  0.00    +0.052 A 
BRANCH  29  35
ATOM      7  N   UNL     1       9.833   4.034   9.426  0.00  0.00    -0.191 NA
ATOM     35  C   UNL     1       9.897   5.056   8.878  0.00  0.00    +0.099 C 
ENDBRANCH  29  35
ENDBRANCH   1  22
ENDBRANCH   5   1
ENDBRANCH  16   5
ENDBRANCH  10  16
BRANCH  12  17
ATOM     17  C   UNL     1      11.872   6.231   3.089  0.00  0.00    +0.103 C 
BRANCH  17  21
ATOM      2  O   UNL     1      13.946   5.970   1.872  0.00  0.00    -0.276 OA
ATOM      6  N   UNL     1      12.246   4.414   1.580  0.00  0.00    -0.311 N 
ATOM     21  C   UNL     1      12.820   5.553   2.126  0.00  0.00    +0.214 C 
ATOM     38  H   UNL     1      11.309   4.145   1.867  0.00  0.00    +0.149 HD
BRANCH   6  23
ATOM     23  C   UNL     1      12.925   3.567   0.627  0.00  0.00    +0.139 C 
BRANCH  23  26
ATOM     26  C   UNL     1      12.184   3.478  -0.675  0.00  0.00    -0.030 A 
ATOM     30  C   UNL     1      11.165   4.387  -0.960  0.00  0.00    +0.006 A 
ATOM     31  C   UNL     1      12.512   2.485  -1.599  0.00  0.00    +0.006 A 
ATOM     32  C   UNL     1      10.476   4.304  -2.170  0.00  0.00    +0.019 A 
ATOM     33  C   UNL     1      11.823   2.403  -2.809  0.00  0.00    +0.019 A 
ATOM     34  C   UNL     1      10.804   3.312  -3.095  0.00  0.00    +0.052 A 
BRANCH  34  36
ATOM      8  N   UNL     1       9.524   3.159  -5.341  0.00  0.00    -0.191 NA
ATOM     36  C   UNL     1      10.098   3.228  -4.334  0.00  0.00    +0.099 C 
ENDBRANCH  34  36
ENDBRANCH  23  26
ENDBRANCH   6  23
ENDBRANCH  17  21
ENDBRANCH  12  17
TORSDOF 11
ENDMDL
MODEL 10
REMARK VINA RESULT:      -6.4     23.857     27.628
REMARK  Name = 38029318
REMARK  14 active torsions:
REMARK  status: ('A' for Active; 'I' for Inactive)
REMARK    1  A    between atoms: S_1  and  N_5
REMARK    2  A    between atoms: S_1  and  C_22
REMARK    3  A    between atoms: N_5  and  C_16
REMARK    4  A    between atoms: N_6  and  C_23
REMARK    5  A    between atoms: C_9  and  C_13
REMARK    6  A    between atoms: C_10  and  C_16
REMARK    7  A    between atoms: C_12  and  C_17
REMARK    8  A    between atoms: C_13  and  C_18
REMARK    9  A    between atoms: C_13  and  C_19
REMARK   10  A    between atoms: C_14  and  C_20
REMARK   11  A    between atoms: C_17  and  C_21
REMARK   12  A    between atoms: C_23  and  C_26
REMARK   13  A    between atoms: C_29  and  C_35
REMARK   14  A    between atoms: C_34  and  C_36
REMARK                            x       y       z     vdW  Elec       q    Type
REMARK                         _______ _______ _______ _____ _____    ______ ____
ROOT
ATOM      9  C   UNL     1      12.995   5.299  -0.756  0.00  0.00    +0.000 C 
ATOM     10  C   UNL     1      13.112   3.777  -0.491  0.00  0.00    +0.030 C 
ATOM     11  C   UNL     1      13.098   6.082   0.562  0.00  0.00    +0.012 C 
ATOM     12  C   UNL     1      12.005   5.676   1.567  0.00  0.00    +0.023 C 
ATOM     14  C   UNL     1      11.878   4.171   1.684  0.00  0.00    -0.073 C 
ATOM     15  C   UNL     1      12.391   3.338   0.761  0.00  0.00    -0.023 C 
ATOM     20  C   UNL     1      11.186   3.643   2.909  0.00  0.00    +0.039 C 
ENDROOT
BRANCH   9  13
ATOM     13  C   UNL     1      14.065   5.790  -1.737  0.00  0.00    -0.013 C 
ATOM     18  C   UNL     1      14.346   7.273  -1.519  0.00  0.00    +0.007 C 
ATOM     19  C   UNL     1      15.342   4.970  -1.585  0.00  0.00    +0.007 C 
ENDBRANCH   9  13
BRANCH  10  16
ATOM     16  C   UNL     1      12.601   2.966  -1.687  0.00  0.00    +0.113 C 
BRANCH  16   5
ATOM      5  N   UNL     1      11.134   3.071  -1.748  0.00  0.00    -0.189 NA
ATOM     37  H   UNL     1      10.615   2.795  -0.905  0.00  0.00    +0.148 HD
BRANCH   5   1
ATOM      1  S   UNL     1      10.329   2.966  -3.245  0.00  0.00    +0.058 S 
ATOM      3  O   UNL     1       9.451   1.811  -3.236  0.00  0.00    -0.153 OA
ATOM      4  O   UNL     1      11.292   3.142  -4.315  0.00  0.00    -0.153 OA
BRANCH   1  22
ATOM     22  C   UNL     1       9.322   4.418  -3.214  0.00  0.00    +0.105 A 
ATOM     24  C   UNL     1       8.432   4.672  -4.257  0.00  0.00    +0.030 A 
ATOM     25  C   UNL     1       9.417   5.311  -2.146  0.00  0.00    +0.030 A 
ATOM     27  C   UNL     1       7.637   5.818  -4.233  0.00  0.00    +0.021 A 
ATOM     28  C   UNL     1       8.622   6.456  -2.121  0.00  0.00    +0.021 A 
ATOM     29  C   UNL     1       7.732   6.711  -3.165  0.00  0.00    +0.052 A 
BRANCH  29  35
ATOM      7  N   UNL     1       6.256   8.838  -3.121  0.00  0.00    -0.191 NA
ATOM     35  C   UNL     1       6.918   7.885  -3.140  0.00  0.00    +0.099 C 
ENDBRANCH  29  35
ENDBRANCH   1  22
ENDBRANCH   5   1
ENDBRANCH  16   5
ENDBRANCH  10  16
BRANCH  12  17
ATOM     17  C   UNL     1      10.659   6.314   1.208  0.00  0.00    +0.103 C 
BRANCH  17  21
ATOM      2  O   UNL     1      10.645   8.438   2.367  0.00  0.00    -0.276 OA
ATOM      6  N   UNL     1       9.218   6.744   3.067  0.00  0.00    -0.311 N 
ATOM     21  C   UNL     1      10.198   7.300   2.259  0.00  0.00    +0.214 C 
ATOM     38  H   UNL     1       8.905   5.794   2.886  0.00  0.00    +0.149 HD
BRANCH   6  23
ATOM     23  C   UNL     1       8.594   7.459   4.157  0.00  0.00    +0.139 C 
BRANCH  23  26
ATOM     26  C   UNL     1       8.913   6.843   5.488  0.00  0.00    -0.030 A 
ATOM     30  C   UNL     1       9.481   5.571   5.551  0.00  0.00    +0.006 A 
ATOM     31  C   UNL     1       8.639   7.543   6.664  0.00  0.00    +0.006 A 
ATOM     32  C   UNL     1       9.778   5.000   6.788  0.00  0.00    +0.019 A 
ATOM     33  C   UNL     1       8.936   6.972   7.901  0.00  0.00    +0.019 A 
ATOM     34  C   UNL     1       9.504   5.699   7.964  0.00  0.00    +0.052 A 
BRANCH  34  36
ATOM      8  N   UNL     1      10.055   4.638  10.261  0.00  0.00    -0.191 NA
ATOM     36  C   UNL     1       9.808   5.114   9.231  0.00  0.00    +0.099 C 
ENDBRANCH  34  36
ENDBRANCH  23  26
ENDBRANCH   6  23
ENDBRANCH  17  21
ENDBRANCH  12  17
TORSDOF 11
ENDMDL
