MODEL 1
REMARK VINA RESULT:      -6.6      0.000      0.000
REMARK  Name = 75537016
REMARK  5 active torsions:
REMARK  status: ('A' for Active; 'I' for Inactive)
REMARK    1  A    between atoms: O_3  and  C_23
REMARK    2  A    between atoms: N_5  and  C_9
REMARK    3  A    between atoms: C_20  and  C_21
REMARK    4  A    between atoms: C_21  and  C_22
REMARK    5  A    between atoms: C_22  and  C_23
REMARK                            x       y       z     vdW  Elec       q    Type
REMARK                         _______ _______ _______ _____ _____    ______ ____
ROOT
ATOM      1  O   UNL     1      10.625  11.016  24.507  0.00  0.00    -0.252 OA
ATOM      2  O   UNL     1      12.084   6.460  19.450  0.00  0.00    -0.276 OA
ATOM      5  N   UNL     1      11.470  12.394  22.789  0.00  0.00    -0.281 N 
ATOM      6  N   UNL     1      11.205  10.200  22.381  0.00  0.00    -0.278 N 
ATOM      7  N   UNL     1      12.381   8.502  20.516  0.00  0.00    -0.298 N 
ATOM      8  C   UNL     1      11.620  10.762  21.107  0.00  0.00    +0.112 C 
ATOM     10  C   UNL     1      12.000  12.200  21.451  0.00  0.00    +0.133 C 
ATOM     11  C   UNL     1      12.748   9.931  20.501  0.00  0.00    +0.132 C 
ATOM     14  C   UNL     1      11.044  11.182  23.369  0.00  0.00    +0.305 C 
ATOM     15  C   UNL     1      10.911   8.782  22.481  0.00  0.00    +0.128 C 
ATOM     18  C   UNL     1      12.036   7.972  21.844  0.00  0.00    +0.127 C 
ATOM     20  C   UNL     1      12.371   7.660  19.406  0.00  0.00    +0.216 C 
ENDROOT
BRANCH   5   9
ATOM      9  C   UNL     1      11.524  13.673  23.455  0.00  0.00    +0.078 C 
ATOM     12  C   UNL     1      12.404  13.590  24.704  0.00  0.00    +0.022 C 
ATOM     13  C   UNL     1      10.115  14.166  23.798  0.00  0.00    +0.022 C 
ATOM     16  C   UNL     1      12.438  14.917  25.458  0.00  0.00    +0.002 C 
ATOM     17  C   UNL     1      10.153  15.492  24.552  0.00  0.00    +0.002 C 
ATOM     19  C   UNL     1      11.033  15.408  25.795  0.00  0.00    +0.000 C 
ENDBRANCH   5   9
BRANCH  20  21
ATOM     21  C   UNL     1      12.734   8.284  18.083  0.00  0.00    +0.107 C 
BRANCH  21  22
ATOM     22  C   UNL     1      11.475   8.612  17.306  0.00  0.00    +0.129 C 
BRANCH  22  23
ATOM      4  O   UNL     1      12.842   8.794  15.321  0.00  0.00    -0.251 OA
ATOM     23  C   UNL     1      11.801   9.069  15.905  0.00  0.00    +0.305 C 
BRANCH  23   3
ATOM      3  O   UNL     1      10.825   9.841  15.367  0.00  0.00    -0.481 OA
ATOM     24  H   UNL     1      11.140  10.750  15.175  0.00  0.00    +0.295 HD
ENDBRANCH  23   3
ENDBRANCH  22  23
ENDBRANCH  21  22
ENDBRANCH  20  21
TORSDOF 5
ENDMDL
MODEL 2
REMARK VINA RESULT:      -6.5      5.596      8.226
REMARK  Name = 75537016
REMARK  5 active torsions:
REMARK  status: ('A' for Active; 'I' for Inactive)
REMARK    1  A    between atoms: O_3  and  C_23
REMARK    2  A    between atoms: N_5  and  C_9
REMARK    3  A    between atoms: C_20  and  C_21
REMARK    4  A    between atoms: C_21  and  C_22
REMARK    5  A    between atoms: C_22  and  C_23
REMARK                            x       y       z     vdW  Elec       q    Type
REMARK                         _______ _______ _______ _____ _____    ______ ____
ROOT
ATOM      1  O   UNL     1      19.118   9.794  22.189  0.00  0.00    -0.252 OA
ATOM      2  O   UNL     1      12.177  10.270  21.985  0.00  0.00    -0.276 OA
ATOM      5  N   UNL     1      18.472   7.669  21.396  0.00  0.00    -0.281 N 
ATOM      6  N   UNL     1      16.889   9.233  21.706  0.00  0.00    -0.278 N 
ATOM      7  N   UNL     1      14.142   9.041  22.119  0.00  0.00    -0.298 N 
ATOM      8  C   UNL     1      16.182   8.110  21.114  0.00  0.00    +0.112 C 
ATOM     10  C   UNL     1      17.220   6.991  21.109  0.00  0.00    +0.133 C 
ATOM     11  C   UNL     1      14.914   7.802  21.905  0.00  0.00    +0.132 C 
ATOM     14  C   UNL     1      18.267   9.001  21.809  0.00  0.00    +0.305 C 
ATOM     15  C   UNL     1      16.167  10.454  22.019  0.00  0.00    +0.128 C 
ATOM     18  C   UNL     1      14.889  10.120  22.784  0.00  0.00    +0.127 C 
ATOM     20  C   UNL     1      12.807   9.231  21.772  0.00  0.00    +0.216 C 
ENDROOT
BRANCH   5   9
ATOM      9  C   UNL     1      19.738   6.977  21.380  0.00  0.00    +0.078 C 
ATOM     12  C   UNL     1      19.664   5.745  20.476  0.00  0.00    +0.022 C 
ATOM     13  C   UNL     1      20.167   6.601  22.801  0.00  0.00    +0.022 C 
ATOM     16  C   UNL     1      20.975   4.963  20.481  0.00  0.00    +0.002 C 
ATOM     17  C   UNL     1      21.478   5.819  22.802  0.00  0.00    +0.002 C 
ATOM     19  C   UNL     1      21.403   4.592  21.898  0.00  0.00    +0.000 C 
ENDBRANCH   5   9
BRANCH  20  21
ATOM     21  C   UNL     1      12.117   8.076  21.091  0.00  0.00    +0.107 C 
BRANCH  21  22
ATOM     22  C   UNL     1      11.920   8.388  19.621  0.00  0.00    +0.129 C 
BRANCH  22  23
ATOM      4  O   UNL     1      12.226   7.182  17.550  0.00  0.00    -0.251 OA
ATOM     23  C   UNL     1      12.125   7.159  18.770  0.00  0.00    +0.305 C 
BRANCH  23   3
ATOM      3  O   UNL     1      12.162   6.018  19.501  0.00  0.00    -0.481 OA
ATOM     24  H   UNL     1      12.297   5.226  18.937  0.00  0.00    +0.295 HD
ENDBRANCH  23   3
ENDBRANCH  22  23
ENDBRANCH  21  22
ENDBRANCH  20  21
TORSDOF 5
ENDMDL
MODEL 3
REMARK VINA RESULT:      -6.5      3.752      4.796
REMARK  Name = 75537016
REMARK  5 active torsions:
REMARK  status: ('A' for Active; 'I' for Inactive)
REMARK    1  A    between atoms: O_3  and  C_23
REMARK    2  A    between atoms: N_5  and  C_9
REMARK    3  A    between atoms: C_20  and  C_21
REMARK    4  A    between atoms: C_21  and  C_22
REMARK    5  A    between atoms: C_22  and  C_23
REMARK                            x       y       z     vdW  Elec       q    Type
REMARK                         _______ _______ _______ _____ _____    ______ ____
ROOT
ATOM      1  O   UNL     1      10.267   9.235  21.399  0.00  0.00    -0.252 OA
ATOM      2  O   UNL     1      16.089   5.984  19.404  0.00  0.00    -0.276 OA
ATOM      5  N   UNL     1      11.959  10.516  22.428  0.00  0.00    -0.281 N 
ATOM      6  N   UNL     1      12.557   8.835  21.061  0.00  0.00    -0.278 N 
ATOM      7  N   UNL     1      14.901   7.348  20.860  0.00  0.00    -0.298 N 
ATOM      8  C   UNL     1      13.809   9.476  21.422  0.00  0.00    +0.112 C 
ATOM     10  C   UNL     1      13.408  10.470  22.509  0.00  0.00    +0.133 C 
ATOM     11  C   UNL     1      14.835   8.433  21.857  0.00  0.00    +0.132 C 
ATOM     14  C   UNL     1      11.445   9.497  21.601  0.00  0.00    +0.305 C 
ATOM     15  C   UNL     1      12.562   7.706  20.148  0.00  0.00    +0.128 C 
ATOM     18  C   UNL     1      13.614   6.690  20.585  0.00  0.00    +0.127 C 
ATOM     20  C   UNL     1      16.057   6.912  20.217  0.00  0.00    +0.216 C 
ENDROOT
BRANCH   5   9
ATOM      9  C   UNL     1      11.176  11.427  23.228  0.00  0.00    +0.078 C 
ATOM     12  C   UNL     1      11.092  12.797  22.553  0.00  0.00    +0.022 C 
ATOM     13  C   UNL     1      11.752  11.537  24.643  0.00  0.00    +0.022 C 
ATOM     16  C   UNL     1      10.313  13.797  23.403  0.00  0.00    +0.002 C 
ATOM     17  C   UNL     1      10.971  12.538  25.490  0.00  0.00    +0.002 C 
ATOM     19  C   UNL     1      10.887  13.903  24.813  0.00  0.00    +0.000 C 
ENDBRANCH   5   9
BRANCH  20  21
ATOM     21  C   UNL     1      17.332   7.643  20.553  0.00  0.00    +0.107 C 
BRANCH  21  22
ATOM     22  C   UNL     1      18.226   6.758  21.398  0.00  0.00    +0.129 C 
BRANCH  22  23
ATOM      4  O   UNL     1      20.556   6.490  20.816  0.00  0.00    -0.251 OA
ATOM     23  C   UNL     1      19.382   6.221  20.591  0.00  0.00    +0.305 C 
BRANCH  23   3
ATOM      3  O   UNL     1      18.982   5.424  19.570  0.00  0.00    -0.481 OA
ATOM     24  H   UNL     1      19.732   4.930  19.175  0.00  0.00    +0.295 HD
ENDBRANCH  23   3
ENDBRANCH  22  23
ENDBRANCH  21  22
ENDBRANCH  20  21
TORSDOF 5
ENDMDL
MODEL 4
REMARK VINA RESULT:      -6.4      4.765      8.520
REMARK  Name = 75537016
REMARK  5 active torsions:
REMARK  status: ('A' for Active; 'I' for Inactive)
REMARK    1  A    between atoms: O_3  and  C_23
REMARK    2  A    between atoms: N_5  and  C_9
REMARK    3  A    between atoms: C_20  and  C_21
REMARK    4  A    between atoms: C_21  and  C_22
REMARK    5  A    between atoms: C_22  and  C_23
REMARK                            x       y       z     vdW  Elec       q    Type
REMARK                         _______ _______ _______ _____ _____    ______ ____
ROOT
ATOM      1  O   UNL     1      16.567   5.754  18.762  0.00  0.00    -0.252 OA
ATOM      2  O   UNL     1      10.862   9.156  20.842  0.00  0.00    -0.276 OA
ATOM      5  N   UNL     1      17.390   7.158  20.470  0.00  0.00    -0.281 N 
ATOM      6  N   UNL     1      15.178   7.125  20.070  0.00  0.00    -0.278 N 
ATOM      7  N   UNL     1      13.165   8.970  20.609  0.00  0.00    -0.298 N 
ATOM      8  C   UNL     1      15.327   7.983  21.233  0.00  0.00    +0.112 C 
ATOM     10  C   UNL     1      16.838   8.165  21.359  0.00  0.00    +0.133 C 
ATOM     11  C   UNL     1      14.541   9.278  21.044  0.00  0.00    +0.132 C 
ATOM     14  C   UNL     1      16.399   6.573  19.656  0.00  0.00    +0.305 C 
ATOM     15  C   UNL     1      13.854   6.851  19.542  0.00  0.00    +0.128 C 
ATOM     18  C   UNL     1      13.076   8.155  19.388  0.00  0.00    +0.127 C 
ATOM     20  C   UNL     1      12.003   9.407  21.240  0.00  0.00    +0.216 C 
ENDROOT
BRANCH   5   9
ATOM      9  C   UNL     1      18.810   6.920  20.371  0.00  0.00    +0.078 C 
ATOM     12  C   UNL     1      19.114   5.427  20.500  0.00  0.00    +0.022 C 
ATOM     13  C   UNL     1      19.569   7.737  21.421  0.00  0.00    +0.022 C 
ATOM     16  C   UNL     1      20.615   5.151  20.451  0.00  0.00    +0.002 C 
ATOM     17  C   UNL     1      21.069   7.458  21.370  0.00  0.00    +0.002 C 
ATOM     19  C   UNL     1      21.370   5.968  21.496  0.00  0.00    +0.000 C 
ENDBRANCH   5   9
BRANCH  20  21
ATOM     21  C   UNL     1      12.183  10.235  22.488  0.00  0.00    +0.107 C 
BRANCH  21  22
ATOM     22  C   UNL     1      10.898  10.244  23.290  0.00  0.00    +0.129 C 
BRANCH  22  23
ATOM      4  O   UNL     1      11.699  11.316  25.302  0.00  0.00    -0.251 OA
ATOM     23  C   UNL     1      10.926  11.314  24.353  0.00  0.00    +0.305 C 
BRANCH  23   3
ATOM      3  O   UNL     1       9.981  12.268  24.158  0.00  0.00    -0.481 OA
ATOM     24  H   UNL     1       9.137  11.887  23.835  0.00  0.00    +0.295 HD
ENDBRANCH  23   3
ENDBRANCH  22  23
ENDBRANCH  21  22
ENDBRANCH  20  21
TORSDOF 5
ENDMDL
MODEL 5
REMARK VINA RESULT:      -6.4     15.325     19.300
REMARK  Name = 75537016
REMARK  5 active torsions:
REMARK  status: ('A' for Active; 'I' for Inactive)
REMARK    1  A    between atoms: O_3  and  C_23
REMARK    2  A    between atoms: N_5  and  C_9
REMARK    3  A    between atoms: C_20  and  C_21
REMARK    4  A    between atoms: C_21  and  C_22
REMARK    5  A    between atoms: C_22  and  C_23
REMARK                            x       y       z     vdW  Elec       q    Type
REMARK                         _______ _______ _______ _____ _____    ______ ____
ROOT
ATOM      1  O   UNL     1       8.531   7.455   3.655  0.00  0.00    -0.252 OA
ATOM      2  O   UNL     1      12.077   4.646  -1.635  0.00  0.00    -0.276 OA
ATOM      5  N   UNL     1       9.766   5.742   4.705  0.00  0.00    -0.281 N 
ATOM      6  N   UNL     1      10.108   6.135   2.519  0.00  0.00    -0.278 N 
ATOM      7  N   UNL     1      11.126   4.537   0.480  0.00  0.00    -0.298 N 
ATOM      8  C   UNL     1      11.090   5.123   2.866  0.00  0.00    +0.112 C 
ATOM     10  C   UNL     1      10.705   4.716   4.287  0.00  0.00    +0.133 C 
ATOM     11  C   UNL     1      11.066   3.986   1.848  0.00  0.00    +0.132 C 
ATOM     14  C   UNL     1       9.365   6.560   3.630  0.00  0.00    +0.305 C 
ATOM     15  C   UNL     1      10.060   6.657   1.166  0.00  0.00    +0.128 C 
ATOM     18  C   UNL     1      10.066   5.506   0.163  0.00  0.00    +0.127 C 
ATOM     20  C   UNL     1      12.063   4.188  -0.489  0.00  0.00    +0.216 C 
ENDROOT
BRANCH   5   9
ATOM      9  C   UNL     1       9.231   5.789   6.045  0.00  0.00    +0.078 C 
ATOM     12  C   UNL     1       9.371   7.196   6.628  0.00  0.00    +0.022 C 
ATOM     13  C   UNL     1       9.912   4.746   6.936  0.00  0.00    +0.022 C 
ATOM     16  C   UNL     1       8.861   7.263   8.066  0.00  0.00    +0.002 C 
ATOM     17  C   UNL     1       9.400   4.816   8.372  0.00  0.00    +0.002 C 
ATOM     19  C   UNL     1       9.537   6.220   8.951  0.00  0.00    +0.000 C 
ENDBRANCH   5   9
BRANCH  20  21
ATOM     21  C   UNL     1      13.118   3.191  -0.080  0.00  0.00    +0.107 C 
BRANCH  21  22
ATOM     22  C   UNL     1      14.459   3.883   0.051  0.00  0.00    +0.129 C 
BRANCH  22  23
ATOM      4  O   UNL     1      14.533   5.294   2.011  0.00  0.00    -0.251 OA
ATOM     23  C   UNL     1      14.766   4.210   1.491  0.00  0.00    +0.305 C 
BRANCH  23   3
ATOM      3  O   UNL     1      15.354   3.179   2.146  0.00  0.00    -0.481 OA
ATOM     24  H   UNL     1      14.724   2.446   2.318  0.00  0.00    +0.295 HD
ENDBRANCH  23   3
ENDBRANCH  22  23
ENDBRANCH  21  22
ENDBRANCH  20  21
TORSDOF 5
ENDMDL
MODEL 6
REMARK VINA RESULT:      -6.4     14.404     19.825
REMARK  Name = 75537016
REMARK  5 active torsions:
REMARK  status: ('A' for Active; 'I' for Inactive)
REMARK    1  A    between atoms: O_3  and  C_23
REMARK    2  A    between atoms: N_5  and  C_9
REMARK    3  A    between atoms: C_20  and  C_21
REMARK    4  A    between atoms: C_21  and  C_22
REMARK    5  A    between atoms: C_22  and  C_23
REMARK                            x       y       z     vdW  Elec       q    Type
REMARK                         _______ _______ _______ _____ _____    ______ ____
ROOT
ATOM      1  O   UNL     1      13.352   7.586   1.427  0.00  0.00    -0.252 OA
ATOM      2  O   UNL     1      10.713   7.790   7.865  0.00  0.00    -0.276 OA
ATOM      5  N   UNL     1      11.808   5.803   1.416  0.00  0.00    -0.281 N 
ATOM      6  N   UNL     1      11.934   7.111   3.239  0.00  0.00    -0.278 N 
ATOM      7  N   UNL     1      11.219   6.673   5.893  0.00  0.00    -0.298 N 
ATOM      8  C   UNL     1      10.829   6.208   3.512  0.00  0.00    +0.112 C 
ATOM     10  C   UNL     1      10.895   5.198   2.370  0.00  0.00    +0.133 C 
ATOM     11  C   UNL     1      10.966   5.604   4.908  0.00  0.00    +0.132 C 
ATOM     14  C   UNL     1      12.474   6.920   1.959  0.00  0.00    +0.305 C 
ATOM     15  C   UNL     1      12.287   8.131   4.209  0.00  0.00    +0.128 C 
ATOM     18  C   UNL     1      12.390   7.512   5.601  0.00  0.00    +0.127 C 
ATOM     20  C   UNL     1      10.466   6.904   7.042  0.00  0.00    +0.216 C 
ENDROOT
BRANCH   5   9
ATOM      9  C   UNL     1      12.071   5.210   0.127  0.00  0.00    +0.078 C 
ATOM     12  C   UNL     1      10.837   4.462  -0.380  0.00  0.00    +0.022 C 
ATOM     13  C   UNL     1      13.294   4.290   0.193  0.00  0.00    +0.022 C 
ATOM     16  C   UNL     1      11.104   3.779  -1.720  0.00  0.00    +0.002 C 
ATOM     17  C   UNL     1      13.556   3.609  -1.148  0.00  0.00    +0.002 C 
ATOM     19  C   UNL     1      12.324   2.866  -1.653  0.00  0.00    +0.000 C 
ENDBRANCH   5   9
BRANCH  20  21
ATOM     21  C   UNL     1       9.280   6.000   7.265  0.00  0.00    +0.107 C 
BRANCH  21  22
ATOM     22  C   UNL     1       9.035   5.828   8.750  0.00  0.00    +0.129 C 
BRANCH  22  23
ATOM      4  O   UNL     1      10.143   4.572  10.492  0.00  0.00    -0.251 OA
ATOM     23  C   UNL     1       9.845   4.686   9.309  0.00  0.00    +0.305 C 
BRANCH  23   3
ATOM      3  O   UNL     1      10.233   3.804   8.354  0.00  0.00    -0.481 OA
ATOM     24  H   UNL     1      10.292   2.888   8.703  0.00  0.00    +0.295 HD
ENDBRANCH  23   3
ENDBRANCH  22  23
ENDBRANCH  21  22
ENDBRANCH  20  21
TORSDOF 5
ENDMDL
MODEL 7
REMARK VINA RESULT:      -6.2     28.184     29.829
REMARK  Name = 75537016
REMARK  5 active torsions:
REMARK  status: ('A' for Active; 'I' for Inactive)
REMARK    1  A    between atoms: O_3  and  C_23
REMARK    2  A    between atoms: N_5  and  C_9
REMARK    3  A    between atoms: C_20  and  C_21
REMARK    4  A    between atoms: C_21  and  C_22
REMARK    5  A    between atoms: C_22  and  C_23
REMARK                            x       y       z     vdW  Elec       q    Type
REMARK                         _______ _______ _______ _____ _____    ______ ____
ROOT
ATOM      1  O   UNL     1      -9.687 -11.235  19.190  0.00  0.00    -0.252 OA
ATOM      2  O   UNL     1     -13.598  -6.444  15.994  0.00  0.00    -0.276 OA
ATOM      5  N   UNL     1      -8.160 -10.217  17.708  0.00  0.00    -0.281 N 
ATOM      6  N   UNL     1     -10.244  -9.387  17.850  0.00  0.00    -0.278 N 
ATOM      7  N   UNL     1     -11.760  -7.860  16.083  0.00  0.00    -0.298 N 
ATOM      8  C   UNL     1      -9.547  -8.477  16.957  0.00  0.00    +0.112 C 
ATOM     10  C   UNL     1      -8.210  -9.169  16.704  0.00  0.00    +0.133 C 
ATOM     11  C   UNL     1     -10.380  -8.219  15.704  0.00  0.00    +0.132 C 
ATOM     14  C   UNL     1      -9.400 -10.385  18.357  0.00  0.00    +0.305 C 
ATOM     15  C   UNL     1     -11.631  -9.136  18.196  0.00  0.00    +0.128 C 
ATOM     18  C   UNL     1     -12.439  -8.852  16.932  0.00  0.00    +0.127 C 
ATOM     20  C   UNL     1     -12.433  -6.709  15.682  0.00  0.00    +0.216 C 
ENDROOT
BRANCH   5   9
ATOM      9  C   UNL     1      -6.997 -11.053  17.885  0.00  0.00    +0.078 C 
ATOM     12  C   UNL     1      -6.276 -10.700  19.187  0.00  0.00    +0.022 C 
ATOM     13  C   UNL     1      -6.059 -10.936  16.679  0.00  0.00    +0.022 C 
ATOM     16  C   UNL     1      -5.011 -11.534  19.374  0.00  0.00    +0.002 C 
ATOM     17  C   UNL     1      -4.795 -11.769  16.870  0.00  0.00    +0.002 C 
ATOM     19  C   UNL     1      -4.079 -11.419  18.171  0.00  0.00    +0.000 C 
ENDBRANCH   5   9
BRANCH  20  21
ATOM     21  C   UNL     1     -11.663  -5.744  14.817  0.00  0.00    +0.107 C 
BRANCH  21  22
ATOM     22  C   UNL     1     -12.354  -5.589  13.477  0.00  0.00    +0.129 C 
BRANCH  22  23
ATOM      4  O   UNL     1     -14.016  -3.836  13.434  0.00  0.00    -0.251 OA
ATOM     23  C   UNL     1     -12.851  -4.179  13.279  0.00  0.00    +0.305 C 
BRANCH  23   3
ATOM      3  O   UNL     1     -11.870  -3.330  12.885  0.00  0.00    -0.481 OA
ATOM     24  H   UNL     1     -12.226  -2.566  12.381  0.00  0.00    +0.295 HD
ENDBRANCH  23   3
ENDBRANCH  22  23
ENDBRANCH  21  22
ENDBRANCH  20  21
TORSDOF 5
ENDMDL
MODEL 8
REMARK VINA RESULT:      -6.2      6.174      9.035
REMARK  Name = 75537016
REMARK  5 active torsions:
REMARK  status: ('A' for Active; 'I' for Inactive)
REMARK    1  A    between atoms: O_3  and  C_23
REMARK    2  A    between atoms: N_5  and  C_9
REMARK    3  A    between atoms: C_20  and  C_21
REMARK    4  A    between atoms: C_21  and  C_22
REMARK    5  A    between atoms: C_22  and  C_23
REMARK                            x       y       z     vdW  Elec       q    Type
REMARK                         _______ _______ _______ _____ _____    ______ ____
ROOT
ATOM      1  O   UNL     1      19.849   9.166  21.794  0.00  0.00    -0.252 OA
ATOM      2  O   UNL     1      12.984   9.980  20.987  0.00  0.00    -0.276 OA
ATOM      5  N   UNL     1      19.147   7.024  21.102  0.00  0.00    -0.281 N 
ATOM      6  N   UNL     1      17.636   8.686  21.171  0.00  0.00    -0.278 N 
ATOM      7  N   UNL     1      14.860   8.666  21.369  0.00  0.00    -0.298 N 
ATOM      8  C   UNL     1      16.915   7.559  20.603  0.00  0.00    +0.112 C 
ATOM     10  C   UNL     1      17.885   6.391  20.762  0.00  0.00    +0.133 C 
ATOM     11  C   UNL     1      15.573   7.376  21.307  0.00  0.00    +0.132 C 
ATOM     14  C   UNL     1      18.987   8.391  21.403  0.00  0.00    +0.305 C 
ATOM     15  C   UNL     1      16.963   9.961  21.337  0.00  0.00    +0.128 C 
ATOM     18  C   UNL     1      15.612   9.752  22.015  0.00  0.00    +0.127 C 
ATOM     20  C   UNL     1      13.569   8.897  20.900  0.00  0.00    +0.216 C 
ENDROOT
BRANCH   5   9
ATOM      9  C   UNL     1      20.369   6.268  21.239  0.00  0.00    +0.078 C 
ATOM     12  C   UNL     1      20.242   4.913  20.542  0.00  0.00    +0.022 C 
ATOM     13  C   UNL     1      20.741   6.104  22.716  0.00  0.00    +0.022 C 
ATOM     16  C   UNL     1      21.503   4.070  20.716  0.00  0.00    +0.002 C 
ATOM     17  C   UNL     1      22.001   5.260  22.886  0.00  0.00    +0.002 C 
ATOM     19  C   UNL     1      21.874   3.910  22.188  0.00  0.00    +0.000 C 
ENDBRANCH   5   9
BRANCH  20  21
ATOM     21  C   UNL     1      12.869   7.731  20.248  0.00  0.00    +0.107 C 
BRANCH  21  22
ATOM     22  C   UNL     1      11.368   7.923  20.324  0.00  0.00    +0.129 C 
BRANCH  22  23
ATOM      4  O   UNL     1      10.537   7.882  22.593  0.00  0.00    -0.251 OA
ATOM     23  C   UNL     1      10.798   7.275  21.561  0.00  0.00    +0.305 C 
BRANCH  23   3
ATOM      3  O   UNL     1      10.624   5.938  21.419  0.00  0.00    -0.481 OA
ATOM     24  H   UNL     1      10.131   5.717  20.600  0.00  0.00    +0.295 HD
ENDBRANCH  23   3
ENDBRANCH  22  23
ENDBRANCH  21  22
ENDBRANCH  20  21
TORSDOF 5
ENDMDL
MODEL 9
REMARK VINA RESULT:      -6.2     26.723     28.872
REMARK  Name = 75537016
REMARK  5 active torsions:
REMARK  status: ('A' for Active; 'I' for Inactive)
REMARK    1  A    between atoms: O_3  and  C_23
REMARK    2  A    between atoms: N_5  and  C_9
REMARK    3  A    between atoms: C_20  and  C_21
REMARK    4  A    between atoms: C_21  and  C_22
REMARK    5  A    between atoms: C_22  and  C_23
REMARK                            x       y       z     vdW  Elec       q    Type
REMARK                         _______ _______ _______ _____ _____    ______ ____
ROOT
ATOM      1  O   UNL     1      -4.620 -11.759  18.390  0.00  0.00    -0.252 OA
ATOM      2  O   UNL     1     -11.197  -9.622  19.187  0.00  0.00    -0.276 OA
ATOM      5  N   UNL     1      -5.084 -10.714  16.327  0.00  0.00    -0.281 N 
ATOM      6  N   UNL     1      -6.637 -10.639  17.949  0.00  0.00    -0.278 N 
ATOM      7  N   UNL     1      -9.392 -10.248  17.866  0.00  0.00    -0.298 N 
ATOM      8  C   UNL     1      -7.183  -9.818  16.881  0.00  0.00    +0.112 C 
ATOM     10  C   UNL     1      -6.224 -10.052  15.717  0.00  0.00    +0.133 C 
ATOM     11  C   UNL     1      -8.633 -10.202  16.602  0.00  0.00    +0.132 C 
ATOM     14  C   UNL     1      -5.353 -11.116  17.650  0.00  0.00    +0.305 C 
ATOM     15  C   UNL     1      -7.377 -10.793  19.188  0.00  0.00    +0.128 C 
ATOM     18  C   UNL     1      -8.831 -11.148  18.885  0.00  0.00    +0.127 C 
ATOM     20  C   UNL     1     -10.566  -9.547  18.128  0.00  0.00    +0.216 C 
ENDROOT
BRANCH   5   9
ATOM      9  C   UNL     1      -3.889 -11.024  15.579  0.00  0.00    +0.078 C 
ATOM     12  C   UNL     1      -2.674 -10.330  16.198  0.00  0.00    +0.022 C 
ATOM     13  C   UNL     1      -4.059 -10.641  14.105  0.00  0.00    +0.022 C 
ATOM     16  C   UNL     1      -1.403 -10.598  15.395  0.00  0.00    +0.002 C 
ATOM     17  C   UNL     1      -2.786 -10.910  13.307  0.00  0.00    +0.002 C 
ATOM     19  C   UNL     1      -1.575 -10.220  13.927  0.00  0.00    +0.000 C 
ENDBRANCH   5   9
BRANCH  20  21
ATOM     21  C   UNL     1     -11.072  -8.643  17.032  0.00  0.00    +0.107 C 
BRANCH  21  22
ATOM     22  C   UNL     1     -10.429  -7.277  17.153  0.00  0.00    +0.129 C 
BRANCH  22  23
ATOM      4  O   UNL     1     -12.035  -6.208  15.697  0.00  0.00    -0.251 OA
ATOM     23  C   UNL     1     -10.868  -6.366  16.034  0.00  0.00    +0.305 C 
BRANCH  23   3
ATOM      3  O   UNL     1      -9.825  -5.755  15.419  0.00  0.00    -0.481 OA
ATOM     24  H   UNL     1     -10.040  -5.504  14.495  0.00  0.00    +0.295 HD
ENDBRANCH  23   3
ENDBRANCH  22  23
ENDBRANCH  21  22
ENDBRANCH  20  21
TORSDOF 5
ENDMDL
MODEL 10
REMARK VINA RESULT:      -6.2      7.470      9.705
REMARK  Name = 75537016
REMARK  5 active torsions:
REMARK  status: ('A' for Active; 'I' for Inactive)
REMARK    1  A    between atoms: O_3  and  C_23
REMARK    2  A    between atoms: N_5  and  C_9
REMARK    3  A    between atoms: C_20  and  C_21
REMARK    4  A    between atoms: C_21  and  C_22
REMARK    5  A    between atoms: C_22  and  C_23
REMARK                            x       y       z     vdW  Elec       q    Type
REMARK                         _______ _______ _______ _____ _____    ______ ____
ROOT
ATOM      1  O   UNL     1      16.641   9.819  21.736  0.00  0.00    -0.252 OA
ATOM      2  O   UNL     1      22.474   6.032  22.039  0.00  0.00    -0.276 OA
ATOM      5  N   UNL     1      16.024   7.821  20.645  0.00  0.00    -0.281 N 
ATOM      6  N   UNL     1      18.066   7.959  21.572  0.00  0.00    -0.278 N 
ATOM      7  N   UNL     1      20.428   6.569  21.081  0.00  0.00    -0.298 N 
ATOM      8  C   UNL     1      17.971   6.588  21.100  0.00  0.00    +0.112 C 
ATOM     10  C   UNL     1      16.677   6.573  20.290  0.00  0.00    +0.133 C 
ATOM     11  C   UNL     1      19.222   6.208  20.312  0.00  0.00    +0.132 C 
ATOM     14  C   UNL     1      16.880   8.677  21.367  0.00  0.00    +0.305 C 
ATOM     15  C   UNL     1      19.264   8.400  22.263  0.00  0.00    +0.128 C 
ATOM     18  C   UNL     1      20.503   7.985  21.474  0.00  0.00    +0.127 C 
ATOM     20  C   UNL     1      21.462   5.699  21.416  0.00  0.00    +0.216 C 
ENDROOT
BRANCH   5   9
ATOM      9  C   UNL     1      14.703   8.155  20.170  0.00  0.00    +0.078 C 
ATOM     12  C   UNL     1      13.843   6.896  20.047  0.00  0.00    +0.022 C 
ATOM     13  C   UNL     1      14.781   8.909  18.839  0.00  0.00    +0.022 C 
ATOM     16  C   UNL     1      12.455   7.214  19.496  0.00  0.00    +0.002 C 
ATOM     17  C   UNL     1      13.392   9.224  18.291  0.00  0.00    +0.002 C 
ATOM     19  C   UNL     1      12.535   7.968  18.172  0.00  0.00    +0.000 C 
ENDBRANCH   5   9
BRANCH  20  21
ATOM     21  C   UNL     1      21.304   4.264  20.978  0.00  0.00    +0.107 C 
BRANCH  21  22
ATOM     22  C   UNL     1      22.115   3.358  21.882  0.00  0.00    +0.129 C 
BRANCH  22  23
ATOM      4  O   UNL     1      24.484   3.250  21.422  0.00  0.00    -0.251 OA
ATOM     23  C   UNL     1      23.351   2.852  21.182  0.00  0.00    +0.305 C 
BRANCH  23   3
ATOM      3  O   UNL     1      23.072   1.921  20.236  0.00  0.00    -0.481 OA
ATOM     24  H   UNL     1      22.123   1.929  19.983  0.00  0.00    +0.295 HD
ENDBRANCH  23   3
ENDBRANCH  22  23
ENDBRANCH  21  22
ENDBRANCH  20  21
TORSDOF 5
ENDMDL
