MODEL 1
REMARK VINA RESULT:      -7.0      0.000      0.000
REMARK  Name = 11885041
REMARK  15 active torsions:
REMARK  status: ('A' for Active; 'I' for Inactive)
REMARK    1  A    between atoms: O_2  and  C_16
REMARK    2  A    between atoms: O_3  and  C_21
REMARK    3  A    between atoms: N_8  and  C_27
REMARK    4  A    between atoms: N_10  and  C_29
REMARK    5  A    between atoms: C_11  and  C_19
REMARK    6  A    between atoms: C_13  and  C_21
REMARK    7  A    between atoms: C_13  and  C_22
REMARK    8  A    between atoms: C_14  and  C_24
REMARK    9  A    between atoms: C_24  and  C_25
REMARK   10  A    between atoms: C_27  and  C_29
REMARK   11  A    between atoms: C_28  and  C_30
REMARK   12  A    between atoms: C_30  and  C_31
REMARK   13  A    between atoms: C_31  and  C_34
REMARK   14  A    between atoms: C_31  and  C_35
REMARK   15  A    between atoms: C_31  and  C_36
REMARK                            x       y       z     vdW  Elec       q    Type
REMARK                         _______ _______ _______ _____ _____    ______ ____
ROOT
ATOM      1  S   UNL     1      -4.118  -9.125   9.724  0.00  0.00    -0.057 S 
ATOM      5  O   UNL     1      -8.630  -8.151   9.086  0.00  0.00    -0.275 OA
ATOM      7  N   UNL     1      -6.456  -9.159  10.832  0.00  0.00    -0.229 NA
ATOM      9  N   UNL     1      -6.336  -8.335   8.570  0.00  0.00    -0.265 N 
ATOM     11  C   UNL     1      -4.862 -10.975  13.837  0.00  0.00    -0.019 C 
ATOM     12  C   UNL     1      -3.458 -10.253  13.628  0.00  0.00    +0.011 C 
ATOM     13  C   UNL     1      -2.272 -10.713  14.561  0.00  0.00    +0.021 C 
ATOM     14  C   UNL     1      -5.984 -10.082  13.131  0.00  0.00    +0.054 C 
ATOM     15  C   UNL     1      -5.181 -11.054  15.352  0.00  0.00    +0.010 C 
ATOM     16  C   UNL     1      -2.775 -10.782  16.032  0.00  0.00    +0.123 C 
ATOM     17  C   UNL     1      -3.076 -10.177  12.122  0.00  0.00    +0.049 C 
ATOM     18  C   UNL     1      -4.044 -11.612  16.194  0.00  0.00    +0.032 C 
ATOM     19  C   UNL     1      -4.897 -12.407  13.246  0.00  0.00    +0.012 C 
ATOM     20  C   UNL     1      -5.553  -9.661  11.751  0.00  0.00    +0.058 A 
ATOM     22  C   UNL     1      -1.143  -9.644  14.509  0.00  0.00    +0.016 C 
ATOM     23  C   UNL     1      -4.240  -9.694  11.324  0.00  0.00    +0.015 A 
ATOM     26  C   UNL     1      -5.813  -8.851   9.726  0.00  0.00    +0.165 A 
ATOM     28  C   UNL     1      -7.682  -8.020   8.318  0.00  0.00    +0.219 C 
ATOM     42  H   UNL     1      -5.658  -8.172   7.830  0.00  0.00    +0.157 HD
ENDROOT
BRANCH  16   2
ATOM      2  O   UNL     1      -1.763 -11.318  16.884  0.00  0.00    -0.391 OA
ATOM     39  H   UNL     1      -1.727 -10.764  17.682  0.00  0.00    +0.210 HD
ENDBRANCH  16   2
BRANCH  13  21
ATOM     21  C   UNL     1      -1.606 -12.042  14.144  0.00  0.00    +0.165 C 
BRANCH  21   3
ATOM      3  O   UNL     1      -2.210 -13.079  14.885  0.00  0.00    -0.394 OA
ATOM     40  H   UNL     1      -2.988 -12.701  15.331  0.00  0.00    +0.209 HD
ENDBRANCH  21   3
ENDBRANCH  13  21
BRANCH  14  24
ATOM     24  C   UNL     1      -7.384 -10.712  13.114  0.00  0.00    +0.106 C 
BRANCH  24  25
ATOM      4  O   UNL     1      -9.316  -9.259  13.202  0.00  0.00    -0.276 OA
ATOM      8  N   UNL     1      -8.178  -9.774  15.161  0.00  0.00    -0.314 N 
ATOM     25  C   UNL     1      -8.408  -9.836  13.795  0.00  0.00    +0.214 C 
ATOM     41  H   UNL     1      -7.402 -10.295  15.560  0.00  0.00    +0.149 HD
BRANCH   8  27
ATOM     27  C   UNL     1      -9.001  -9.004  16.067  0.00  0.00    +0.119 C 
BRANCH  27  29
ATOM     29  C   UNL     1      -8.359  -8.903  17.443  0.00  0.00    +0.103 C 
BRANCH  29  10
ATOM      6  O   UNL     1      -7.520 -12.047  20.094  0.00  0.00    -0.377 OA
ATOM     10  N   UNL     1      -8.068 -10.235  17.968  0.00  0.00    -0.297 NA
ATOM     32  C   UNL     1      -6.762 -10.258  18.640  0.00  0.00    +0.112 C 
ATOM     33  C   UNL     1      -9.121 -10.672  18.896  0.00  0.00    +0.112 C 
ATOM     37  C   UNL     1      -6.487 -11.656  19.189  0.00  0.00    +0.175 C 
ATOM     38  C   UNL     1      -8.790 -12.059  19.439  0.00  0.00    +0.175 C 
ENDBRANCH  29  10
ENDBRANCH  27  29
ENDBRANCH   8  27
ENDBRANCH  24  25
ENDBRANCH  14  24
BRANCH  28  30
ATOM     30  C   UNL     1      -7.905  -7.467   6.915  0.00  0.00    +0.102 C 
BRANCH  30  31
ATOM     31  C   UNL     1      -8.076  -8.542   5.815  0.00  0.00    -0.029 C 
ATOM     34  C   UNL     1      -9.101  -9.607   6.236  0.00  0.00    +0.011 C 
ATOM     35  C   UNL     1      -8.594  -7.843   4.543  0.00  0.00    +0.011 C 
ATOM     36  C   UNL     1      -6.740  -9.227   5.482  0.00  0.00    +0.011 C 
ENDBRANCH  30  31
ENDBRANCH  28  30
TORSDOF 10
ENDMDL
MODEL 2
REMARK VINA RESULT:      -6.9     26.716     29.790
REMARK  Name = 11885041
REMARK  15 active torsions:
REMARK  status: ('A' for Active; 'I' for Inactive)
REMARK    1  A    between atoms: O_2  and  C_16
REMARK    2  A    between atoms: O_3  and  C_21
REMARK    3  A    between atoms: N_8  and  C_27
REMARK    4  A    between atoms: N_10  and  C_29
REMARK    5  A    between atoms: C_11  and  C_19
REMARK    6  A    between atoms: C_13  and  C_21
REMARK    7  A    between atoms: C_13  and  C_22
REMARK    8  A    between atoms: C_14  and  C_24
REMARK    9  A    between atoms: C_24  and  C_25
REMARK   10  A    between atoms: C_27  and  C_29
REMARK   11  A    between atoms: C_28  and  C_30
REMARK   12  A    between atoms: C_30  and  C_31
REMARK   13  A    between atoms: C_31  and  C_34
REMARK   14  A    between atoms: C_31  and  C_35
REMARK   15  A    between atoms: C_31  and  C_36
REMARK                            x       y       z     vdW  Elec       q    Type
REMARK                         _______ _______ _______ _____ _____    ______ ____
ROOT
ATOM      1  S   UNL     1      14.670   8.896   6.302  0.00  0.00    -0.057 S 
ATOM      5  O   UNL     1      11.740   7.213   3.093  0.00  0.00    -0.275 OA
ATOM      7  N   UNL     1      14.499   7.926   3.910  0.00  0.00    -0.229 NA
ATOM      9  N   UNL     1      12.443   8.128   5.150  0.00  0.00    -0.265 N 
ATOM     11  C   UNL     1      18.248   8.714   3.464  0.00  0.00    -0.019 C 
ATOM     12  C   UNL     1      18.558   8.493   5.010  0.00  0.00    +0.011 C 
ATOM     13  C   UNL     1      20.024   8.809   5.497  0.00  0.00    +0.021 C 
ATOM     14  C   UNL     1      16.894   7.939   3.118  0.00  0.00    +0.054 C 
ATOM     15  C   UNL     1      19.392   8.103   2.615  0.00  0.00    +0.010 C 
ATOM     16  C   UNL     1      21.042   8.164   4.513  0.00  0.00    +0.123 C 
ATOM     17  C   UNL     1      17.451   9.118   5.907  0.00  0.00    +0.049 C 
ATOM     18  C   UNL     1      20.784   8.532   3.056  0.00  0.00    +0.032 C 
ATOM     19  C   UNL     1      18.094  10.209   3.088  0.00  0.00    +0.012 C 
ATOM     20  C   UNL     1      15.830   8.219   4.146  0.00  0.00    +0.058 A 
ATOM     22  C   UNL     1      20.249   8.154   6.890  0.00  0.00    +0.016 C 
ATOM     23  C   UNL     1      16.103   8.732   5.398  0.00  0.00    +0.015 A 
ATOM     26  C   UNL     1      13.796   8.248   4.973  0.00  0.00    +0.165 A 
ATOM     28  C   UNL     1      11.511   7.630   4.224  0.00  0.00    +0.219 C 
ATOM     42  H   UNL     1      12.100   8.441   6.055  0.00  0.00    +0.157 HD
ENDROOT
BRANCH  16   2
ATOM      2  O   UNL     1      22.376   8.539   4.853  0.00  0.00    -0.391 OA
ATOM     39  H   UNL     1      22.397   8.723   5.807  0.00  0.00    +0.210 HD
ENDBRANCH  16   2
BRANCH  13  21
ATOM     21  C   UNL     1      20.325  10.312   5.693  0.00  0.00    +0.165 C 
BRANCH  21   3
ATOM      3  O   UNL     1      21.183  10.439   6.805  0.00  0.00    -0.394 OA
ATOM     40  H   UNL     1      20.865   9.824   7.488  0.00  0.00    +0.209 HD
ENDBRANCH  21   3
ENDBRANCH  13  21
BRANCH  14  24
ATOM     24  C   UNL     1      16.373   8.169   1.692  0.00  0.00    +0.106 C 
BRANCH  24  25
ATOM      4  O   UNL     1      17.102   6.729  -0.110  0.00  0.00    -0.276 OA
ATOM      8  N   UNL     1      15.482   5.977   1.376  0.00  0.00    -0.314 N 
ATOM     25  C   UNL     1      16.384   6.901   0.872  0.00  0.00    +0.214 C 
ATOM     41  H   UNL     1      14.937   6.212   2.201  0.00  0.00    +0.149 HD
BRANCH   8  27
ATOM     27  C   UNL     1      15.276   4.672   0.789  0.00  0.00    +0.119 C 
BRANCH  27  29
ATOM     29  C   UNL     1      14.193   3.899   1.529  0.00  0.00    +0.103 C 
BRANCH  29  10
ATOM      6  O   UNL     1      10.239   3.993   0.126  0.00  0.00    -0.377 OA
ATOM     10  N   UNL     1      12.869   4.382   1.140  0.00  0.00    -0.297 NA
ATOM     32  C   UNL     1      12.625   4.141  -0.288  0.00  0.00    +0.112 C 
ATOM     33  C   UNL     1      11.823   3.739   1.947  0.00  0.00    +0.112 C 
ATOM     37  C   UNL     1      11.234   4.642  -0.667  0.00  0.00    +0.175 C 
ATOM     38  C   UNL     1      10.450   4.248   1.516  0.00  0.00    +0.175 C 
ENDBRANCH  29  10
ENDBRANCH  27  29
ENDBRANCH   8  27
ENDBRANCH  24  25
ENDBRANCH  14  24
BRANCH  28  30
ATOM     30  C   UNL     1      10.083   7.647   4.758  0.00  0.00    +0.102 C 
BRANCH  30  31
ATOM     31  C   UNL     1       9.694   6.416   5.610  0.00  0.00    -0.029 C 
ATOM     34  C   UNL     1      10.039   6.637   7.092  0.00  0.00    +0.011 C 
ATOM     35  C   UNL     1       8.171   6.214   5.489  0.00  0.00    +0.011 C 
ATOM     36  C   UNL     1      10.394   5.140   5.112  0.00  0.00    +0.011 C 
ENDBRANCH  30  31
ENDBRANCH  28  30
TORSDOF 10
ENDMDL
MODEL 3
REMARK VINA RESULT:      -6.8      2.712      4.045
REMARK  Name = 11885041
REMARK  15 active torsions:
REMARK  status: ('A' for Active; 'I' for Inactive)
REMARK    1  A    between atoms: O_2  and  C_16
REMARK    2  A    between atoms: O_3  and  C_21
REMARK    3  A    between atoms: N_8  and  C_27
REMARK    4  A    between atoms: N_10  and  C_29
REMARK    5  A    between atoms: C_11  and  C_19
REMARK    6  A    between atoms: C_13  and  C_21
REMARK    7  A    between atoms: C_13  and  C_22
REMARK    8  A    between atoms: C_14  and  C_24
REMARK    9  A    between atoms: C_24  and  C_25
REMARK   10  A    between atoms: C_27  and  C_29
REMARK   11  A    between atoms: C_28  and  C_30
REMARK   12  A    between atoms: C_30  and  C_31
REMARK   13  A    between atoms: C_31  and  C_34
REMARK   14  A    between atoms: C_31  and  C_35
REMARK   15  A    between atoms: C_31  and  C_36
REMARK                            x       y       z     vdW  Elec       q    Type
REMARK                         _______ _______ _______ _____ _____    ______ ____
ROOT
ATOM      1  S   UNL     1      -5.761  -9.988  10.244  0.00  0.00    -0.057 S 
ATOM      5  O   UNL     1     -10.125  -8.449  10.793  0.00  0.00    -0.275 OA
ATOM      7  N   UNL     1      -7.592  -9.429  11.983  0.00  0.00    -0.229 NA
ATOM      9  N   UNL     1      -8.157  -9.095   9.665  0.00  0.00    -0.265 N 
ATOM     11  C   UNL     1      -5.259 -10.851  14.704  0.00  0.00    -0.019 C 
ATOM     12  C   UNL     1      -3.946 -10.418  13.914  0.00  0.00    +0.011 C 
ATOM     13  C   UNL     1      -2.563 -10.869  14.525  0.00  0.00    +0.021 C 
ATOM     14  C   UNL     1      -6.468  -9.947  14.181  0.00  0.00    +0.054 C 
ATOM     15  C   UNL     1      -5.063 -10.578  16.218  0.00  0.00    +0.010 C 
ATOM     16  C   UNL     1      -2.553 -10.567  16.051  0.00  0.00    +0.123 C 
ATOM     17  C   UNL     1      -4.080 -10.701  12.390  0.00  0.00    +0.049 C 
ATOM     18  C   UNL     1      -3.765 -11.135  16.783  0.00  0.00    +0.032 C 
ATOM     19  C   UNL     1      -5.613 -12.346  14.510  0.00  0.00    +0.012 C 
ATOM     20  C   UNL     1      -6.483  -9.879  12.676  0.00  0.00    +0.058 A 
ATOM     22  C   UNL     1      -1.425 -10.027  13.880  0.00  0.00    +0.016 C 
ATOM     23  C   UNL     1      -5.395 -10.205  11.893  0.00  0.00    +0.015 A 
ATOM     26  C   UNL     1      -7.328  -9.451  10.695  0.00  0.00    +0.165 A 
ATOM     28  C   UNL     1      -9.477  -8.625   9.765  0.00  0.00    +0.219 C 
ATOM     42  H   UNL     1      -7.751  -9.192   8.737  0.00  0.00    +0.157 HD
ENDROOT
BRANCH  16   2
ATOM      2  O   UNL     1      -1.368 -11.080  16.658  0.00  0.00    -0.391 OA
ATOM     39  H   UNL     1      -0.644 -10.984  16.016  0.00  0.00    +0.210 HD
ENDBRANCH  16   2
BRANCH  13  21
ATOM     21  C   UNL     1      -2.192 -12.344  14.253  0.00  0.00    +0.165 C 
BRANCH  21   3
ATOM      3  O   UNL     1      -1.405 -12.383  13.084  0.00  0.00    -0.394 OA
ATOM     40  H   UNL     1      -1.862 -12.956  12.445  0.00  0.00    +0.209 HD
ENDBRANCH  21   3
ENDBRANCH  13  21
BRANCH  14  24
ATOM     24  C   UNL     1      -7.844 -10.335  14.741  0.00  0.00    +0.106 C 
BRANCH  24  25
ATOM      4  O   UNL     1      -7.824  -9.386  16.966  0.00  0.00    -0.276 OA
ATOM      8  N   UNL     1      -9.311  -8.563  15.381  0.00  0.00    -0.314 N 
ATOM     25  C   UNL     1      -8.298  -9.396  15.833  0.00  0.00    +0.214 C 
ATOM     41  H   UNL     1      -9.629  -8.644  14.419  0.00  0.00    +0.149 HD
BRANCH   8  27
ATOM     27  C   UNL     1      -9.942  -7.563  16.212  0.00  0.00    +0.119 C 
BRANCH  27  29
ATOM     29  C   UNL     1     -10.381  -6.360  15.390  0.00  0.00    +0.103 C 
BRANCH  29  10
ATOM      6  O   UNL     1     -14.442  -5.858  14.457  0.00  0.00    -0.377 OA
ATOM     10  N   UNL     1     -11.716  -6.582  14.838  0.00  0.00    -0.297 NA
ATOM     32  C   UNL     1     -12.707  -6.729  15.913  0.00  0.00    +0.112 C 
ATOM     33  C   UNL     1     -12.100  -5.481  13.944  0.00  0.00    +0.112 C 
ATOM     37  C   UNL     1     -14.093  -6.948  15.312  0.00  0.00    +0.175 C 
ATOM     38  C   UNL     1     -13.501  -5.729  13.390  0.00  0.00    +0.175 C 
ENDBRANCH  29  10
ENDBRANCH  27  29
ENDBRANCH   8  27
ENDBRANCH  24  25
ENDBRANCH  14  24
BRANCH  28  30
ATOM     30  C   UNL     1     -10.103  -8.330   8.408  0.00  0.00    +0.102 C 
BRANCH  30  31
ATOM     31  C   UNL     1      -9.754  -6.942   7.820  0.00  0.00    -0.029 C 
ATOM     34  C   UNL     1      -8.266  -6.860   7.440  0.00  0.00    +0.011 C 
ATOM     35  C   UNL     1     -10.595  -6.738   6.546  0.00  0.00    +0.011 C 
ATOM     36  C   UNL     1     -10.087  -5.811   8.807  0.00  0.00    +0.011 C 
ENDBRANCH  30  31
ENDBRANCH  28  30
TORSDOF 10
ENDMDL
MODEL 4
REMARK VINA RESULT:      -6.7      5.009      9.446
REMARK  Name = 11885041
REMARK  15 active torsions:
REMARK  status: ('A' for Active; 'I' for Inactive)
REMARK    1  A    between atoms: O_2  and  C_16
REMARK    2  A    between atoms: O_3  and  C_21
REMARK    3  A    between atoms: N_8  and  C_27
REMARK    4  A    between atoms: N_10  and  C_29
REMARK    5  A    between atoms: C_11  and  C_19
REMARK    6  A    between atoms: C_13  and  C_21
REMARK    7  A    between atoms: C_13  and  C_22
REMARK    8  A    between atoms: C_14  and  C_24
REMARK    9  A    between atoms: C_24  and  C_25
REMARK   10  A    between atoms: C_27  and  C_29
REMARK   11  A    between atoms: C_28  and  C_30
REMARK   12  A    between atoms: C_30  and  C_31
REMARK   13  A    between atoms: C_31  and  C_34
REMARK   14  A    between atoms: C_31  and  C_35
REMARK   15  A    between atoms: C_31  and  C_36
REMARK                            x       y       z     vdW  Elec       q    Type
REMARK                         _______ _______ _______ _____ _____    ______ ____
ROOT
ATOM      1  S   UNL     1     -10.529 -13.164  19.222  0.00  0.00    -0.057 S 
ATOM      5  O   UNL     1     -13.770  -9.906  18.449  0.00  0.00    -0.275 OA
ATOM      7  N   UNL     1     -10.964 -10.830  18.195  0.00  0.00    -0.229 NA
ATOM      9  N   UNL     1     -12.848 -11.939  19.211  0.00  0.00    -0.265 N 
ATOM     11  C   UNL     1      -7.171 -10.546  17.561  0.00  0.00    -0.019 C 
ATOM     12  C   UNL     1      -7.008 -12.117  17.364  0.00  0.00    +0.011 C 
ATOM     13  C   UNL     1      -5.541 -12.665  17.175  0.00  0.00    +0.021 C 
ATOM     14  C   UNL     1      -8.702 -10.173  17.293  0.00  0.00    +0.054 C 
ATOM     15  C   UNL     1      -6.297  -9.801  16.519  0.00  0.00    +0.010 C 
ATOM     16  C   UNL     1      -4.793 -11.781  16.136  0.00  0.00    +0.123 C 
ATOM     17  C   UNL     1      -7.843 -12.912  18.410  0.00  0.00    +0.049 C 
ATOM     18  C   UNL     1      -4.858 -10.292  16.458  0.00  0.00    +0.032 C 
ATOM     19  C   UNL     1      -6.767 -10.071  18.979  0.00  0.00    +0.012 C 
ATOM     20  C   UNL     1      -9.625 -11.122  18.013  0.00  0.00    +0.058 A 
ATOM     22  C   UNL     1      -5.608 -14.106  16.592  0.00  0.00    +0.016 C 
ATOM     23  C   UNL     1      -9.224 -12.353  18.490  0.00  0.00    +0.015 A 
ATOM     26  C   UNL     1     -11.537 -11.831  18.828  0.00  0.00    +0.165 A 
ATOM     28  C   UNL     1     -13.869 -10.995  19.007  0.00  0.00    +0.219 C 
ATOM     42  H   UNL     1     -13.082 -12.802  19.694  0.00  0.00    +0.157 HD
ENDROOT
BRANCH  16   2
ATOM      2  O   UNL     1      -3.424 -12.170  16.037  0.00  0.00    -0.391 OA
ATOM     39  H   UNL     1      -3.312 -12.640  15.193  0.00  0.00    +0.210 HD
ENDBRANCH  16   2
BRANCH  13  21
ATOM     21  C   UNL     1      -4.727 -12.785  18.483  0.00  0.00    +0.165 C 
BRANCH  21   3
ATOM      3  O   UNL     1      -4.047 -14.019  18.457  0.00  0.00    -0.394 OA
ATOM     40  H   UNL     1      -4.652 -14.676  18.071  0.00  0.00    +0.209 HD
ENDBRANCH  21   3
ENDBRANCH  13  21
BRANCH  14  24
ATOM     24  C   UNL     1      -9.063  -8.709  17.584  0.00  0.00    +0.106 C 
BRANCH  24  25
ATOM      4  O   UNL     1      -9.564  -8.442  15.232  0.00  0.00    -0.276 OA
ATOM      8  N   UNL     1     -10.367  -6.887  16.760  0.00  0.00    -0.314 N 
ATOM     25  C   UNL     1      -9.676  -8.028  16.383  0.00  0.00    +0.214 C 
ATOM     41  H   UNL     1     -10.408  -6.632  17.743  0.00  0.00    +0.149 HD
BRANCH   8  27
ATOM     27  C   UNL     1     -11.054  -6.031  15.819  0.00  0.00    +0.119 C 
BRANCH  27  29
ATOM     29  C   UNL     1     -12.473  -6.518  15.565  0.00  0.00    +0.103 C 
BRANCH  29  10
ATOM      6  O   UNL     1     -12.215  -6.007  11.407  0.00  0.00    -0.377 OA
ATOM     10  N   UNL     1     -12.843  -6.300  14.168  0.00  0.00    -0.297 NA
ATOM     32  C   UNL     1     -12.221  -5.075  13.648  0.00  0.00    +0.112 C 
ATOM     33  C   UNL     1     -12.457  -7.453  13.341  0.00  0.00    +0.112 C 
ATOM     37  C   UNL     1     -12.612  -4.877  12.186  0.00  0.00    +0.175 C 
ATOM     38  C   UNL     1     -12.842  -7.198  11.887  0.00  0.00    +0.175 C 
ENDBRANCH  29  10
ENDBRANCH  27  29
ENDBRANCH   8  27
ENDBRANCH  24  25
ENDBRANCH  14  24
BRANCH  28  30
ATOM     30  C   UNL     1     -15.210 -11.447  19.572  0.00  0.00    +0.102 C 
BRANCH  30  31
ATOM     31  C   UNL     1     -15.459 -11.049  21.047  0.00  0.00    -0.029 C 
ATOM     34  C   UNL     1     -14.270 -11.452  21.936  0.00  0.00    +0.011 C 
ATOM     35  C   UNL     1     -15.616  -9.518  21.108  0.00  0.00    +0.011 C 
ATOM     36  C   UNL     1     -16.743 -11.692  21.596  0.00  0.00    +0.011 C 
ENDBRANCH  30  31
ENDBRANCH  28  30
TORSDOF 10
ENDMDL
MODEL 5
REMARK VINA RESULT:      -6.7      3.084      6.283
REMARK  Name = 11885041
REMARK  15 active torsions:
REMARK  status: ('A' for Active; 'I' for Inactive)
REMARK    1  A    between atoms: O_2  and  C_16
REMARK    2  A    between atoms: O_3  and  C_21
REMARK    3  A    between atoms: N_8  and  C_27
REMARK    4  A    between atoms: N_10  and  C_29
REMARK    5  A    between atoms: C_11  and  C_19
REMARK    6  A    between atoms: C_13  and  C_21
REMARK    7  A    between atoms: C_13  and  C_22
REMARK    8  A    between atoms: C_14  and  C_24
REMARK    9  A    between atoms: C_24  and  C_25
REMARK   10  A    between atoms: C_27  and  C_29
REMARK   11  A    between atoms: C_28  and  C_30
REMARK   12  A    between atoms: C_30  and  C_31
REMARK   13  A    between atoms: C_31  and  C_34
REMARK   14  A    between atoms: C_31  and  C_35
REMARK   15  A    between atoms: C_31  and  C_36
REMARK                            x       y       z     vdW  Elec       q    Type
REMARK                         _______ _______ _______ _____ _____    ______ ____
ROOT
ATOM      1  S   UNL     1      -7.479 -12.223  12.637  0.00  0.00    -0.057 S 
ATOM      5  O   UNL     1      -3.521 -12.168  10.177  0.00  0.00    -0.275 OA
ATOM      7  N   UNL     1      -4.912 -11.936  12.785  0.00  0.00    -0.229 NA
ATOM      9  N   UNL     1      -5.836 -12.344  10.597  0.00  0.00    -0.265 N 
ATOM     11  C   UNL     1      -5.359 -11.040  16.509  0.00  0.00    -0.019 C 
ATOM     12  C   UNL     1      -6.641 -11.971  16.660  0.00  0.00    +0.011 C 
ATOM     13  C   UNL     1      -7.398 -11.929  18.043  0.00  0.00    +0.021 C 
ATOM     14  C   UNL     1      -4.523 -11.554  15.248  0.00  0.00    +0.054 C 
ATOM     15  C   UNL     1      -4.471 -11.177  17.773  0.00  0.00    +0.010 C 
ATOM     16  C   UNL     1      -6.360 -12.030  19.198  0.00  0.00    +0.123 C 
ATOM     17  C   UNL     1      -7.583 -11.846  15.427  0.00  0.00    +0.049 C 
ATOM     18  C   UNL     1      -5.230 -11.013  19.081  0.00  0.00    +0.032 C 
ATOM     19  C   UNL     1      -5.718  -9.547  16.313  0.00  0.00    +0.012 C 
ATOM     20  C   UNL     1      -5.421 -11.795  14.063  0.00  0.00    +0.058 A 
ATOM     22  C   UNL     1      -8.330 -13.169  18.150  0.00  0.00    +0.016 C 
ATOM     23  C   UNL     1      -6.790 -11.940  14.168  0.00  0.00    +0.015 A 
ATOM     26  C   UNL     1      -5.906 -12.157  11.952  0.00  0.00    +0.165 A 
ATOM     28  C   UNL     1      -4.677 -12.339   9.801  0.00  0.00    +0.219 C 
ATOM     42  H   UNL     1      -6.731 -12.498  10.140  0.00  0.00    +0.157 HD
ENDROOT
BRANCH  16   2
ATOM      2  O   UNL     1      -6.998 -11.866  20.464  0.00  0.00    -0.391 OA
ATOM     39  H   UNL     1      -7.479 -12.687  20.660  0.00  0.00    +0.210 HD
ENDBRANCH  16   2
BRANCH  13  21
ATOM     21  C   UNL     1      -8.316 -10.701  18.235  0.00  0.00    +0.165 C 
BRANCH  21   3
ATOM      3  O   UNL     1      -9.394 -11.093  19.055  0.00  0.00    -0.394 OA
ATOM     40  H   UNL     1     -10.150 -11.277  18.471  0.00  0.00    +0.209 HD
ENDBRANCH  21   3
ENDBRANCH  13  21
BRANCH  14  24
ATOM     24  C   UNL     1      -3.324 -10.672  14.874  0.00  0.00    +0.106 C 
BRANCH  24  25
ATOM      4  O   UNL     1      -1.070 -11.186  15.589  0.00  0.00    -0.276 OA
ATOM      8  N   UNL     1      -2.074 -12.480  13.941  0.00  0.00    -0.314 N 
ATOM     25  C   UNL     1      -2.028 -11.449  14.866  0.00  0.00    +0.214 C 
ATOM     41  H   UNL     1      -2.920 -12.622  13.395  0.00  0.00    +0.149 HD
BRANCH   8  27
ATOM     27  C   UNL     1      -0.973 -13.388  13.714  0.00  0.00    +0.119 C 
BRANCH  27  29
ATOM     29  C   UNL     1      -1.463 -14.819  13.547  0.00  0.00    +0.103 C 
BRANCH  29  10
ATOM      6  O   UNL     1      -5.418 -16.218  13.411  0.00  0.00    -0.377 OA
ATOM     10  N   UNL     1      -2.923 -14.850  13.471  0.00  0.00    -0.297 NA
ATOM     32  C   UNL     1      -3.368 -15.583  12.278  0.00  0.00    +0.112 C 
ATOM     33  C   UNL     1      -3.494 -15.460  14.681  0.00  0.00    +0.112 C 
ATOM     37  C   UNL     1      -4.893 -15.612  12.228  0.00  0.00    +0.175 C 
ATOM     38  C   UNL     1      -5.016 -15.492  14.574  0.00  0.00    +0.175 C 
ENDBRANCH  29  10
ENDBRANCH  27  29
ENDBRANCH   8  27
ENDBRANCH  24  25
ENDBRANCH  14  24
BRANCH  28  30
ATOM     30  C   UNL     1      -4.975 -12.574   8.326  0.00  0.00    +0.102 C 
BRANCH  30  31
ATOM     31  C   UNL     1      -5.400 -11.310   7.541  0.00  0.00    -0.029 C 
ATOM     34  C   UNL     1      -4.832 -10.038   8.191  0.00  0.00    +0.011 C 
ATOM     35  C   UNL     1      -4.832 -11.422   6.113  0.00  0.00    +0.011 C 
ATOM     36  C   UNL     1      -6.930 -11.191   7.446  0.00  0.00    +0.011 C 
ENDBRANCH  30  31
ENDBRANCH  28  30
TORSDOF 10
ENDMDL
MODEL 6
REMARK VINA RESULT:      -6.5      3.304      5.699
REMARK  Name = 11885041
REMARK  15 active torsions:
REMARK  status: ('A' for Active; 'I' for Inactive)
REMARK    1  A    between atoms: O_2  and  C_16
REMARK    2  A    between atoms: O_3  and  C_21
REMARK    3  A    between atoms: N_8  and  C_27
REMARK    4  A    between atoms: N_10  and  C_29
REMARK    5  A    between atoms: C_11  and  C_19
REMARK    6  A    between atoms: C_13  and  C_21
REMARK    7  A    between atoms: C_13  and  C_22
REMARK    8  A    between atoms: C_14  and  C_24
REMARK    9  A    between atoms: C_24  and  C_25
REMARK   10  A    between atoms: C_27  and  C_29
REMARK   11  A    between atoms: C_28  and  C_30
REMARK   12  A    between atoms: C_30  and  C_31
REMARK   13  A    between atoms: C_31  and  C_34
REMARK   14  A    between atoms: C_31  and  C_35
REMARK   15  A    between atoms: C_31  and  C_36
REMARK                            x       y       z     vdW  Elec       q    Type
REMARK                         _______ _______ _______ _____ _____    ______ ____
ROOT
ATOM      1  S   UNL     1      -4.943 -10.706  12.780  0.00  0.00    -0.057 S 
ATOM      5  O   UNL     1      -8.027  -8.488  10.081  0.00  0.00    -0.275 OA
ATOM      7  N   UNL     1      -7.303  -9.651  12.711  0.00  0.00    -0.229 NA
ATOM      9  N   UNL     1      -6.014  -9.564  10.677  0.00  0.00    -0.265 N 
ATOM     11  C   UNL     1      -7.870 -11.004  16.277  0.00  0.00    -0.019 C 
ATOM     12  C   UNL     1      -6.328 -10.881  16.653  0.00  0.00    +0.011 C 
ATOM     13  C   UNL     1      -5.888 -11.438  18.062  0.00  0.00    +0.021 C 
ATOM     14  C   UNL     1      -8.159 -10.015  15.056  0.00  0.00    +0.054 C 
ATOM     15  C   UNL     1      -8.733 -10.554  17.485  0.00  0.00    +0.010 C 
ATOM     16  C   UNL     1      -6.882 -10.931  19.146  0.00  0.00    +0.123 C 
ATOM     17  C   UNL     1      -5.418 -11.351  15.482  0.00  0.00    +0.049 C 
ATOM     18  C   UNL     1      -8.341 -11.210  18.801  0.00  0.00    +0.032 C 
ATOM     19  C   UNL     1      -8.281 -12.444  15.881  0.00  0.00    +0.012 C 
ATOM     20  C   UNL     1      -7.110 -10.156  13.984  0.00  0.00    +0.058 A 
ATOM     22  C   UNL     1      -4.486 -10.868  18.418  0.00  0.00    +0.016 C 
ATOM     23  C   UNL     1      -5.880 -10.742  14.201  0.00  0.00    +0.015 A 
ATOM     26  C   UNL     1      -6.230  -9.890  11.990  0.00  0.00    +0.165 A 
ATOM     28  C   UNL     1      -6.901  -8.898   9.814  0.00  0.00    +0.219 C 
ATOM     42  H   UNL     1      -5.109  -9.847  10.310  0.00  0.00    +0.157 HD
ENDROOT
BRANCH  16   2
ATOM      2  O   UNL     1      -6.589 -11.521  20.412  0.00  0.00    -0.391 OA
ATOM     39  H   UNL     1      -6.265 -12.423  20.248  0.00  0.00    +0.210 HD
ENDBRANCH  16   2
BRANCH  13  21
ATOM     21  C   UNL     1      -5.741 -12.975  18.125  0.00  0.00    +0.165 C 
BRANCH  21   3
ATOM      3  O   UNL     1      -4.442 -13.264  18.593  0.00  0.00    -0.394 OA
ATOM     40  H   UNL     1      -4.285 -12.707  19.375  0.00  0.00    +0.209 HD
ENDBRANCH  21   3
ENDBRANCH  13  21
BRANCH  14  24
ATOM     24  C   UNL     1      -9.576 -10.118  14.473  0.00  0.00    +0.106 C 
BRANCH  24  25
ATOM      4  O   UNL     1     -10.048  -7.912  15.349  0.00  0.00    -0.276 OA
ATOM      8  N   UNL     1     -11.325  -8.748  13.596  0.00  0.00    -0.314 N 
ATOM     25  C   UNL     1     -10.316  -8.803  14.546  0.00  0.00    +0.214 C 
ATOM     41  H   UNL     1     -11.462  -9.537  12.970  0.00  0.00    +0.149 HD
BRANCH   8  27
ATOM     27  C   UNL     1     -12.200  -7.608  13.437  0.00  0.00    +0.119 C 
BRANCH  27  29
ATOM     29  C   UNL     1     -12.547  -7.380  11.973  0.00  0.00    +0.103 C 
BRANCH  29  10
ATOM      6  O   UNL     1     -11.842  -3.282  11.407  0.00  0.00    -0.377 OA
ATOM     10  N   UNL     1     -12.761  -5.957  11.718  0.00  0.00    -0.297 NA
ATOM     32  C   UNL     1     -12.342  -5.151  12.871  0.00  0.00    +0.112 C 
ATOM     33  C   UNL     1     -12.038  -5.529  10.512  0.00  0.00    +0.112 C 
ATOM     37  C   UNL     1     -12.565  -3.670  12.576  0.00  0.00    +0.175 C 
ATOM     38  C   UNL     1     -12.267  -4.039  10.272  0.00  0.00    +0.175 C 
ENDBRANCH  29  10
ENDBRANCH  27  29
ENDBRANCH   8  27
ENDBRANCH  24  25
ENDBRANCH  14  24
BRANCH  28  30
ATOM     30  C   UNL     1      -6.329  -8.707   8.414  0.00  0.00    +0.102 C 
BRANCH  30  31
ATOM     31  C   UNL     1      -6.422  -9.953   7.501  0.00  0.00    -0.029 C 
ATOM     34  C   UNL     1      -7.577 -10.871   7.934  0.00  0.00    +0.011 C 
ATOM     35  C   UNL     1      -6.695  -9.471   6.063  0.00  0.00    +0.011 C 
ATOM     36  C   UNL     1      -5.110 -10.754   7.504  0.00  0.00    +0.011 C 
ENDBRANCH  30  31
ENDBRANCH  28  30
TORSDOF 10
ENDMDL
MODEL 7
REMARK VINA RESULT:      -6.4     24.586     27.741
REMARK  Name = 11885041
REMARK  15 active torsions:
REMARK  status: ('A' for Active; 'I' for Inactive)
REMARK    1  A    between atoms: O_2  and  C_16
REMARK    2  A    between atoms: O_3  and  C_21
REMARK    3  A    between atoms: N_8  and  C_27
REMARK    4  A    between atoms: N_10  and  C_29
REMARK    5  A    between atoms: C_11  and  C_19
REMARK    6  A    between atoms: C_13  and  C_21
REMARK    7  A    between atoms: C_13  and  C_22
REMARK    8  A    between atoms: C_14  and  C_24
REMARK    9  A    between atoms: C_24  and  C_25
REMARK   10  A    between atoms: C_27  and  C_29
REMARK   11  A    between atoms: C_28  and  C_30
REMARK   12  A    between atoms: C_30  and  C_31
REMARK   13  A    between atoms: C_31  and  C_34
REMARK   14  A    between atoms: C_31  and  C_35
REMARK   15  A    between atoms: C_31  and  C_36
REMARK                            x       y       z     vdW  Elec       q    Type
REMARK                         _______ _______ _______ _____ _____    ______ ____
ROOT
ATOM      1  S   UNL     1      14.915   5.011   1.371  0.00  0.00    -0.057 S 
ATOM      5  O   UNL     1      13.390   8.172   4.437  0.00  0.00    -0.275 OA
ATOM      7  N   UNL     1      12.977   6.627   1.940  0.00  0.00    -0.229 NA
ATOM      9  N   UNL     1      14.837   6.579   3.471  0.00  0.00    -0.265 N 
ATOM     11  C   UNL     1      11.393   5.715  -1.456  0.00  0.00    -0.019 C 
ATOM     12  C   UNL     1      11.997   4.242  -1.430  0.00  0.00    +0.011 C 
ATOM     13  C   UNL     1      11.768   3.353  -2.713  0.00  0.00    +0.021 C 
ATOM     14  C   UNL     1      11.350   6.256   0.047  0.00  0.00    +0.054 C 
ATOM     15  C   UNL     1       9.941   5.668  -1.999  0.00  0.00    +0.010 C 
ATOM     16  C   UNL     1      10.278   3.456  -3.148  0.00  0.00    +0.123 C 
ATOM     17  C   UNL     1      13.467   4.239  -0.920  0.00  0.00    +0.049 C 
ATOM     18  C   UNL     1       9.795   4.893  -3.301  0.00  0.00    +0.032 C 
ATOM     19  C   UNL     1      12.219   6.690  -2.330  0.00  0.00    +0.012 C 
ATOM     20  C   UNL     1      12.653   5.989   0.757  0.00  0.00    +0.058 A 
ATOM     22  C   UNL     1      12.043   1.865  -2.354  0.00  0.00    +0.016 C 
ATOM     23  C   UNL     1      13.580   5.067   0.315  0.00  0.00    +0.015 A 
ATOM     26  C   UNL     1      14.149   6.196   2.350  0.00  0.00    +0.165 A 
ATOM     28  C   UNL     1      14.431   7.522   4.430  0.00  0.00    +0.219 C 
ATOM     42  H   UNL     1      15.735   6.119   3.600  0.00  0.00    +0.157 HD
ENDROOT
BRANCH  16   2
ATOM      2  O   UNL     1      10.065   2.766  -4.379  0.00  0.00    -0.391 OA
ATOM     39  H   UNL     1      10.471   1.886  -4.298  0.00  0.00    +0.210 HD
ENDBRANCH  16   2
BRANCH  13  21
ATOM     21  C   UNL     1      12.710   3.676  -3.894  0.00  0.00    +0.165 C 
BRANCH  21   3
ATOM      3  O   UNL     1      13.142   2.454  -4.448  0.00  0.00    -0.394 OA
ATOM     40  H   UNL     1      12.493   1.775  -4.194  0.00  0.00    +0.209 HD
ENDBRANCH  21   3
ENDBRANCH  13  21
BRANCH  14  24
ATOM     24  C   UNL     1      10.926   7.724   0.186  0.00  0.00    +0.106 C 
BRANCH  24  25
ATOM      4  O   UNL     1       8.694   8.451   0.772  0.00  0.00    -0.276 OA
ATOM      8  N   UNL     1       9.981   7.320   2.341  0.00  0.00    -0.314 N 
ATOM     25  C   UNL     1       9.734   7.886   1.100  0.00  0.00    +0.214 C 
ATOM     41  H   UNL     1      10.874   6.867   2.513  0.00  0.00    +0.149 HD
BRANCH   8  27
ATOM     27  C   UNL     1       9.018   7.328   3.419  0.00  0.00    +0.119 C 
BRANCH  27  29
ATOM     29  C   UNL     1       9.616   7.917   4.688  0.00  0.00    +0.103 C 
BRANCH  29  10
ATOM      6  O   UNL     1       9.932   5.836   8.319  0.00  0.00    -0.377 OA
ATOM     10  N   UNL     1       9.291   7.079   5.840  0.00  0.00    -0.297 NA
ATOM     32  C   UNL     1      10.183   5.914   5.907  0.00  0.00    +0.112 C 
ATOM     33  C   UNL     1       9.375   7.851   7.088  0.00  0.00    +0.112 C 
ATOM     37  C   UNL     1       9.831   5.061   7.123  0.00  0.00    +0.175 C 
ATOM     38  C   UNL     1       9.043   6.954   8.276  0.00  0.00    +0.175 C 
ENDBRANCH  29  10
ENDBRANCH  27  29
ENDBRANCH   8  27
ENDBRANCH  24  25
ENDBRANCH  14  24
BRANCH  28  30
ATOM     30  C   UNL     1      15.452   7.703   5.547  0.00  0.00    +0.102 C 
BRANCH  30  31
ATOM     31  C   UNL     1      16.288   9.003   5.457  0.00  0.00    -0.029 C 
ATOM     34  C   UNL     1      16.454   9.453   3.996  0.00  0.00    +0.011 C 
ATOM     35  C   UNL     1      15.536  10.108   6.224  0.00  0.00    +0.011 C 
ATOM     36  C   UNL     1      17.676   8.828   6.094  0.00  0.00    +0.011 C 
ENDBRANCH  30  31
ENDBRANCH  28  30
TORSDOF 10
ENDMDL
MODEL 8
REMARK VINA RESULT:      -6.3      4.829     10.112
REMARK  Name = 11885041
REMARK  15 active torsions:
REMARK  status: ('A' for Active; 'I' for Inactive)
REMARK    1  A    between atoms: O_2  and  C_16
REMARK    2  A    between atoms: O_3  and  C_21
REMARK    3  A    between atoms: N_8  and  C_27
REMARK    4  A    between atoms: N_10  and  C_29
REMARK    5  A    between atoms: C_11  and  C_19
REMARK    6  A    between atoms: C_13  and  C_21
REMARK    7  A    between atoms: C_13  and  C_22
REMARK    8  A    between atoms: C_14  and  C_24
REMARK    9  A    between atoms: C_24  and  C_25
REMARK   10  A    between atoms: C_27  and  C_29
REMARK   11  A    between atoms: C_28  and  C_30
REMARK   12  A    between atoms: C_30  and  C_31
REMARK   13  A    between atoms: C_31  and  C_34
REMARK   14  A    between atoms: C_31  and  C_35
REMARK   15  A    between atoms: C_31  and  C_36
REMARK                            x       y       z     vdW  Elec       q    Type
REMARK                         _______ _______ _______ _____ _____    ______ ____
ROOT
ATOM      1  S   UNL     1      -6.090 -10.786   6.700  0.00  0.00    -0.057 S 
ATOM      5  O   UNL     1      -4.918  -7.965  10.219  0.00  0.00    -0.275 OA
ATOM      7  N   UNL     1      -6.793  -8.688   8.040  0.00  0.00    -0.229 NA
ATOM      9  N   UNL     1      -4.747  -9.770   8.711  0.00  0.00    -0.265 N 
ATOM     11  C   UNL     1      -9.670  -8.201   5.517  0.00  0.00    -0.019 C 
ATOM     12  C   UNL     1      -9.808  -9.765   5.255  0.00  0.00    +0.011 C 
ATOM     13  C   UNL     1     -10.828 -10.216   4.139  0.00  0.00    +0.021 C 
ATOM     14  C   UNL     1      -8.953  -8.001   6.932  0.00  0.00    +0.054 C 
ATOM     15  C   UNL     1     -11.081  -7.563   5.590  0.00  0.00    +0.010 C 
ATOM     16  C   UNL     1     -12.168  -9.450   4.331  0.00  0.00    +0.123 C 
ATOM     17  C   UNL     1      -8.415 -10.449   5.143  0.00  0.00    +0.049 C 
ATOM     18  C   UNL     1     -11.988  -7.939   4.427  0.00  0.00    +0.032 C 
ATOM     19  C   UNL     1      -8.852  -7.476   4.420  0.00  0.00    +0.012 C 
ATOM     20  C   UNL     1      -7.747  -8.895   7.061  0.00  0.00    +0.058 A 
ATOM     22  C   UNL     1     -11.133 -11.731   4.312  0.00  0.00    +0.016 C 
ATOM     23  C   UNL     1      -7.534  -9.998   6.259  0.00  0.00    +0.015 A 
ATOM     26  C   UNL     1      -5.870  -9.618   7.940  0.00  0.00    +0.165 A 
ATOM     28  C   UNL     1      -4.341  -8.957   9.782  0.00  0.00    +0.219 C 
ATOM     42  H   UNL     1      -4.161 -10.562   8.460  0.00  0.00    +0.157 HD
ENDROOT
BRANCH  16   2
ATOM      2  O   UNL     1     -13.069  -9.738   3.262  0.00  0.00    -0.391 OA
ATOM     39  H   UNL     1     -13.588 -10.519   3.517  0.00  0.00    +0.210 HD
ENDBRANCH  16   2
BRANCH  13  21
ATOM     21  C   UNL     1     -10.306 -10.060   2.693  0.00  0.00    +0.165 C 
BRANCH  21   3
ATOM      3  O   UNL     1     -10.774 -11.159   1.945  0.00  0.00    -0.394 OA
ATOM     40  H   UNL     1     -11.746 -11.141   1.980  0.00  0.00    +0.209 HD
ENDBRANCH  21   3
ENDBRANCH  13  21
BRANCH  14  24
ATOM     24  C   UNL     1      -8.611  -6.544   7.274  0.00  0.00    +0.106 C 
BRANCH  24  25
ATOM      4  O   UNL     1      -9.467  -4.826   8.747  0.00  0.00    -0.276 OA
ATOM      8  N   UNL     1     -10.368  -6.966   8.836  0.00  0.00    -0.314 N 
ATOM     25  C   UNL     1      -9.509  -5.989   8.355  0.00  0.00    +0.214 C 
ATOM     41  H   UNL     1     -10.329  -7.901   8.439  0.00  0.00    +0.149 HD
BRANCH   8  27
ATOM     27  C   UNL     1     -11.338  -6.722   9.879  0.00  0.00    +0.119 C 
BRANCH  27  29
ATOM     29  C   UNL     1     -12.554  -5.983   9.339  0.00  0.00    +0.103 C 
BRANCH  29  10
ATOM      6  O   UNL     1     -13.661  -3.142  12.223  0.00  0.00    -0.377 OA
ATOM     10  N   UNL     1     -12.730  -4.713  10.039  0.00  0.00    -0.297 NA
ATOM     32  C   UNL     1     -14.156  -4.403  10.209  0.00  0.00    +0.112 C 
ATOM     33  C   UNL     1     -12.060  -4.742  11.347  0.00  0.00    +0.112 C 
ATOM     37  C   UNL     1     -14.313  -3.079  10.953  0.00  0.00    +0.175 C 
ATOM     38  C   UNL     1     -12.267  -3.411  12.065  0.00  0.00    +0.175 C 
ENDBRANCH  29  10
ENDBRANCH  27  29
ENDBRANCH   8  27
ENDBRANCH  24  25
ENDBRANCH  14  24
BRANCH  28  30
ATOM     30  C   UNL     1      -3.032  -9.420  10.410  0.00  0.00    +0.102 C 
BRANCH  30  31
ATOM     31  C   UNL     1      -3.183 -10.524  11.483  0.00  0.00    -0.029 C 
ATOM     34  C   UNL     1      -3.249 -11.918  10.837  0.00  0.00    +0.011 C 
ATOM     35  C   UNL     1      -1.946 -10.470  12.400  0.00  0.00    +0.011 C 
ATOM     36  C   UNL     1      -4.436 -10.306  12.346  0.00  0.00    +0.011 C 
ENDBRANCH  30  31
ENDBRANCH  28  30
TORSDOF 10
ENDMDL
MODEL 9
REMARK VINA RESULT:      -6.2      4.460      8.012
REMARK  Name = 11885041
REMARK  15 active torsions:
REMARK  status: ('A' for Active; 'I' for Inactive)
REMARK    1  A    between atoms: O_2  and  C_16
REMARK    2  A    between atoms: O_3  and  C_21
REMARK    3  A    between atoms: N_8  and  C_27
REMARK    4  A    between atoms: N_10  and  C_29
REMARK    5  A    between atoms: C_11  and  C_19
REMARK    6  A    between atoms: C_13  and  C_21
REMARK    7  A    between atoms: C_13  and  C_22
REMARK    8  A    between atoms: C_14  and  C_24
REMARK    9  A    between atoms: C_24  and  C_25
REMARK   10  A    between atoms: C_27  and  C_29
REMARK   11  A    between atoms: C_28  and  C_30
REMARK   12  A    between atoms: C_30  and  C_31
REMARK   13  A    between atoms: C_31  and  C_34
REMARK   14  A    between atoms: C_31  and  C_35
REMARK   15  A    between atoms: C_31  and  C_36
REMARK                            x       y       z     vdW  Elec       q    Type
REMARK                         _______ _______ _______ _____ _____    ______ ____
ROOT
ATOM      1  S   UNL     1     -13.978  -7.512  15.501  0.00  0.00    -0.057 S 
ATOM      5  O   UNL     1     -12.003  -6.673  11.364  0.00  0.00    -0.275 OA
ATOM      7  N   UNL     1     -11.898  -7.965  14.031  0.00  0.00    -0.229 NA
ATOM      9  N   UNL     1     -13.624  -6.580  13.076  0.00  0.00    -0.265 N 
ATOM     11  C   UNL     1     -10.305  -9.742  17.060  0.00  0.00    -0.019 C 
ATOM     12  C   UNL     1     -11.717 -10.224  17.618  0.00  0.00    +0.011 C 
ATOM     13  C   UNL     1     -11.720 -10.962  19.012  0.00  0.00    +0.021 C 
ATOM     14  C   UNL     1     -10.471  -9.437  15.500  0.00  0.00    +0.054 C 
ATOM     15  C   UNL     1      -9.267 -10.882  17.228  0.00  0.00    +0.010 C 
ATOM     16  C   UNL     1     -10.594 -12.036  19.027  0.00  0.00    +0.123 C 
ATOM     17  C   UNL     1     -12.788  -9.102  17.500  0.00  0.00    +0.049 C 
ATOM     18  C   UNL     1      -9.231 -11.482  18.626  0.00  0.00    +0.032 C 
ATOM     19  C   UNL     1      -9.775  -8.476  17.778  0.00  0.00    +0.012 C 
ATOM     20  C   UNL     1     -11.705  -8.615  15.236  0.00  0.00    +0.058 A 
ATOM     22  C   UNL     1     -13.073 -11.709  19.187  0.00  0.00    +0.016 C 
ATOM     23  C   UNL     1     -12.741  -8.493  16.140  0.00  0.00    +0.015 A 
ATOM     26  C   UNL     1     -13.058  -7.346  14.061  0.00  0.00    +0.165 A 
ATOM     28  C   UNL     1     -13.081  -6.292  11.812  0.00  0.00    +0.219 C 
ATOM     42  H   UNL     1     -14.533  -6.188  13.309  0.00  0.00    +0.157 HD
ENDROOT
BRANCH  16   2
ATOM      2  O   UNL     1     -10.486 -12.633  20.318  0.00  0.00    -0.391 OA
ATOM     39  H   UNL     1     -11.306 -12.438  20.802  0.00  0.00    +0.210 HD
ENDBRANCH  16   2
BRANCH  13  21
ATOM     21  C   UNL     1     -11.603 -10.024  20.234  0.00  0.00    +0.165 C 
BRANCH  21   3
ATOM      3  O   UNL     1     -12.445 -10.528  21.246  0.00  0.00    -0.394 OA
ATOM     40  H   UNL     1     -13.304 -10.079  21.158  0.00  0.00    +0.209 HD
ENDBRANCH  21   3
ENDBRANCH  13  21
BRANCH  14  24
ATOM     24  C   UNL     1      -9.232  -8.821  14.835  0.00  0.00    +0.106 C 
BRANCH  24  25
ATOM      4  O   UNL     1      -8.818 -10.855  13.593  0.00  0.00    -0.276 OA
ATOM      8  N   UNL     1      -7.025  -9.551  14.289  0.00  0.00    -0.314 N 
ATOM     25  C   UNL     1      -8.370  -9.864  14.165  0.00  0.00    +0.214 C 
ATOM     41  H   UNL     1      -6.755  -8.701  14.776  0.00  0.00    +0.149 HD
BRANCH   8  27
ATOM     27  C   UNL     1      -5.968 -10.374  13.746  0.00  0.00    +0.119 C 
BRANCH  27  29
ATOM     29  C   UNL     1      -5.433 -11.344  14.790  0.00  0.00    +0.103 C 
BRANCH  29  10
ATOM      6  O   UNL     1      -1.463  -9.985  14.818  0.00  0.00    -0.377 OA
ATOM     10  N   UNL     1      -3.972 -11.328  14.797  0.00  0.00    -0.297 NA
ATOM     32  C   UNL     1      -3.452 -10.655  13.599  0.00  0.00    +0.112 C 
ATOM     33  C   UNL     1      -3.464 -10.668  16.008  0.00  0.00    +0.112 C 
ATOM     37  C   UNL     1      -1.926 -10.641  13.636  0.00  0.00    +0.175 C 
ATOM     38  C   UNL     1      -1.938 -10.653  15.988  0.00  0.00    +0.175 C 
ENDBRANCH  29  10
ENDBRANCH  27  29
ENDBRANCH   8  27
ENDBRANCH  24  25
ENDBRANCH  14  24
BRANCH  28  30
ATOM     30  C   UNL     1     -13.986  -5.400  10.972  0.00  0.00    +0.102 C 
BRANCH  30  31
ATOM     31  C   UNL     1     -13.791  -3.882  11.197  0.00  0.00    -0.029 C 
ATOM     34  C   UNL     1     -12.321  -3.553  11.505  0.00  0.00    +0.011 C 
ATOM     35  C   UNL     1     -14.192  -3.151   9.901  0.00  0.00    +0.011 C 
ATOM     36  C   UNL     1     -14.677  -3.362  12.341  0.00  0.00    +0.011 C 
ENDBRANCH  30  31
ENDBRANCH  28  30
TORSDOF 10
ENDMDL
MODEL 10
REMARK VINA RESULT:      -5.9     27.159     30.644
REMARK  Name = 11885041
REMARK  15 active torsions:
REMARK  status: ('A' for Active; 'I' for Inactive)
REMARK    1  A    between atoms: O_2  and  C_16
REMARK    2  A    between atoms: O_3  and  C_21
REMARK    3  A    between atoms: N_8  and  C_27
REMARK    4  A    between atoms: N_10  and  C_29
REMARK    5  A    between atoms: C_11  and  C_19
REMARK    6  A    between atoms: C_13  and  C_21
REMARK    7  A    between atoms: C_13  and  C_22
REMARK    8  A    between atoms: C_14  and  C_24
REMARK    9  A    between atoms: C_24  and  C_25
REMARK   10  A    between atoms: C_27  and  C_29
REMARK   11  A    between atoms: C_28  and  C_30
REMARK   12  A    between atoms: C_30  and  C_31
REMARK   13  A    between atoms: C_31  and  C_34
REMARK   14  A    between atoms: C_31  and  C_35
REMARK   15  A    between atoms: C_31  and  C_36
REMARK                            x       y       z     vdW  Elec       q    Type
REMARK                         _______ _______ _______ _____ _____    ______ ____
ROOT
ATOM      1  S   UNL     1      17.583  -5.866  28.585  0.00  0.00    -0.057 S 
ATOM      5  O   UNL     1      18.540  -1.886  26.357  0.00  0.00    -0.275 OA
ATOM      7  N   UNL     1      17.755  -3.298  28.844  0.00  0.00    -0.229 NA
ATOM      9  N   UNL     1      18.239  -4.205  26.664  0.00  0.00    -0.265 N 
ATOM     11  C   UNL     1      16.364  -3.696  32.418  0.00  0.00    -0.019 C 
ATOM     12  C   UNL     1      17.021  -5.135  32.597  0.00  0.00    +0.011 C 
ATOM     13  C   UNL     1      16.680  -5.917  33.924  0.00  0.00    +0.021 C 
ATOM     14  C   UNL     1      17.166  -2.928  31.268  0.00  0.00    +0.054 C 
ATOM     15  C   UNL     1      16.512  -2.893  33.737  0.00  0.00    +0.010 C 
ATOM     16  C   UNL     1      16.834  -4.957  35.138  0.00  0.00    +0.123 C 
ATOM     17  C   UNL     1      16.871  -5.993  31.308  0.00  0.00    +0.049 C 
ATOM     18  C   UNL     1      16.061  -3.653  34.975  0.00  0.00    +0.032 C 
ATOM     19  C   UNL     1      14.863  -3.761  32.042  0.00  0.00    +0.012 C 
ATOM     20  C   UNL     1      17.375  -3.815  30.068  0.00  0.00    +0.058 A 
ATOM     22  C   UNL     1      17.707  -7.069  34.113  0.00  0.00    +0.016 C 
ATOM     23  C   UNL     1      17.254  -5.189  30.112  0.00  0.00    +0.015 A 
ATOM     26  C   UNL     1      17.887  -4.286  27.985  0.00  0.00    +0.165 A 
ATOM     28  C   UNL     1      18.540  -3.041  25.939  0.00  0.00    +0.219 C 
ATOM     42  H   UNL     1      18.280  -5.098  26.178  0.00  0.00    +0.157 HD
ENDROOT
BRANCH  16   2
ATOM      2  O   UNL     1      16.408  -5.596  36.342  0.00  0.00    -0.391 OA
ATOM     39  H   UNL     1      16.060  -4.907  36.933  0.00  0.00    +0.210 HD
ENDBRANCH  16   2
BRANCH  13  21
ATOM     21  C   UNL     1      15.291  -6.594  33.930  0.00  0.00    +0.165 C 
BRANCH  21   3
ATOM      3  O   UNL     1      15.421  -7.838  34.580  0.00  0.00    -0.394 OA
ATOM     40  H   UNL     1      14.814  -7.833  35.340  0.00  0.00    +0.209 HD
ENDBRANCH  21   3
ENDBRANCH  13  21
BRANCH  14  24
ATOM     24  C   UNL     1      16.567  -1.573  30.868  0.00  0.00    +0.106 C 
BRANCH  24  25
ATOM      4  O   UNL     1      18.630  -0.339  31.143  0.00  0.00    -0.276 OA
ATOM      8  N   UNL     1      16.653   0.526  32.005  0.00  0.00    -0.314 N 
ATOM     25  C   UNL     1      17.419  -0.416  31.336  0.00  0.00    +0.214 C 
ATOM     41  H   UNL     1      15.653   0.373  32.105  0.00  0.00    +0.149 HD
BRANCH   8  27
ATOM     27  C   UNL     1      17.203   1.739  32.566  0.00  0.00    +0.119 C 
BRANCH  27  29
ATOM     29  C   UNL     1      16.422   2.962  32.110  0.00  0.00    +0.103 C 
BRANCH  29  10
ATOM      6  O   UNL     1      17.755   6.939  32.247  0.00  0.00    -0.377 OA
ATOM     10  N   UNL     1      17.291   4.136  32.075  0.00  0.00    -0.297 NA
ATOM     32  C   UNL     1      16.893   5.048  30.994  0.00  0.00    +0.112 C 
ATOM     33  C   UNL     1      17.267   4.841  33.364  0.00  0.00    +0.112 C 
ATOM     37  C   UNL     1      17.807   6.271  30.985  0.00  0.00    +0.175 C 
ATOM     38  C   UNL     1      18.171   6.069  33.300  0.00  0.00    +0.175 C 
ENDBRANCH  29  10
ENDBRANCH  27  29
ENDBRANCH   8  27
ENDBRANCH  24  25
ENDBRANCH  14  24
BRANCH  28  30
ATOM     30  C   UNL     1      18.887  -3.326  24.483  0.00  0.00    +0.102 C 
BRANCH  30  31
ATOM     31  C   UNL     1      17.667  -3.466  23.540  0.00  0.00    -0.029 C 
ATOM     34  C   UNL     1      16.399  -2.885  24.188  0.00  0.00    +0.011 C 
ATOM     35  C   UNL     1      17.965  -2.671  22.254  0.00  0.00    +0.011 C 
ATOM     36  C   UNL     1      17.414  -4.932  23.157  0.00  0.00    +0.011 C 
ENDBRANCH  30  31
ENDBRANCH  28  30
TORSDOF 10
ENDMDL
