MODEL 1
REMARK VINA RESULT:      -7.0      0.000      0.000
REMARK  Name = 45783544
REMARK  9 active torsions:
REMARK  status: ('A' for Active; 'I' for Inactive)
REMARK    1  A    between atoms: O_3  and  C_26
REMARK    2  A    between atoms: O_3  and  C_27
REMARK    3  A    between atoms: O_4  and  C_28
REMARK    4  A    between atoms: O_4  and  C_29
REMARK    5  A    between atoms: N_5  and  C_13
REMARK    6  A    between atoms: C_9  and  C_14
REMARK    7  A    between atoms: C_13  and  C_15
REMARK    8  A    between atoms: C_18  and  C_21
REMARK    9  A    between atoms: C_27  and  C_28
REMARK                            x       y       z     vdW  Elec       q    Type
REMARK                         _______ _______ _______ _____ _____    ______ ____
ROOT
ATOM      2  O   UNL     1     -16.806   3.441  22.057  0.00  0.00    -0.336 OA
ATOM      6  N   UNL     1     -16.634   4.430  24.060  0.00  0.00    -0.190 NA
ATOM      7  N   UNL     1     -16.814   2.409  23.003  0.00  0.00    -0.056 NA
ATOM     14  C   UNL     1     -16.697   4.597  22.763  0.00  0.00    +0.245 A 
ATOM     18  C   UNL     1     -16.709   3.071  24.159  0.00  0.00    +0.204 A 
ENDROOT
BRANCH  18  21
ATOM      8  N   UNL     1     -17.071   0.402  26.724  0.00  0.00    -0.221 NA
ATOM     21  C   UNL     1     -16.676   2.406  25.430  0.00  0.00    +0.041 A 
ATOM     23  C   UNL     1     -16.240   3.068  26.573  0.00  0.00    +0.018 A 
ATOM     24  C   UNL     1     -17.076   1.086  25.558  0.00  0.00    +0.126 A 
ATOM     25  C   UNL     1     -16.220   2.397  27.791  0.00  0.00    +0.068 A 
ATOM     26  C   UNL     1     -16.641   1.078  27.813  0.00  0.00    +0.215 A 
BRANCH  26   3
ATOM      3  O   UNL     1     -16.630   0.396  29.002  0.00  0.00    -0.474 OA
BRANCH   3  27
ATOM     27  C   UNL     1     -15.851   0.956  30.053  0.00  0.00    +0.258 C 
BRANCH  27  28
ATOM     28  C   UNL     1     -14.617   0.099  30.263  0.00  0.00    +0.200 C 
BRANCH  28   4
ATOM      4  O   UNL     1     -13.458   0.899  30.065  0.00  0.00    -0.380 OA
ATOM     29  C   UNL     1     -13.660   2.230  30.518  0.00  0.00    +0.194 C 
ENDBRANCH  28   4
ENDBRANCH  27  28
ENDBRANCH   3  27
ENDBRANCH  26   3
ENDBRANCH  18  21
BRANCH  14   9
ATOM      5  N   UNL     1     -15.352   6.130  21.336  0.00  0.00    -0.287 NA
ATOM      9  C   UNL     1     -16.667   5.879  21.958  0.00  0.00    +0.146 C 
ATOM     10  C   UNL     1     -17.660   5.864  20.781  0.00  0.00    +0.030 C 
ATOM     11  C   UNL     1     -16.821   6.175  19.549  0.00  0.00    +0.017 C 
ATOM     12  C   UNL     1     -15.610   6.890  20.113  0.00  0.00    +0.085 C 
BRANCH   5  13
ATOM     13  C   UNL     1     -14.419   6.815  22.221  0.00  0.00    +0.120 C 
BRANCH  13  15
ATOM      1 CL   UNL     1     -10.041   9.575  19.153  0.00  0.00    -0.084 Cl
ATOM     15  C   UNL     1     -13.323   7.506  21.454  0.00  0.00    -0.033 A 
ATOM     16  C   UNL     1     -12.327   6.754  20.830  0.00  0.00    +0.006 A 
ATOM     17  C   UNL     1     -13.304   8.898  21.367  0.00  0.00    +0.006 A 
ATOM     19  C   UNL     1     -11.312   7.394  20.120  0.00  0.00    +0.020 A 
ATOM     20  C   UNL     1     -12.288   9.538  20.656  0.00  0.00    +0.020 A 
ATOM     22  C   UNL     1     -11.293   8.786  20.033  0.00  0.00    +0.041 A 
ENDBRANCH  13  15
ENDBRANCH   5  13
ENDBRANCH  14   9
TORSDOF 8
ENDMDL
MODEL 2
REMARK VINA RESULT:      -6.7     32.977     36.294
REMARK  Name = 45783544
REMARK  9 active torsions:
REMARK  status: ('A' for Active; 'I' for Inactive)
REMARK    1  A    between atoms: O_3  and  C_26
REMARK    2  A    between atoms: O_3  and  C_27
REMARK    3  A    between atoms: O_4  and  C_28
REMARK    4  A    between atoms: O_4  and  C_29
REMARK    5  A    between atoms: N_5  and  C_13
REMARK    6  A    between atoms: C_9  and  C_14
REMARK    7  A    between atoms: C_13  and  C_15
REMARK    8  A    between atoms: C_18  and  C_21
REMARK    9  A    between atoms: C_27  and  C_28
REMARK                            x       y       z     vdW  Elec       q    Type
REMARK                         _______ _______ _______ _____ _____    ______ ____
ROOT
ATOM      2  O   UNL     1      21.435   4.759  20.444  0.00  0.00    -0.336 OA
ATOM      6  N   UNL     1      20.391   6.666  20.984  0.00  0.00    -0.190 NA
ATOM      7  N   UNL     1      20.098   4.591  20.065  0.00  0.00    -0.056 NA
ATOM     14  C   UNL     1      21.521   6.007  20.976  0.00  0.00    +0.245 A 
ATOM     18  C   UNL     1      19.546   5.757  20.415  0.00  0.00    +0.204 A 
ENDROOT
BRANCH  18  21
ATOM      8  N   UNL     1      16.235   6.027  18.744  0.00  0.00    -0.221 NA
ATOM     21  C   UNL     1      18.155   6.046  20.212  0.00  0.00    +0.041 A 
ATOM     23  C   UNL     1      17.384   6.602  21.227  0.00  0.00    +0.018 A 
ATOM     24  C   UNL     1      17.539   5.779  19.001  0.00  0.00    +0.126 A 
ATOM     25  C   UNL     1      16.039   6.871  21.001  0.00  0.00    +0.068 A 
ATOM     26  C   UNL     1      15.517   6.568  19.753  0.00  0.00    +0.215 A 
BRANCH  26   3
ATOM      3  O   UNL     1      14.193   6.824  19.506  0.00  0.00    -0.474 OA
BRANCH   3  27
ATOM     27  C   UNL     1      13.330   6.872  20.635  0.00  0.00    +0.258 C 
BRANCH  27  28
ATOM     28  C   UNL     1      12.177   7.811  20.337  0.00  0.00    +0.200 C 
BRANCH  28   4
ATOM      4  O   UNL     1      10.958   7.186  20.722  0.00  0.00    -0.380 OA
ATOM     29  C   UNL     1      11.190   6.065  21.562  0.00  0.00    +0.194 C 
ENDBRANCH  28   4
ENDBRANCH  27  28
ENDBRANCH   3  27
ENDBRANCH  26   3
ENDBRANCH  18  21
BRANCH  14   9
ATOM      5  N   UNL     1      23.856   5.325  21.503  0.00  0.00    -0.287 NA
ATOM      9  C   UNL     1      22.887   6.438  21.468  0.00  0.00    +0.146 C 
ATOM     10  C   UNL     1      23.539   7.496  20.559  0.00  0.00    +0.030 C 
ATOM     11  C   UNL     1      24.894   6.915  20.181  0.00  0.00    +0.017 C 
ATOM     12  C   UNL     1      25.176   5.918  21.287  0.00  0.00    +0.085 C 
BRANCH   5  13
ATOM     13  C   UNL     1      23.799   4.550  22.735  0.00  0.00    +0.120 C 
BRANCH  13  15
ATOM      1 CL   UNL     1      26.052  -0.981  22.011  0.00  0.00    -0.084 Cl
ATOM     15  C   UNL     1      24.361   3.166  22.555  0.00  0.00    -0.033 A 
ATOM     16  C   UNL     1      23.869   2.338  21.546  0.00  0.00    +0.006 A 
ATOM     17  C   UNL     1      25.377   2.711  23.397  0.00  0.00    +0.006 A 
ATOM     19  C   UNL     1      24.391   1.056  21.379  0.00  0.00    +0.020 A 
ATOM     20  C   UNL     1      25.899   1.428  23.229  0.00  0.00    +0.020 A 
ATOM     22  C   UNL     1      25.406   0.601  22.221  0.00  0.00    +0.041 A 
ENDBRANCH  13  15
ENDBRANCH   5  13
ENDBRANCH  14   9
TORSDOF 8
ENDMDL
MODEL 3
REMARK VINA RESULT:      -6.7     28.982     32.356
REMARK  Name = 45783544
REMARK  9 active torsions:
REMARK  status: ('A' for Active; 'I' for Inactive)
REMARK    1  A    between atoms: O_3  and  C_26
REMARK    2  A    between atoms: O_3  and  C_27
REMARK    3  A    between atoms: O_4  and  C_28
REMARK    4  A    between atoms: O_4  and  C_29
REMARK    5  A    between atoms: N_5  and  C_13
REMARK    6  A    between atoms: C_9  and  C_14
REMARK    7  A    between atoms: C_13  and  C_15
REMARK    8  A    between atoms: C_18  and  C_21
REMARK    9  A    between atoms: C_27  and  C_28
REMARK                            x       y       z     vdW  Elec       q    Type
REMARK                         _______ _______ _______ _____ _____    ______ ____
ROOT
ATOM      2  O   UNL     1      14.458   6.847  19.741  0.00  0.00    -0.336 OA
ATOM      6  N   UNL     1      15.647   7.856  21.350  0.00  0.00    -0.190 NA
ATOM      7  N   UNL     1      15.791   6.472  19.533  0.00  0.00    -0.056 NA
ATOM     14  C   UNL     1      14.462   7.662  20.829  0.00  0.00    +0.245 A 
ATOM     18  C   UNL     1      16.431   7.106  20.520  0.00  0.00    +0.204 A 
ENDROOT
BRANCH  18  21
ATOM      8  N   UNL     1      19.895   8.008  21.526  0.00  0.00    -0.221 NA
ATOM     21  C   UNL     1      17.850   7.013  20.706  0.00  0.00    +0.041 A 
ATOM     23  C   UNL     1      18.557   5.897  20.272  0.00  0.00    +0.018 A 
ATOM     24  C   UNL     1      18.559   8.032  21.321  0.00  0.00    +0.126 A 
ATOM     25  C   UNL     1      19.933   5.836  20.465  0.00  0.00    +0.068 A 
ATOM     26  C   UNL     1      20.549   6.907  21.091  0.00  0.00    +0.215 A 
BRANCH  26   3
ATOM      3  O   UNL     1      21.904   6.870  21.292  0.00  0.00    -0.474 OA
BRANCH   3  27
ATOM     27  C   UNL     1      22.446   5.646  21.773  0.00  0.00    +0.258 C 
BRANCH  27  28
ATOM     28  C   UNL     1      22.166   5.532  23.259  0.00  0.00    +0.200 C 
BRANCH  28   4
ATOM      4  O   UNL     1      22.179   4.158  23.630  0.00  0.00    -0.380 OA
ATOM     29  C   UNL     1      22.176   3.311  22.490  0.00  0.00    +0.194 C 
ENDBRANCH  28   4
ENDBRANCH  27  28
ENDBRANCH   3  27
ENDBRANCH  26   3
ENDBRANCH  18  21
BRANCH  14   9
ATOM      5  N   UNL     1      12.319   8.721  20.139  0.00  0.00    -0.287 NA
ATOM      9  C   UNL     1      13.120   8.209  21.268  0.00  0.00    +0.146 C 
ATOM     10  C   UNL     1      12.229   7.139  21.926  0.00  0.00    +0.030 C 
ATOM     11  C   UNL     1      10.928   7.165  21.137  0.00  0.00    +0.017 C 
ATOM     12  C   UNL     1      10.916   8.546  20.513  0.00  0.00    +0.085 C 
BRANCH   5  13
ATOM     13  C   UNL     1      12.626  10.104  19.797  0.00  0.00    +0.120 C 
BRANCH  13  15
ATOM      1 CL   UNL     1      15.481  10.524  14.518  0.00  0.00    -0.084 Cl
ATOM     15  C   UNL     1      13.339  10.210  18.475  0.00  0.00    -0.033 A 
ATOM     16  C   UNL     1      14.363  11.143  18.308  0.00  0.00    +0.006 A 
ATOM     17  C   UNL     1      12.978   9.373  17.419  0.00  0.00    +0.006 A 
ATOM     19  C   UNL     1      15.023  11.241  17.084  0.00  0.00    +0.020 A 
ATOM     20  C   UNL     1      13.640   9.472  16.194  0.00  0.00    +0.020 A 
ATOM     22  C   UNL     1      14.662  10.405  16.027  0.00  0.00    +0.041 A 
ENDBRANCH  13  15
ENDBRANCH   5  13
ENDBRANCH  14   9
TORSDOF 8
ENDMDL
MODEL 4
REMARK VINA RESULT:      -6.6     30.866     34.263
REMARK  Name = 45783544
REMARK  9 active torsions:
REMARK  status: ('A' for Active; 'I' for Inactive)
REMARK    1  A    between atoms: O_3  and  C_26
REMARK    2  A    between atoms: O_3  and  C_27
REMARK    3  A    between atoms: O_4  and  C_28
REMARK    4  A    between atoms: O_4  and  C_29
REMARK    5  A    between atoms: N_5  and  C_13
REMARK    6  A    between atoms: C_9  and  C_14
REMARK    7  A    between atoms: C_13  and  C_15
REMARK    8  A    between atoms: C_18  and  C_21
REMARK    9  A    between atoms: C_27  and  C_28
REMARK                            x       y       z     vdW  Elec       q    Type
REMARK                         _______ _______ _______ _____ _____    ______ ____
ROOT
ATOM      2  O   UNL     1      19.275   6.297  20.216  0.00  0.00    -0.336 OA
ATOM      6  N   UNL     1      17.863   7.717  21.220  0.00  0.00    -0.190 NA
ATOM      7  N   UNL     1      18.007   6.025  19.687  0.00  0.00    -0.056 NA
ATOM     14  C   UNL     1      19.100   7.305  21.111  0.00  0.00    +0.245 A 
ATOM     18  C   UNL     1      17.228   6.901  20.328  0.00  0.00    +0.204 A 
ENDROOT
BRANCH  18  21
ATOM      8  N   UNL     1      13.571   6.914  20.998  0.00  0.00    -0.221 NA
ATOM     21  C   UNL     1      15.814   6.988  20.101  0.00  0.00    +0.041 A 
ATOM     23  C   UNL     1      15.307   7.220  18.828  0.00  0.00    +0.018 A 
ATOM     24  C   UNL     1      14.913   6.844  21.143  0.00  0.00    +0.126 A 
ATOM     25  C   UNL     1      13.931   7.299  18.639  0.00  0.00    +0.068 A 
ATOM     26  C   UNL     1      13.113   7.140  19.746  0.00  0.00    +0.215 A 
BRANCH  26   3
ATOM      3  O   UNL     1      11.754   7.213  19.585  0.00  0.00    -0.474 OA
BRANCH   3  27
ATOM     27  C   UNL     1      11.036   7.969  20.552  0.00  0.00    +0.258 C 
BRANCH  27  28
ATOM     28  C   UNL     1      11.434   9.428  20.434  0.00  0.00    +0.200 C 
BRANCH  28   4
ATOM      4  O   UNL     1      11.481  10.003  21.734  0.00  0.00    -0.380 OA
ATOM     29  C   UNL     1      10.974   9.111  22.716  0.00  0.00    +0.194 C 
ENDBRANCH  28   4
ENDBRANCH  27  28
ENDBRANCH   3  27
ENDBRANCH  26   3
ENDBRANCH  18  21
BRANCH  14   9
ATOM      5  N   UNL     1      21.441   6.808  21.795  0.00  0.00    -0.287 NA
ATOM      9  C   UNL     1      20.341   7.792  21.830  0.00  0.00    +0.146 C 
ATOM     10  C   UNL     1      20.934   9.064  21.196  0.00  0.00    +0.030 C 
ATOM     11  C   UNL     1      22.385   8.718  20.894  0.00  0.00    +0.017 C 
ATOM     12  C   UNL     1      22.685   7.575  21.843  0.00  0.00    +0.085 C 
BRANCH   5  13
ATOM     13  C   UNL     1      21.364   5.822  22.865  0.00  0.00    +0.120 C 
BRANCH  13  15
ATOM      1 CL   UNL     1      24.459   0.833  21.553  0.00  0.00    -0.084 Cl
ATOM     15  C   UNL     1      22.139   4.574  22.536  0.00  0.00    -0.033 A 
ATOM     16  C   UNL     1      23.015   4.029  23.475  0.00  0.00    +0.006 A 
ATOM     17  C   UNL     1      21.980   3.962  21.293  0.00  0.00    +0.006 A 
ATOM     19  C   UNL     1      23.733   2.874  23.170  0.00  0.00    +0.020 A 
ATOM     20  C   UNL     1      22.698   2.805  20.989  0.00  0.00    +0.020 A 
ATOM     22  C   UNL     1      23.575   2.262  21.926  0.00  0.00    +0.041 A 
ENDBRANCH  13  15
ENDBRANCH   5  13
ENDBRANCH  14   9
TORSDOF 8
ENDMDL
MODEL 5
REMARK VINA RESULT:      -6.4     31.631     35.036
REMARK  Name = 45783544
REMARK  9 active torsions:
REMARK  status: ('A' for Active; 'I' for Inactive)
REMARK    1  A    between atoms: O_3  and  C_26
REMARK    2  A    between atoms: O_3  and  C_27
REMARK    3  A    between atoms: O_4  and  C_28
REMARK    4  A    between atoms: O_4  and  C_29
REMARK    5  A    between atoms: N_5  and  C_13
REMARK    6  A    between atoms: C_9  and  C_14
REMARK    7  A    between atoms: C_13  and  C_15
REMARK    8  A    between atoms: C_18  and  C_21
REMARK    9  A    between atoms: C_27  and  C_28
REMARK                            x       y       z     vdW  Elec       q    Type
REMARK                         _______ _______ _______ _____ _____    ______ ____
ROOT
ATOM      2  O   UNL     1      19.930   7.969  22.259  0.00  0.00    -0.336 OA
ATOM      6  N   UNL     1      19.067   6.245  21.118  0.00  0.00    -0.190 NA
ATOM      7  N   UNL     1      18.596   8.305  21.996  0.00  0.00    -0.056 NA
ATOM     14  C   UNL     1      20.124   6.742  21.708  0.00  0.00    +0.245 A 
ATOM     18  C   UNL     1      18.154   7.240  21.320  0.00  0.00    +0.204 A 
ENDROOT
BRANCH  18  21
ATOM      8  N   UNL     1      14.438   7.349  21.255  0.00  0.00    -0.221 NA
ATOM     21  C   UNL     1      16.809   7.138  20.833  0.00  0.00    +0.041 A 
ATOM     23  C   UNL     1      16.550   6.749  19.524  0.00  0.00    +0.018 A 
ATOM     24  C   UNL     1      15.728   7.425  21.651  0.00  0.00    +0.126 A 
ATOM     25  C   UNL     1      15.235   6.659  19.079  0.00  0.00    +0.068 A 
ATOM     26  C   UNL     1      14.224   6.967  19.976  0.00  0.00    +0.215 A 
BRANCH  26   3
ATOM      3  O   UNL     1      12.920   6.885  19.562  0.00  0.00    -0.474 OA
BRANCH   3  27
ATOM     27  C   UNL     1      12.341   8.073  19.038  0.00  0.00    +0.258 C 
BRANCH  27  28
ATOM     28  C   UNL     1      11.242   8.541  19.973  0.00  0.00    +0.200 C 
BRANCH  28   4
ATOM      4  O   UNL     1      10.768   7.431  20.725  0.00  0.00    -0.380 OA
ATOM     29  C   UNL     1      10.622   7.757  22.099  0.00  0.00    +0.194 C 
ENDBRANCH  28   4
ENDBRANCH  27  28
ENDBRANCH   3  27
ENDBRANCH  26   3
ENDBRANCH  18  21
BRANCH  14   9
ATOM      5  N   UNL     1      21.874   5.265  20.732  0.00  0.00    -0.287 NA
ATOM      9  C   UNL     1      21.508   6.145  21.859  0.00  0.00    +0.146 C 
ATOM     10  C   UNL     1      22.615   7.215  21.895  0.00  0.00    +0.030 C 
ATOM     11  C   UNL     1      23.587   6.819  20.793  0.00  0.00    +0.017 C 
ATOM     12  C   UNL     1      23.330   5.337  20.605  0.00  0.00    +0.085 C 
BRANCH   5  13
ATOM     13  C   UNL     1      21.406   3.895  20.896  0.00  0.00    +0.120 C 
BRANCH  13  15
ATOM      1 CL   UNL     1      25.531   0.409  23.546  0.00  0.00    -0.084 Cl
ATOM     15  C   UNL     1      22.439   3.024  21.559  0.00  0.00    -0.033 A 
ATOM     16  C   UNL     1      22.528   2.983  22.951  0.00  0.00    +0.006 A 
ATOM     17  C   UNL     1      23.306   2.256  20.781  0.00  0.00    +0.006 A 
ATOM     19  C   UNL     1      23.485   2.176  23.564  0.00  0.00    +0.020 A 
ATOM     20  C   UNL     1      24.263   1.448  21.396  0.00  0.00    +0.020 A 
ATOM     22  C   UNL     1      24.353   1.408  22.787  0.00  0.00    +0.041 A 
ENDBRANCH  13  15
ENDBRANCH   5  13
ENDBRANCH  14   9
TORSDOF 8
ENDMDL
MODEL 6
REMARK VINA RESULT:      -6.4     18.403     19.945
REMARK  Name = 45783544
REMARK  9 active torsions:
REMARK  status: ('A' for Active; 'I' for Inactive)
REMARK    1  A    between atoms: O_3  and  C_26
REMARK    2  A    between atoms: O_3  and  C_27
REMARK    3  A    between atoms: O_4  and  C_28
REMARK    4  A    between atoms: O_4  and  C_29
REMARK    5  A    between atoms: N_5  and  C_13
REMARK    6  A    between atoms: C_9  and  C_14
REMARK    7  A    between atoms: C_13  and  C_15
REMARK    8  A    between atoms: C_18  and  C_21
REMARK    9  A    between atoms: C_27  and  C_28
REMARK                            x       y       z     vdW  Elec       q    Type
REMARK                         _______ _______ _______ _____ _____    ______ ____
ROOT
ATOM      2  O   UNL     1      -5.101 -11.993  16.536  0.00  0.00    -0.336 OA
ATOM      6  N   UNL     1      -5.447 -10.089  15.408  0.00  0.00    -0.190 NA
ATOM      7  N   UNL     1      -6.413 -11.600  16.828  0.00  0.00    -0.056 NA
ATOM     14  C   UNL     1      -4.605 -11.049  15.694  0.00  0.00    +0.245 A 
ATOM     18  C   UNL     1      -6.543 -10.470  16.127  0.00  0.00    +0.204 A 
ENDROOT
BRANCH  18  21
ATOM      8  N   UNL     1      -9.316  -8.305  17.331  0.00  0.00    -0.221 NA
ATOM     21  C   UNL     1      -7.752  -9.698  16.124  0.00  0.00    +0.041 A 
ATOM     23  C   UNL     1      -8.522  -9.579  14.972  0.00  0.00    +0.018 A 
ATOM     24  C   UNL     1      -8.188  -9.047  17.266  0.00  0.00    +0.126 A 
ATOM     25  C   UNL     1      -9.690  -8.824  14.999  0.00  0.00    +0.068 A 
ATOM     26  C   UNL     1     -10.040  -8.213  16.192  0.00  0.00    +0.215 A 
BRANCH  26   3
ATOM      3  O   UNL     1     -11.186  -7.464  16.244  0.00  0.00    -0.474 OA
BRANCH   3  27
ATOM     27  C   UNL     1     -11.074  -6.096  15.870  0.00  0.00    +0.258 C 
BRANCH  27  28
ATOM     28  C   UNL     1     -12.275  -5.714  15.026  0.00  0.00    +0.200 C 
BRANCH  28   4
ATOM      4  O   UNL     1     -11.925  -5.810  13.650  0.00  0.00    -0.380 OA
ATOM     29  C   UNL     1     -12.357  -4.669  12.923  0.00  0.00    +0.194 C 
ENDBRANCH  28   4
ENDBRANCH  27  28
ENDBRANCH   3  27
ENDBRANCH  26   3
ENDBRANCH  18  21
BRANCH  14   9
ATOM      5  N   UNL     1      -2.884 -10.509  13.978  0.00  0.00    -0.287 NA
ATOM      9  C   UNL     1      -3.179 -11.248  15.222  0.00  0.00    +0.146 C 
ATOM     10  C   UNL     1      -2.140 -10.737  16.236  0.00  0.00    +0.030 C 
ATOM     11  C   UNL     1      -1.270  -9.762  15.457  0.00  0.00    +0.017 C 
ATOM     12  C   UNL     1      -1.458 -10.189  14.015  0.00  0.00    +0.085 C 
BRANCH   5  13
ATOM     13  C   UNL     1      -3.250 -11.242  12.773  0.00  0.00    +0.120 C 
BRANCH  13  15
ATOM      1 CL   UNL     1      -6.584  -7.898   9.046  0.00  0.00    -0.084 Cl
ATOM     15  C   UNL     1      -4.084 -10.406  11.840  0.00  0.00    -0.033 A 
ATOM     16  C   UNL     1      -5.466 -10.329  12.018  0.00  0.00    +0.006 A 
ATOM     17  C   UNL     1      -3.475  -9.707  10.796  0.00  0.00    +0.006 A 
ATOM     19  C   UNL     1      -6.238  -9.554  11.153  0.00  0.00    +0.020 A 
ATOM     20  C   UNL     1      -4.249  -8.933   9.932  0.00  0.00    +0.020 A 
ATOM     22  C   UNL     1      -5.630  -8.856  10.110  0.00  0.00    +0.041 A 
ENDBRANCH  13  15
ENDBRANCH   5  13
ENDBRANCH  14   9
TORSDOF 8
ENDMDL
MODEL 7
REMARK VINA RESULT:      -6.4      4.088      9.786
REMARK  Name = 45783544
REMARK  9 active torsions:
REMARK  status: ('A' for Active; 'I' for Inactive)
REMARK    1  A    between atoms: O_3  and  C_26
REMARK    2  A    between atoms: O_3  and  C_27
REMARK    3  A    between atoms: O_4  and  C_28
REMARK    4  A    between atoms: O_4  and  C_29
REMARK    5  A    between atoms: N_5  and  C_13
REMARK    6  A    between atoms: C_9  and  C_14
REMARK    7  A    between atoms: C_13  and  C_15
REMARK    8  A    between atoms: C_18  and  C_21
REMARK    9  A    between atoms: C_27  and  C_28
REMARK                            x       y       z     vdW  Elec       q    Type
REMARK                         _______ _______ _______ _____ _____    ______ ____
ROOT
ATOM      2  O   UNL     1     -15.063   3.804  24.368  0.00  0.00    -0.336 OA
ATOM      6  N   UNL     1     -15.847   4.334  22.337  0.00  0.00    -0.190 NA
ATOM      7  N   UNL     1     -14.142   4.704  23.818  0.00  0.00    -0.056 NA
ATOM     14  C   UNL     1     -16.035   3.641  23.432  0.00  0.00    +0.245 A 
ATOM     18  C   UNL     1     -14.673   4.970  22.621  0.00  0.00    +0.204 A 
ENDROOT
BRANCH  18  21
ATOM      8  N   UNL     1     -14.304   7.509  19.929  0.00  0.00    -0.221 NA
ATOM     21  C   UNL     1     -14.057   5.866  21.685  0.00  0.00    +0.041 A 
ATOM     23  C   UNL     1     -12.673   5.975  21.603  0.00  0.00    +0.018 A 
ATOM     24  C   UNL     1     -14.820   6.647  20.834  0.00  0.00    +0.126 A 
ATOM     25  C   UNL     1     -12.104   6.851  20.685  0.00  0.00    +0.068 A 
ATOM     26  C   UNL     1     -12.955   7.589  19.878  0.00  0.00    +0.215 A 
BRANCH  26   3
ATOM      3  O   UNL     1     -12.418   8.459  18.966  0.00  0.00    -0.474 OA
BRANCH   3  27
ATOM     27  C   UNL     1     -11.206   8.059  18.339  0.00  0.00    +0.258 C 
BRANCH  27  28
ATOM     28  C   UNL     1     -10.213   9.203  18.407  0.00  0.00    +0.200 C 
BRANCH  28   4
ATOM      4  O   UNL     1      -9.798   9.538  17.089  0.00  0.00    -0.380 OA
ATOM     29  C   UNL     1     -10.459   8.741  16.117  0.00  0.00    +0.194 C 
ENDBRANCH  28   4
ENDBRANCH  27  28
ENDBRANCH   3  27
ENDBRANCH  26   3
ENDBRANCH  18  21
BRANCH  14   9
ATOM      5  N   UNL     1     -17.392   2.612  25.246  0.00  0.00    -0.287 NA
ATOM      9  C   UNL     1     -17.167   2.701  23.790  0.00  0.00    +0.146 C 
ATOM     10  C   UNL     1     -18.520   3.153  23.212  0.00  0.00    +0.030 C 
ATOM     11  C   UNL     1     -19.457   3.234  24.409  0.00  0.00    +0.017 C 
ATOM     12  C   UNL     1     -18.813   2.316  25.429  0.00  0.00    +0.085 C 
BRANCH   5  13
ATOM     13  C   UNL     1     -16.539   1.629  25.901  0.00  0.00    +0.120 C 
BRANCH  13  15
ATOM      1 CL   UNL     1     -15.591   2.983  31.686  0.00  0.00    -0.084 Cl
ATOM     15  C   UNL     1     -16.301   1.967  27.348  0.00  0.00    -0.033 A 
ATOM     16  C   UNL     1     -16.083   3.292  27.729  0.00  0.00    +0.006 A 
ATOM     17  C   UNL     1     -16.299   0.956  28.310  0.00  0.00    +0.006 A 
ATOM     19  C   UNL     1     -15.862   3.605  29.069  0.00  0.00    +0.020 A 
ATOM     20  C   UNL     1     -16.078   1.271  29.651  0.00  0.00    +0.020 A 
ATOM     22  C   UNL     1     -15.860   2.594  30.031  0.00  0.00    +0.041 A 
ENDBRANCH  13  15
ENDBRANCH   5  13
ENDBRANCH  14   9
TORSDOF 8
ENDMDL
MODEL 8
REMARK VINA RESULT:      -6.4      4.094      9.799
REMARK  Name = 45783544
REMARK  9 active torsions:
REMARK  status: ('A' for Active; 'I' for Inactive)
REMARK    1  A    between atoms: O_3  and  C_26
REMARK    2  A    between atoms: O_3  and  C_27
REMARK    3  A    between atoms: O_4  and  C_28
REMARK    4  A    between atoms: O_4  and  C_29
REMARK    5  A    between atoms: N_5  and  C_13
REMARK    6  A    between atoms: C_9  and  C_14
REMARK    7  A    between atoms: C_13  and  C_15
REMARK    8  A    between atoms: C_18  and  C_21
REMARK    9  A    between atoms: C_27  and  C_28
REMARK                            x       y       z     vdW  Elec       q    Type
REMARK                         _______ _______ _______ _____ _____    ______ ____
ROOT
ATOM      2  O   UNL     1     -16.877   2.047  24.070  0.00  0.00    -0.336 OA
ATOM      6  N   UNL     1     -15.375   3.547  24.784  0.00  0.00    -0.190 NA
ATOM      7  N   UNL     1     -16.524   2.808  22.949  0.00  0.00    -0.056 NA
ATOM     14  C   UNL     1     -16.155   2.548  25.107  0.00  0.00    +0.245 A 
ATOM     18  C   UNL     1     -15.635   3.671  23.450  0.00  0.00    +0.204 A 
ENDROOT
BRANCH  18  21
ATOM      8  N   UNL     1     -15.167   6.400  20.968  0.00  0.00    -0.221 NA
ATOM     21  C   UNL     1     -14.990   4.669  22.646  0.00  0.00    +0.041 A 
ATOM     23  C   UNL     1     -13.620   4.888  22.739  0.00  0.00    +0.018 A 
ATOM     24  C   UNL     1     -15.712   5.445  21.754  0.00  0.00    +0.126 A 
ATOM     25  C   UNL     1     -13.023   5.862  21.947  0.00  0.00    +0.068 A 
ATOM     26  C   UNL     1     -13.832   6.585  21.085  0.00  0.00    +0.215 A 
BRANCH  26   3
ATOM      3  O   UNL     1     -13.266   7.550  20.294  0.00  0.00    -0.474 OA
BRANCH   3  27
ATOM     27  C   UNL     1     -11.861   7.467  20.090  0.00  0.00    +0.258 C 
BRANCH  27  28
ATOM     28  C   UNL     1     -11.582   7.371  18.603  0.00  0.00    +0.200 C 
BRANCH  28   4
ATOM      4  O   UNL     1     -10.645   8.377  18.240  0.00  0.00    -0.380 OA
ATOM     29  C   UNL     1     -10.466   8.439  16.833  0.00  0.00    +0.194 C 
ENDBRANCH  28   4
ENDBRANCH  27  28
ENDBRANCH   3  27
ENDBRANCH  26   3
ENDBRANCH  18  21
BRANCH  14   9
ATOM      5  N   UNL     1     -16.899   2.811  27.467  0.00  0.00    -0.287 NA
ATOM      9  C   UNL     1     -16.359   1.884  26.453  0.00  0.00    +0.146 C 
ATOM     10  C   UNL     1     -17.374   0.728  26.398  0.00  0.00    +0.030 C 
ATOM     11  C   UNL     1     -18.415   1.063  27.457  0.00  0.00    +0.017 C 
ATOM     12  C   UNL     1     -17.680   1.996  28.398  0.00  0.00    +0.085 C 
BRANCH   5  13
ATOM     13  C   UNL     1     -15.868   3.584  28.148  0.00  0.00    +0.120 C 
BRANCH  13  15
ATOM      1 CL   UNL     1     -14.582   1.333  33.576  0.00  0.00    -0.084 Cl
ATOM     15  C   UNL     1     -15.548   3.020  29.506  0.00  0.00    -0.033 A 
ATOM     16  C   UNL     1     -14.766   1.870  29.617  0.00  0.00    +0.006 A 
ATOM     17  C   UNL     1     -16.032   3.648  30.654  0.00  0.00    +0.006 A 
ATOM     19  C   UNL     1     -14.468   1.348  30.876  0.00  0.00    +0.020 A 
ATOM     20  C   UNL     1     -15.734   3.125  31.912  0.00  0.00    +0.020 A 
ATOM     22  C   UNL     1     -14.953   1.976  32.023  0.00  0.00    +0.041 A 
ENDBRANCH  13  15
ENDBRANCH   5  13
ENDBRANCH  14   9
TORSDOF 8
ENDMDL
MODEL 9
REMARK VINA RESULT:      -6.3     18.016     20.146
REMARK  Name = 45783544
REMARK  9 active torsions:
REMARK  status: ('A' for Active; 'I' for Inactive)
REMARK    1  A    between atoms: O_3  and  C_26
REMARK    2  A    between atoms: O_3  and  C_27
REMARK    3  A    between atoms: O_4  and  C_28
REMARK    4  A    between atoms: O_4  and  C_29
REMARK    5  A    between atoms: N_5  and  C_13
REMARK    6  A    between atoms: C_9  and  C_14
REMARK    7  A    between atoms: C_13  and  C_15
REMARK    8  A    between atoms: C_18  and  C_21
REMARK    9  A    between atoms: C_27  and  C_28
REMARK                            x       y       z     vdW  Elec       q    Type
REMARK                         _______ _______ _______ _____ _____    ______ ____
ROOT
ATOM      2  O   UNL     1      -6.760 -10.844  19.989  0.00  0.00    -0.336 OA
ATOM      6  N   UNL     1      -7.060 -11.666  17.926  0.00  0.00    -0.190 NA
ATOM      7  N   UNL     1      -5.625 -10.479  19.255  0.00  0.00    -0.056 NA
ATOM     14  C   UNL     1      -7.553 -11.540  19.132  0.00  0.00    +0.245 A 
ATOM     18  C   UNL     1      -5.875 -10.999  18.050  0.00  0.00    +0.204 A 
ENDROOT
BRANCH  18  21
ATOM      8  N   UNL     1      -4.613 -10.417  14.601  0.00  0.00    -0.221 NA
ATOM     21  C   UNL     1      -4.964 -10.872  16.949  0.00  0.00    +0.041 A 
ATOM     23  C   UNL     1      -3.599 -11.068  17.124  0.00  0.00    +0.018 A 
ATOM     24  C   UNL     1      -5.416 -10.551  15.680  0.00  0.00    +0.126 A 
ATOM     25  C   UNL     1      -2.740 -10.938  16.038  0.00  0.00    +0.068 A 
ATOM     26  C   UNL     1      -3.291 -10.615  14.809  0.00  0.00    +0.215 A 
BRANCH  26   3
ATOM      3  O   UNL     1      -2.465 -10.482  13.724  0.00  0.00    -0.474 OA
BRANCH   3  27
ATOM     27  C   UNL     1      -2.348 -11.612  12.868  0.00  0.00    +0.258 C 
BRANCH  27  28
ATOM     28  C   UNL     1      -2.895 -11.253  11.499  0.00  0.00    +0.200 C 
BRANCH  28   4
ATOM      4  O   UNL     1      -2.311 -10.029  11.071  0.00  0.00    -0.380 OA
ATOM     29  C   UNL     1      -3.174  -9.319  10.195  0.00  0.00    +0.194 C 
ENDBRANCH  28   4
ENDBRANCH  27  28
ENDBRANCH   3  27
ENDBRANCH  26   3
ENDBRANCH  18  21
BRANCH  14   9
ATOM      5  N   UNL     1     -10.035 -11.555  18.941  0.00  0.00    -0.287 NA
ATOM      9  C   UNL     1      -8.865 -12.052  19.691  0.00  0.00    +0.146 C 
ATOM     10  C   UNL     1      -8.980 -13.586  19.624  0.00  0.00    +0.030 C 
ATOM     11  C   UNL     1     -10.275 -13.855  18.872  0.00  0.00    +0.017 C 
ATOM     12  C   UNL     1     -11.071 -12.580  19.064  0.00  0.00    +0.085 C 
BRANCH   5  13
ATOM     13  C   UNL     1     -10.498 -10.251  19.397  0.00  0.00    +0.120 C 
BRANCH  13  15
ATOM      1 CL   UNL     1     -11.617  -6.541  14.795  0.00  0.00    -0.084 Cl
ATOM     15  C   UNL     1     -10.778  -9.321  18.246  0.00  0.00    -0.033 A 
ATOM     16  C   UNL     1      -9.739  -8.590  17.670  0.00  0.00    +0.006 A 
ATOM     17  C   UNL     1     -12.078  -9.193  17.754  0.00  0.00    +0.006 A 
ATOM     19  C   UNL     1      -9.999  -7.730  16.605  0.00  0.00    +0.020 A 
ATOM     20  C   UNL     1     -12.337  -8.332  16.688  0.00  0.00    +0.020 A 
ATOM     22  C   UNL     1     -11.299  -7.600  16.113  0.00  0.00    +0.041 A 
ENDBRANCH  13  15
ENDBRANCH   5  13
ENDBRANCH  14   9
TORSDOF 8
ENDMDL
MODEL 10
REMARK VINA RESULT:      -6.3     19.062     20.235
REMARK  Name = 45783544
REMARK  9 active torsions:
REMARK  status: ('A' for Active; 'I' for Inactive)
REMARK    1  A    between atoms: O_3  and  C_26
REMARK    2  A    between atoms: O_3  and  C_27
REMARK    3  A    between atoms: O_4  and  C_28
REMARK    4  A    between atoms: O_4  and  C_29
REMARK    5  A    between atoms: N_5  and  C_13
REMARK    6  A    between atoms: C_9  and  C_14
REMARK    7  A    between atoms: C_13  and  C_15
REMARK    8  A    between atoms: C_18  and  C_21
REMARK    9  A    between atoms: C_27  and  C_28
REMARK                            x       y       z     vdW  Elec       q    Type
REMARK                         _______ _______ _______ _____ _____    ______ ____
ROOT
ATOM      2  O   UNL     1      -4.294 -13.211  15.326  0.00  0.00    -0.336 OA
ATOM      6  N   UNL     1      -4.482 -11.333  16.534  0.00  0.00    -0.190 NA
ATOM      7  N   UNL     1      -5.494 -13.325  16.039  0.00  0.00    -0.056 NA
ATOM     14  C   UNL     1      -3.762 -12.010  15.676  0.00  0.00    +0.245 A 
ATOM     18  C   UNL     1      -5.535 -12.181  16.728  0.00  0.00    +0.204 A 
ENDROOT
BRANCH  18  21
ATOM      8  N   UNL     1      -7.406 -11.579  19.885  0.00  0.00    -0.221 NA
ATOM     21  C   UNL     1      -6.611 -11.854  17.618  0.00  0.00    +0.041 A 
ATOM     23  C   UNL     1      -7.865 -11.504  17.128  0.00  0.00    +0.018 A 
ATOM     24  C   UNL     1      -6.435 -11.875  18.992  0.00  0.00    +0.126 A 
ATOM     25  C   UNL     1      -8.889 -11.192  18.016  0.00  0.00    +0.068 A 
ATOM     26  C   UNL     1      -8.611 -11.244  19.372  0.00  0.00    +0.215 A 
BRANCH  26   3
ATOM      3  O   UNL     1      -9.605 -10.942  20.266  0.00  0.00    -0.474 OA
BRANCH   3  27
ATOM     27  C   UNL     1     -10.656 -10.107  19.795  0.00  0.00    +0.258 C 
BRANCH  27  28
ATOM     28  C   UNL     1     -11.986 -10.704  20.215  0.00  0.00    +0.200 C 
BRANCH  28   4
ATOM      4  O   UNL     1     -12.742  -9.715  20.903  0.00  0.00    -0.380 OA
ATOM     29  C   UNL     1     -14.122  -9.796  20.577  0.00  0.00    +0.194 C 
ENDBRANCH  28   4
ENDBRANCH  27  28
ENDBRANCH   3  27
ENDBRANCH  26   3
ENDBRANCH  18  21
BRANCH  14   9
ATOM      5  N   UNL     1      -2.601 -10.673  13.927  0.00  0.00    -0.287 NA
ATOM      9  C   UNL     1      -2.443 -11.642  15.029  0.00  0.00    +0.146 C 
ATOM     10  C   UNL     1      -1.469 -10.964  16.010  0.00  0.00    +0.030 C 
ATOM     11  C   UNL     1      -1.089  -9.648  15.347  0.00  0.00    +0.017 C 
ATOM     12  C   UNL     1      -1.362  -9.897  13.877  0.00  0.00    +0.085 C 
BRANCH   5  13
ATOM     13  C   UNL     1      -2.906 -11.301  12.648  0.00  0.00    +0.120 C 
BRANCH  13  15
ATOM      1 CL   UNL     1      -6.316  -7.774   9.166  0.00  0.00    -0.084 Cl
ATOM     15  C   UNL     1      -3.759 -10.417  11.778  0.00  0.00    -0.033 A 
ATOM     16  C   UNL     1      -3.291 -10.007  10.529  0.00  0.00    +0.006 A 
ATOM     17  C   UNL     1      -5.018 -10.010  12.219  0.00  0.00    +0.006 A 
ATOM     19  C   UNL     1      -4.081  -9.188   9.723  0.00  0.00    +0.020 A 
ATOM     20  C   UNL     1      -5.808  -9.191  11.412  0.00  0.00    +0.020 A 
ATOM     22  C   UNL     1      -5.340  -8.781  10.165  0.00  0.00    +0.041 A 
ENDBRANCH  13  15
ENDBRANCH   5  13
ENDBRANCH  14   9
TORSDOF 8
ENDMDL
