MODEL 1
REMARK VINA RESULT:      -7.1      0.000      0.000
REMARK  Name = 75536598
REMARK  7 active torsions:
REMARK  status: ('A' for Active; 'I' for Inactive)
REMARK    1  A    between atoms: O_3  and  C_8
REMARK    2  A    between atoms: N_5  and  C_7
REMARK    3  A    between atoms: N_5  and  C_12
REMARK    4  A    between atoms: N_6  and  C_11
REMARK    5  A    between atoms: C_9  and  C_11
REMARK    6  A    between atoms: C_12  and  C_13
REMARK    7  A    between atoms: C_14  and  C_17
REMARK                            x       y       z     vdW  Elec       q    Type
REMARK                         _______ _______ _______ _____ _____    ______ ____
ROOT
ATOM      2  O   UNL     1      11.182   9.017  20.349  0.00  0.00    -0.371 OA
ATOM      7  C   UNL     1      12.396   7.076  19.714  0.00  0.00    +0.111 C 
ATOM      8  C   UNL     1      12.127   7.025  21.207  0.00  0.00    +0.164 C 
ATOM      9  C   UNL     1      10.954   7.987  21.327  0.00  0.00    +0.165 C 
ATOM     10  C   UNL     1      12.175   8.551  19.419  0.00  0.00    +0.181 C 
ENDROOT
BRANCH   8   3
ATOM      3  O   UNL     1      11.794   5.727  21.657  0.00  0.00    -0.388 OA
ATOM     25  H   UNL     1      10.834   5.607  21.561  0.00  0.00    +0.210 HD
ENDBRANCH   8   3
BRANCH   7   5
ATOM      5  N   UNL     1      13.726   6.618  19.344  0.00  0.00    -0.305 NA
ATOM     24  H   UNL     1      13.715   6.320  18.368  0.00  0.00    +0.123 HD
BRANCH   5  12
ATOM     12  C   UNL     1      14.710   7.683  19.501  0.00  0.00    +0.116 C 
BRANCH  12  13
ATOM     13  C   UNL     1      16.087   7.137  19.766  0.00  0.00    -0.034 A 
ATOM     15  C   UNL     1      16.858   7.661  20.804  0.00  0.00    +0.005 A 
ATOM     16  C   UNL     1      16.594   6.108  18.973  0.00  0.00    +0.005 A 
ATOM     18  C   UNL     1      18.135   7.156  21.049  0.00  0.00    +0.000 A 
ATOM     19  C   UNL     1      17.871   5.602  19.218  0.00  0.00    +0.000 A 
ATOM     20  C   UNL     1      18.641   6.126  20.255  0.00  0.00    +0.000 A 
ENDBRANCH  12  13
ENDBRANCH   5  12
ENDBRANCH   7   5
BRANCH   9  11
ATOM     11  C   UNL     1      10.826   8.609  22.705  0.00  0.00    +0.138 C 
BRANCH  11   6
ATOM      4  O   UNL     1      12.517  10.800  23.467  0.00  0.00    -0.270 OA
ATOM      6  N   UNL     1      10.508  10.005  22.621  0.00  0.00    -0.308 N 
ATOM     14  C   UNL     1      11.393  11.004  23.015  0.00  0.00    +0.251 C 
ATOM     26  H   UNL     1       9.588  10.248  22.270  0.00  0.00    +0.149 HD
BRANCH  14  17
ATOM      1  S   UNL     1      10.345  13.216  24.289  0.00  0.00    -0.092 S 
ATOM     17  C   UNL     1      10.903  12.401  22.891  0.00  0.00    +0.074 A 
ATOM     21  C   UNL     1      10.820  13.191  21.765  0.00  0.00    +0.021 A 
ATOM     22  C   UNL     1      10.292  14.482  22.054  0.00  0.00    +0.008 A 
ATOM     23  C   UNL     1       9.991  14.631  23.391  0.00  0.00    +0.046 A 
ENDBRANCH  14  17
ENDBRANCH  11   6
ENDBRANCH   9  11
TORSDOF 7
ENDMDL
MODEL 2
REMARK VINA RESULT:      -7.0      1.683      2.178
REMARK  Name = 75536598
REMARK  7 active torsions:
REMARK  status: ('A' for Active; 'I' for Inactive)
REMARK    1  A    between atoms: O_3  and  C_8
REMARK    2  A    between atoms: N_5  and  C_7
REMARK    3  A    between atoms: N_5  and  C_12
REMARK    4  A    between atoms: N_6  and  C_11
REMARK    5  A    between atoms: C_9  and  C_11
REMARK    6  A    between atoms: C_12  and  C_13
REMARK    7  A    between atoms: C_14  and  C_17
REMARK                            x       y       z     vdW  Elec       q    Type
REMARK                         _______ _______ _______ _____ _____    ______ ____
ROOT
ATOM      2  O   UNL     1      11.023   8.835  20.215  0.00  0.00    -0.371 OA
ATOM      7  C   UNL     1      12.406   6.954  19.773  0.00  0.00    +0.111 C 
ATOM      8  C   UNL     1      12.048   6.970  21.248  0.00  0.00    +0.164 C 
ATOM      9  C   UNL     1      10.805   7.849  21.239  0.00  0.00    +0.165 C 
ATOM     10  C   UNL     1      12.103   8.390  19.375  0.00  0.00    +0.181 C 
ENDROOT
BRANCH   8   3
ATOM      3  O   UNL     1      11.777   5.679  21.757  0.00  0.00    -0.388 OA
ATOM     25  H   UNL     1      12.358   5.044  21.304  0.00  0.00    +0.210 HD
ENDBRANCH   8   3
BRANCH   7   5
ATOM      5  N   UNL     1      13.784   6.574  19.511  0.00  0.00    -0.305 NA
ATOM     24  H   UNL     1      13.970   6.667  18.512  0.00  0.00    +0.123 HD
BRANCH   5  12
ATOM     12  C   UNL     1      14.713   7.426  20.246  0.00  0.00    +0.116 C 
BRANCH  12  13
ATOM     13  C   UNL     1      16.119   6.891  20.200  0.00  0.00    -0.034 A 
ATOM     15  C   UNL     1      16.545   6.141  19.104  0.00  0.00    +0.005 A 
ATOM     16  C   UNL     1      16.996   7.143  21.254  0.00  0.00    +0.005 A 
ATOM     18  C   UNL     1      17.848   5.644  19.062  0.00  0.00    +0.000 A 
ATOM     19  C   UNL     1      18.299   6.647  21.213  0.00  0.00    +0.000 A 
ATOM     20  C   UNL     1      18.725   5.898  20.117  0.00  0.00    +0.000 A 
ENDBRANCH  12  13
ENDBRANCH   5  12
ENDBRANCH   7   5
BRANCH   9  11
ATOM     11  C   UNL     1      10.548   8.538  22.567  0.00  0.00    +0.138 C 
BRANCH  11   6
ATOM      4  O   UNL     1      10.348  11.102  23.845  0.00  0.00    -0.270 OA
ATOM      6  N   UNL     1      11.634   9.404  22.926  0.00  0.00    -0.308 N 
ATOM     14  C   UNL     1      11.444  10.635  23.546  0.00  0.00    +0.251 C 
ATOM     26  H   UNL     1      12.570   9.088  22.695  0.00  0.00    +0.149 HD
BRANCH  14  17
ATOM      1  S   UNL     1      12.634  12.608  25.064  0.00  0.00    -0.092 S 
ATOM     17  C   UNL     1      12.670  11.424  23.827  0.00  0.00    +0.074 A 
ATOM     21  C   UNL     1      13.904  11.353  23.217  0.00  0.00    +0.021 A 
ATOM     22  C   UNL     1      14.831  12.280  23.773  0.00  0.00    +0.008 A 
ATOM     23  C   UNL     1      14.271  13.027  24.787  0.00  0.00    +0.046 A 
ENDBRANCH  14  17
ENDBRANCH  11   6
ENDBRANCH   9  11
TORSDOF 7
ENDMDL
MODEL 3
REMARK VINA RESULT:      -6.8      3.322      7.409
REMARK  Name = 75536598
REMARK  7 active torsions:
REMARK  status: ('A' for Active; 'I' for Inactive)
REMARK    1  A    between atoms: O_3  and  C_8
REMARK    2  A    between atoms: N_5  and  C_7
REMARK    3  A    between atoms: N_5  and  C_12
REMARK    4  A    between atoms: N_6  and  C_11
REMARK    5  A    between atoms: C_9  and  C_11
REMARK    6  A    between atoms: C_12  and  C_13
REMARK    7  A    between atoms: C_14  and  C_17
REMARK                            x       y       z     vdW  Elec       q    Type
REMARK                         _______ _______ _______ _____ _____    ______ ____
ROOT
ATOM      2  O   UNL     1      13.334   8.084  21.664  0.00  0.00    -0.371 OA
ATOM      7  C   UNL     1      11.305   8.882  22.608  0.00  0.00    +0.111 C 
ATOM      8  C   UNL     1      10.982   7.969  21.439  0.00  0.00    +0.164 C 
ATOM      9  C   UNL     1      12.275   7.174  21.322  0.00  0.00    +0.165 C 
ATOM     10  C   UNL     1      12.760   9.223  22.330  0.00  0.00    +0.181 C 
ENDROOT
BRANCH   8   3
ATOM      3  O   UNL     1       9.869   7.134  21.691  0.00  0.00    -0.388 OA
ATOM     25  H   UNL     1       9.913   6.375  21.085  0.00  0.00    +0.210 HD
ENDBRANCH   8   3
BRANCH   7   5
ATOM      5  N   UNL     1      10.453  10.058  22.682  0.00  0.00    -0.305 NA
ATOM     24  H   UNL     1      10.085  10.142  23.630  0.00  0.00    +0.123 HD
BRANCH   5  12
ATOM     12  C   UNL     1      11.199  11.269  22.357  0.00  0.00    +0.116 C 
BRANCH  12  13
ATOM     13  C   UNL     1      10.897  12.387  23.318  0.00  0.00    -0.034 A 
ATOM     15  C   UNL     1      10.980  12.168  24.693  0.00  0.00    +0.005 A 
ATOM     16  C   UNL     1      10.530  13.643  22.834  0.00  0.00    +0.005 A 
ATOM     18  C   UNL     1      10.699  13.205  25.584  0.00  0.00    +0.000 A 
ATOM     19  C   UNL     1      10.249  14.679  23.724  0.00  0.00    +0.000 A 
ATOM     20  C   UNL     1      10.333  14.460  25.098  0.00  0.00    +0.000 A 
ENDBRANCH  12  13
ENDBRANCH   5  12
ENDBRANCH   7   5
BRANCH   9  11
ATOM     11  C   UNL     1      12.511   6.612  19.932  0.00  0.00    +0.138 C 
BRANCH  11   6
ATOM      4  O   UNL     1      11.625   7.373  17.309  0.00  0.00    -0.270 OA
ATOM      6  N   UNL     1      13.119   7.586  19.072  0.00  0.00    -0.308 N 
ATOM     14  C   UNL     1      12.619   7.892  17.809  0.00  0.00    +0.251 C 
ATOM     26  H   UNL     1      13.955   8.046  19.415  0.00  0.00    +0.149 HD
BRANCH  14  17
ATOM      1  S   UNL     1      13.507  10.500  17.639  0.00  0.00    -0.092 S 
ATOM     17  C   UNL     1      13.380   8.904  17.031  0.00  0.00    +0.074 A 
ATOM     21  C   UNL     1      14.036   8.756  15.829  0.00  0.00    +0.021 A 
ATOM     22  C   UNL     1      14.652   9.967  15.402  0.00  0.00    +0.008 A 
ATOM     23  C   UNL     1      14.443  10.997  16.294  0.00  0.00    +0.046 A 
ENDBRANCH  14  17
ENDBRANCH  11   6
ENDBRANCH   9  11
TORSDOF 7
ENDMDL
MODEL 4
REMARK VINA RESULT:      -6.4     26.805     29.265
REMARK  Name = 75536598
REMARK  7 active torsions:
REMARK  status: ('A' for Active; 'I' for Inactive)
REMARK    1  A    between atoms: O_3  and  C_8
REMARK    2  A    between atoms: N_5  and  C_7
REMARK    3  A    between atoms: N_5  and  C_12
REMARK    4  A    between atoms: N_6  and  C_11
REMARK    5  A    between atoms: C_9  and  C_11
REMARK    6  A    between atoms: C_12  and  C_13
REMARK    7  A    between atoms: C_14  and  C_17
REMARK                            x       y       z     vdW  Elec       q    Type
REMARK                         _______ _______ _______ _____ _____    ______ ____
ROOT
ATOM      2  O   UNL     1     -17.740   5.146  24.266  0.00  0.00    -0.371 OA
ATOM      7  C   UNL     1     -16.043   4.065  23.003  0.00  0.00    +0.111 C 
ATOM      8  C   UNL     1     -15.836   3.759  24.475  0.00  0.00    +0.164 C 
ATOM      9  C   UNL     1     -17.223   4.044  25.032  0.00  0.00    +0.165 C 
ATOM     10  C   UNL     1     -16.947   5.285  23.074  0.00  0.00    +0.181 C 
ENDROOT
BRANCH   8   3
ATOM      3  O   UNL     1     -15.441   2.420  24.703  0.00  0.00    -0.388 OA
ATOM     25  H   UNL     1     -15.854   2.116  25.529  0.00  0.00    +0.210 HD
ENDBRANCH   8   3
BRANCH   7   5
ATOM      5  N   UNL     1     -14.807   4.318  22.280  0.00  0.00    -0.305 NA
ATOM     24  H   UNL     1     -15.008   4.351  21.280  0.00  0.00    +0.123 HD
BRANCH   5  12
ATOM     12  C   UNL     1     -14.213   5.587  22.684  0.00  0.00    +0.116 C 
BRANCH  12  13
ATOM     13  C   UNL     1     -13.602   6.316  21.518  0.00  0.00    -0.034 A 
ATOM     15  C   UNL     1     -14.416   7.024  20.633  0.00  0.00    +0.005 A 
ATOM     16  C   UNL     1     -12.222   6.282  21.319  0.00  0.00    +0.005 A 
ATOM     18  C   UNL     1     -13.850   7.698  19.551  0.00  0.00    +0.000 A 
ATOM     19  C   UNL     1     -11.655   6.956  20.237  0.00  0.00    +0.000 A 
ATOM     20  C   UNL     1     -12.469   7.664  19.354  0.00  0.00    +0.000 A 
ENDBRANCH  12  13
ENDBRANCH   5  12
ENDBRANCH   7   5
BRANCH   9  11
ATOM     11  C   UNL     1     -17.215   4.405  26.507  0.00  0.00    +0.138 C 
BRANCH  11   6
ATOM      4  O   UNL     1     -16.141   4.759  29.146  0.00  0.00    -0.270 OA
ATOM      6  N   UNL     1     -16.505   3.428  27.280  0.00  0.00    -0.308 N 
ATOM     14  C   UNL     1     -16.017   3.687  28.557  0.00  0.00    +0.251 C 
ATOM     26  H   UNL     1     -16.352   2.523  26.850  0.00  0.00    +0.149 HD
BRANCH  14  17
ATOM      1  S   UNL     1     -15.783   0.965  28.941  0.00  0.00    -0.092 S 
ATOM     17  C   UNL     1     -15.279   2.579  29.215  0.00  0.00    +0.074 A 
ATOM     21  C   UNL     1     -14.193   2.644  30.060  0.00  0.00    +0.021 A 
ATOM     22  C   UNL     1     -13.767   1.353  30.486  0.00  0.00    +0.008 A 
ATOM     23  C   UNL     1     -14.545   0.349  29.952  0.00  0.00    +0.046 A 
ENDBRANCH  14  17
ENDBRANCH  11   6
ENDBRANCH   9  11
TORSDOF 7
ENDMDL
MODEL 5
REMARK VINA RESULT:      -6.2     25.831     28.229
REMARK  Name = 75536598
REMARK  7 active torsions:
REMARK  status: ('A' for Active; 'I' for Inactive)
REMARK    1  A    between atoms: O_3  and  C_8
REMARK    2  A    between atoms: N_5  and  C_7
REMARK    3  A    between atoms: N_5  and  C_12
REMARK    4  A    between atoms: N_6  and  C_11
REMARK    5  A    between atoms: C_9  and  C_11
REMARK    6  A    between atoms: C_12  and  C_13
REMARK    7  A    between atoms: C_14  and  C_17
REMARK                            x       y       z     vdW  Elec       q    Type
REMARK                         _______ _______ _______ _____ _____    ______ ____
ROOT
ATOM      2  O   UNL     1     -16.189   5.104  22.181  0.00  0.00    -0.371 OA
ATOM      7  C   UNL     1     -13.838   5.086  21.839  0.00  0.00    +0.111 C 
ATOM      8  C   UNL     1     -14.122   5.064  23.330  0.00  0.00    +0.164 C 
ATOM      9  C   UNL     1     -15.555   4.553  23.349  0.00  0.00    +0.165 C 
ATOM     10  C   UNL     1     -15.166   5.579  21.288  0.00  0.00    +0.181 C 
ENDROOT
BRANCH   8   3
ATOM      3  O   UNL     1     -13.247   4.209  24.039  0.00  0.00    -0.388 OA
ATOM     25  H   UNL     1     -12.646   4.758  24.571  0.00  0.00    +0.210 HD
ENDBRANCH   8   3
BRANCH   7   5
ATOM      5  N   UNL     1     -12.721   5.940  21.470  0.00  0.00    -0.305 NA
ATOM     24  H   UNL     1     -12.248   5.537  20.661  0.00  0.00    +0.123 HD
BRANCH   5  12
ATOM     12  C   UNL     1     -13.177   7.283  21.129  0.00  0.00    +0.116 C 
BRANCH  12  13
ATOM     13  C   UNL     1     -12.213   7.986  20.211  0.00  0.00    -0.034 A 
ATOM     15  C   UNL     1     -11.772   7.356  19.047  0.00  0.00    +0.005 A 
ATOM     16  C   UNL     1     -11.757   9.265  20.526  0.00  0.00    +0.005 A 
ATOM     18  C   UNL     1     -10.878   8.006  18.197  0.00  0.00    +0.000 A 
ATOM     19  C   UNL     1     -10.862   9.917  19.676  0.00  0.00    +0.000 A 
ATOM     20  C   UNL     1     -10.423   9.287  18.512  0.00  0.00    +0.000 A 
ENDBRANCH  12  13
ENDBRANCH   5  12
ENDBRANCH   7   5
BRANCH   9  11
ATOM     11  C   UNL     1     -16.323   4.966  24.591  0.00  0.00    +0.138 C 
BRANCH  11   6
ATOM      4  O   UNL     1     -17.510   5.055  27.205  0.00  0.00    -0.270 OA
ATOM      6  N   UNL     1     -16.001   4.125  25.708  0.00  0.00    -0.308 N 
ATOM     14  C   UNL     1     -16.630   4.239  26.944  0.00  0.00    +0.251 C 
ATOM     26  H   UNL     1     -15.270   3.435  25.570  0.00  0.00    +0.149 HD
BRANCH  14  17
ATOM      1  S   UNL     1     -16.600   1.658  27.919  0.00  0.00    -0.092 S 
ATOM     17  C   UNL     1     -16.163   3.311  28.006  0.00  0.00    +0.074 A 
ATOM     21  C   UNL     1     -15.390   3.584  29.114  0.00  0.00    +0.021 A 
ATOM     22  C   UNL     1     -15.153   2.420  29.901  0.00  0.00    +0.008 A 
ATOM     23  C   UNL     1     -15.755   1.301  29.365  0.00  0.00    +0.046 A 
ENDBRANCH  14  17
ENDBRANCH  11   6
ENDBRANCH   9  11
TORSDOF 7
ENDMDL
MODEL 6
REMARK VINA RESULT:      -6.2      4.860      7.481
REMARK  Name = 75536598
REMARK  7 active torsions:
REMARK  status: ('A' for Active; 'I' for Inactive)
REMARK    1  A    between atoms: O_3  and  C_8
REMARK    2  A    between atoms: N_5  and  C_7
REMARK    3  A    between atoms: N_5  and  C_12
REMARK    4  A    between atoms: N_6  and  C_11
REMARK    5  A    between atoms: C_9  and  C_11
REMARK    6  A    between atoms: C_12  and  C_13
REMARK    7  A    between atoms: C_14  and  C_17
REMARK                            x       y       z     vdW  Elec       q    Type
REMARK                         _______ _______ _______ _____ _____    ______ ____
ROOT
ATOM      2  O   UNL     1      18.735   7.193  21.814  0.00  0.00    -0.371 OA
ATOM      7  C   UNL     1      20.088   5.970  20.293  0.00  0.00    +0.111 C 
ATOM      8  C   UNL     1      18.635   5.587  20.081  0.00  0.00    +0.164 C 
ATOM      9  C   UNL     1      17.924   6.782  20.701  0.00  0.00    +0.165 C 
ATOM     10  C   UNL     1      20.035   6.594  21.678  0.00  0.00    +0.181 C 
ENDROOT
BRANCH   8   3
ATOM      3  O   UNL     1      18.307   5.428  18.714  0.00  0.00    -0.388 OA
ATOM     25  H   UNL     1      18.616   6.215  18.232  0.00  0.00    +0.210 HD
ENDBRANCH   8   3
BRANCH   7   5
ATOM      5  N   UNL     1      21.006   4.844  20.215  0.00  0.00    -0.305 NA
ATOM     24  H   UNL     1      20.952   4.437  19.281  0.00  0.00    +0.123 HD
BRANCH   5  12
ATOM     12  C   UNL     1      22.379   5.267  20.468  0.00  0.00    +0.116 C 
BRANCH  12  13
ATOM     13  C   UNL     1      23.309   4.093  20.608  0.00  0.00    -0.034 A 
ATOM     15  C   UNL     1      24.560   4.115  19.992  0.00  0.00    +0.005 A 
ATOM     16  C   UNL     1      22.919   2.979  21.353  0.00  0.00    +0.005 A 
ATOM     18  C   UNL     1      25.422   3.026  20.121  0.00  0.00    +0.000 A 
ATOM     19  C   UNL     1      23.781   1.890  21.483  0.00  0.00    +0.000 A 
ATOM     20  C   UNL     1      25.032   1.913  20.867  0.00  0.00    +0.000 A 
ENDBRANCH  12  13
ENDBRANCH   5  12
ENDBRANCH   7   5
BRANCH   9  11
ATOM     11  C   UNL     1      16.519   6.461  21.180  0.00  0.00    +0.138 C 
BRANCH  11   6
ATOM      4  O   UNL     1      15.616   6.177  18.469  0.00  0.00    -0.270 OA
ATOM      6  N   UNL     1      15.542   7.273  20.513  0.00  0.00    -0.308 N 
ATOM     14  C   UNL     1      15.163   7.062  19.191  0.00  0.00    +0.251 C 
ATOM     26  H   UNL     1      15.135   8.034  21.045  0.00  0.00    +0.149 HD
BRANCH  14  17
ATOM      1  S   UNL     1      14.548   9.671  18.534  0.00  0.00    -0.092 S 
ATOM     17  C   UNL     1      14.158   8.006  18.638  0.00  0.00    +0.074 A 
ATOM     21  C   UNL     1      12.889   7.743  18.171  0.00  0.00    +0.021 A 
ATOM     22  C   UNL     1      12.229   8.922  17.720  0.00  0.00    +0.008 A 
ATOM     23  C   UNL     1      13.018  10.043  17.860  0.00  0.00    +0.046 A 
ENDBRANCH  14  17
ENDBRANCH  11   6
ENDBRANCH   9  11
TORSDOF 7
ENDMDL
MODEL 7
REMARK VINA RESULT:      -6.1     26.334     27.917
REMARK  Name = 75536598
REMARK  7 active torsions:
REMARK  status: ('A' for Active; 'I' for Inactive)
REMARK    1  A    between atoms: O_3  and  C_8
REMARK    2  A    between atoms: N_5  and  C_7
REMARK    3  A    between atoms: N_5  and  C_12
REMARK    4  A    between atoms: N_6  and  C_11
REMARK    5  A    between atoms: C_9  and  C_11
REMARK    6  A    between atoms: C_12  and  C_13
REMARK    7  A    between atoms: C_14  and  C_17
REMARK                            x       y       z     vdW  Elec       q    Type
REMARK                         _______ _______ _______ _____ _____    ______ ____
ROOT
ATOM      2  O   UNL     1      -5.049 -11.779  15.837  0.00  0.00    -0.371 OA
ATOM      7  C   UNL     1      -3.027 -11.221  14.723  0.00  0.00    +0.111 C 
ATOM      8  C   UNL     1      -2.923 -10.800  16.178  0.00  0.00    +0.164 C 
ATOM      9  C   UNL     1      -3.998 -11.671  16.812  0.00  0.00    +0.165 C 
ATOM     10  C   UNL     1      -4.530 -11.370  14.559  0.00  0.00    +0.181 C 
ENDROOT
BRANCH   8   3
ATOM      3  O   UNL     1      -1.646 -11.053  16.729  0.00  0.00    -0.388 OA
ATOM     25  H   UNL     1      -1.026 -11.223  15.999  0.00  0.00    +0.210 HD
ENDBRANCH   8   3
BRANCH   7   5
ATOM      5  N   UNL     1      -2.449 -10.262  13.795  0.00  0.00    -0.305 NA
ATOM     24  H   UNL     1      -1.711  -9.743  14.271  0.00  0.00    +0.123 HD
BRANCH   5  12
ATOM     12  C   UNL     1      -1.878 -10.934  12.633  0.00  0.00    +0.116 C 
BRANCH  12  13
ATOM     13  C   UNL     1      -2.719 -10.732  11.401  0.00  0.00    -0.034 A 
ATOM     15  C   UNL     1      -2.816  -9.467  10.822  0.00  0.00    +0.005 A 
ATOM     16  C   UNL     1      -3.403 -11.810  10.839  0.00  0.00    +0.005 A 
ATOM     18  C   UNL     1      -3.596  -9.279   9.681  0.00  0.00    +0.000 A 
ATOM     19  C   UNL     1      -4.182 -11.623   9.697  0.00  0.00    +0.000 A 
ATOM     20  C   UNL     1      -4.279 -10.358   9.119  0.00  0.00    +0.000 A 
ENDBRANCH  12  13
ENDBRANCH   5  12
ENDBRANCH   7   5
BRANCH   9  11
ATOM     11  C   UNL     1      -4.553 -11.095  18.102  0.00  0.00    +0.138 C 
BRANCH  11   6
ATOM      4  O   UNL     1      -6.374 -10.804  20.303  0.00  0.00    -0.270 OA
ATOM      6  N   UNL     1      -5.972 -10.901  18.020  0.00  0.00    -0.308 N 
ATOM     14  C   UNL     1      -6.781 -10.770  19.145  0.00  0.00    +0.251 C 
ATOM     26  H   UNL     1      -6.381 -10.878  17.093  0.00  0.00    +0.149 HD
BRANCH  14  17
ATOM      1  S   UNL     1      -8.745  -9.691  17.534  0.00  0.00    -0.092 S 
ATOM     17  C   UNL     1      -8.235 -10.603  18.891  0.00  0.00    +0.074 A 
ATOM     21  C   UNL     1      -9.301 -11.091  19.615  0.00  0.00    +0.021 A 
ATOM     22  C   UNL     1     -10.552 -10.713  19.047  0.00  0.00    +0.008 A 
ATOM     23  C   UNL     1     -10.395  -9.949  17.911  0.00  0.00    +0.046 A 
ENDBRANCH  14  17
ENDBRANCH  11   6
ENDBRANCH   9  11
TORSDOF 7
ENDMDL
MODEL 8
REMARK VINA RESULT:      -6.1      2.770      4.308
REMARK  Name = 75536598
REMARK  7 active torsions:
REMARK  status: ('A' for Active; 'I' for Inactive)
REMARK    1  A    between atoms: O_3  and  C_8
REMARK    2  A    between atoms: N_5  and  C_7
REMARK    3  A    between atoms: N_5  and  C_12
REMARK    4  A    between atoms: N_6  and  C_11
REMARK    5  A    between atoms: C_9  and  C_11
REMARK    6  A    between atoms: C_12  and  C_13
REMARK    7  A    between atoms: C_14  and  C_17
REMARK                            x       y       z     vdW  Elec       q    Type
REMARK                         _______ _______ _______ _____ _____    ______ ____
ROOT
ATOM      2  O   UNL     1      15.870   6.241  19.029  0.00  0.00    -0.371 OA
ATOM      7  C   UNL     1      16.869   6.507  21.168  0.00  0.00    +0.111 C 
ATOM      8  C   UNL     1      15.541   7.242  21.147  0.00  0.00    +0.164 C 
ATOM      9  C   UNL     1      14.842   6.550  19.985  0.00  0.00    +0.165 C 
ATOM     10  C   UNL     1      17.147   6.347  19.682  0.00  0.00    +0.181 C 
ENDROOT
BRANCH   8   3
ATOM      3  O   UNL     1      14.821   7.101  22.356  0.00  0.00    -0.388 OA
ATOM     25  H   UNL     1      14.586   7.989  22.677  0.00  0.00    +0.210 HD
ENDBRANCH   8   3
BRANCH   7   5
ATOM      5  N   UNL     1      17.923   7.226  21.866  0.00  0.00    -0.305 NA
ATOM     24  H   UNL     1      18.366   6.596  22.535  0.00  0.00    +0.123 HD
BRANCH   5  12
ATOM     12  C   UNL     1      18.933   7.712  20.934  0.00  0.00    +0.116 C 
BRANCH  12  13
ATOM     13  C   UNL     1      20.312   7.237  21.306  0.00  0.00    -0.034 A 
ATOM     15  C   UNL     1      21.418   8.055  21.074  0.00  0.00    +0.005 A 
ATOM     16  C   UNL     1      20.485   5.978  21.880  0.00  0.00    +0.005 A 
ATOM     18  C   UNL     1      22.697   7.614  21.417  0.00  0.00    +0.000 A 
ATOM     19  C   UNL     1      21.763   5.537  22.224  0.00  0.00    +0.000 A 
ATOM     20  C   UNL     1      22.868   6.355  21.992  0.00  0.00    +0.000 A 
ENDBRANCH  12  13
ENDBRANCH   5  12
ENDBRANCH   7   5
BRANCH   9  11
ATOM     11  C   UNL     1      13.774   7.408  19.331  0.00  0.00    +0.138 C 
BRANCH  11   6
ATOM      4  O   UNL     1      11.039   8.164  19.767  0.00  0.00    -0.270 OA
ATOM      6  N   UNL     1      13.299   8.424  20.225  0.00  0.00    -0.308 N 
ATOM     14  C   UNL     1      11.948   8.725  20.374  0.00  0.00    +0.251 C 
ATOM     26  H   UNL     1      13.996   8.939  20.750  0.00  0.00    +0.149 HD
BRANCH  14  17
ATOM      1  S   UNL     1      10.890   9.436  22.821  0.00  0.00    -0.092 S 
ATOM     17  C   UNL     1      11.621   9.821  21.321  0.00  0.00    +0.074 A 
ATOM     21  C   UNL     1      11.822  11.177  21.177  0.00  0.00    +0.021 A 
ATOM     22  C   UNL     1      11.371  11.908  22.313  0.00  0.00    +0.008 A 
ATOM     23  C   UNL     1      10.841  11.085  23.283  0.00  0.00    +0.046 A 
ENDBRANCH  14  17
ENDBRANCH  11   6
ENDBRANCH   9  11
TORSDOF 7
ENDMDL
MODEL 9
REMARK VINA RESULT:      -6.1     26.462     28.960
REMARK  Name = 75536598
REMARK  7 active torsions:
REMARK  status: ('A' for Active; 'I' for Inactive)
REMARK    1  A    between atoms: O_3  and  C_8
REMARK    2  A    between atoms: N_5  and  C_7
REMARK    3  A    between atoms: N_5  and  C_12
REMARK    4  A    between atoms: N_6  and  C_11
REMARK    5  A    between atoms: C_9  and  C_11
REMARK    6  A    between atoms: C_12  and  C_13
REMARK    7  A    between atoms: C_14  and  C_17
REMARK                            x       y       z     vdW  Elec       q    Type
REMARK                         _______ _______ _______ _____ _____    ______ ____
ROOT
ATOM      2  O   UNL     1      -5.828 -11.052  18.528  0.00  0.00    -0.371 OA
ATOM      7  C   UNL     1      -7.743  -9.985  17.613  0.00  0.00    +0.111 C 
ATOM      8  C   UNL     1      -6.523  -9.597  16.797  0.00  0.00    +0.164 C 
ATOM      9  C   UNL     1      -5.562 -10.722  17.154  0.00  0.00    +0.165 C 
ATOM     10  C   UNL     1      -7.100 -10.489  18.895  0.00  0.00    +0.181 C 
ENDROOT
BRANCH   8   3
ATOM      3  O   UNL     1      -6.788  -9.548  15.409  0.00  0.00    -0.388 OA
ATOM     25  H   UNL     1      -7.720  -9.301  15.284  0.00  0.00    +0.210 HD
ENDBRANCH   8   3
BRANCH   7   5
ATOM      5  N   UNL     1      -8.668  -8.885  17.839  0.00  0.00    -0.305 NA
ATOM     24  H   UNL     1      -8.515  -8.172  17.126  0.00  0.00    +0.123 HD
BRANCH   5  12
ATOM     12  C   UNL     1     -10.052  -9.340  17.763  0.00  0.00    +0.116 C 
BRANCH  12  13
ATOM     13  C   UNL     1     -10.937  -8.329  17.085  0.00  0.00    -0.034 A 
ATOM     15  C   UNL     1     -12.288  -8.608  16.883  0.00  0.00    +0.005 A 
ATOM     16  C   UNL     1     -10.405  -7.113  16.657  0.00  0.00    +0.005 A 
ATOM     18  C   UNL     1     -13.108  -7.671  16.253  0.00  0.00    +0.000 A 
ATOM     19  C   UNL     1     -11.224  -6.175  16.028  0.00  0.00    +0.000 A 
ATOM     20  C   UNL     1     -12.575  -6.455  15.826  0.00  0.00    +0.000 A 
ENDBRANCH  12  13
ENDBRANCH   5  12
ENDBRANCH   7   5
BRANCH   9  11
ATOM     11  C   UNL     1      -4.102 -10.339  16.992  0.00  0.00    +0.138 C 
BRANCH  11   6
ATOM      4  O   UNL     1      -3.266 -12.266  15.035  0.00  0.00    -0.270 OA
ATOM      6  N   UNL     1      -3.779 -10.080  15.618  0.00  0.00    -0.308 N 
ATOM     14  C   UNL     1      -3.381 -11.080  14.737  0.00  0.00    +0.251 C 
ATOM     26  H   UNL     1      -3.838  -9.117  15.305  0.00  0.00    +0.149 HD
BRANCH  14  17
ATOM      1  S   UNL     1      -4.315 -10.530  12.199  0.00  0.00    -0.092 S 
ATOM     17  C   UNL     1      -3.056 -10.644  13.354  0.00  0.00    +0.074 A 
ATOM     21  C   UNL     1      -1.833 -10.299  12.822  0.00  0.00    +0.021 A 
ATOM     22  C   UNL     1      -1.931  -9.934  11.448  0.00  0.00    +0.008 A 
ATOM     23  C   UNL     1      -3.225 -10.015  10.982  0.00  0.00    +0.046 A 
ENDBRANCH  14  17
ENDBRANCH  11   6
ENDBRANCH   9  11
TORSDOF 7
ENDMDL
MODEL 10
REMARK VINA RESULT:      -6.0     27.564     29.206
REMARK  Name = 75536598
REMARK  7 active torsions:
REMARK  status: ('A' for Active; 'I' for Inactive)
REMARK    1  A    between atoms: O_3  and  C_8
REMARK    2  A    between atoms: N_5  and  C_7
REMARK    3  A    between atoms: N_5  and  C_12
REMARK    4  A    between atoms: N_6  and  C_11
REMARK    5  A    between atoms: C_9  and  C_11
REMARK    6  A    between atoms: C_12  and  C_13
REMARK    7  A    between atoms: C_14  and  C_17
REMARK                            x       y       z     vdW  Elec       q    Type
REMARK                         _______ _______ _______ _____ _____    ______ ____
ROOT
ATOM      2  O   UNL     1     -11.525  -8.035  14.104  0.00  0.00    -0.371 OA
ATOM      7  C   UNL     1      -9.899  -8.491  15.775  0.00  0.00    +0.111 C 
ATOM      8  C   UNL     1     -10.412  -7.074  15.957  0.00  0.00    +0.164 C 
ATOM      9  C   UNL     1     -11.738  -7.145  15.213  0.00  0.00    +0.165 C 
ATOM     10  C   UNL     1     -10.318  -8.780  14.343  0.00  0.00    +0.181 C 
ENDROOT
BRANCH   8   3
ATOM      3  O   UNL     1     -10.587  -6.729  17.317  0.00  0.00    -0.388 OA
ATOM     25  H   UNL     1     -10.454  -5.770  17.409  0.00  0.00    +0.210 HD
ENDBRANCH   8   3
BRANCH   7   5
ATOM      5  N   UNL     1      -8.465  -8.623  15.982  0.00  0.00    -0.305 NA
ATOM     24  H   UNL     1      -8.033  -7.701  15.912  0.00  0.00    +0.123 HD
BRANCH   5  12
ATOM     12  C   UNL     1      -8.174  -9.182  17.297  0.00  0.00    +0.116 C 
BRANCH  12  13
ATOM     13  C   UNL     1      -6.802  -9.797  17.353  0.00  0.00    -0.034 A 
ATOM     15  C   UNL     1      -5.940  -9.681  16.262  0.00  0.00    +0.005 A 
ATOM     16  C   UNL     1      -6.392 -10.486  18.494  0.00  0.00    +0.005 A 
ATOM     18  C   UNL     1      -4.669 -10.253  16.313  0.00  0.00    +0.000 A 
ATOM     19  C   UNL     1      -5.120 -11.057  18.546  0.00  0.00    +0.000 A 
ATOM     20  C   UNL     1      -4.259 -10.941  17.455  0.00  0.00    +0.000 A 
ENDBRANCH  12  13
ENDBRANCH   5  12
ENDBRANCH   7   5
BRANCH   9  11
ATOM     11  C   UNL     1     -12.213  -5.796  14.704  0.00  0.00    +0.138 C 
BRANCH  11   6
ATOM      4  O   UNL     1     -12.905  -3.543  13.064  0.00  0.00    -0.270 OA
ATOM      6  N   UNL     1     -11.965  -5.651  13.298  0.00  0.00    -0.308 N 
ATOM     14  C   UNL     1     -12.337  -4.518  12.580  0.00  0.00    +0.251 C 
ATOM     26  H   UNL     1     -11.511  -6.426  12.829  0.00  0.00    +0.149 HD
BRANCH  14  17
ATOM      1  S   UNL     1     -12.067  -6.026  10.285  0.00  0.00    -0.092 S 
ATOM     17  C   UNL     1     -12.033  -4.535  11.126  0.00  0.00    +0.074 A 
ATOM     21  C   UNL     1     -11.708  -3.482  10.299  0.00  0.00    +0.021 A 
ATOM     22  C   UNL     1     -11.485  -3.905   8.957  0.00  0.00    +0.008 A 
ATOM     23  C   UNL     1     -11.648  -5.265   8.809  0.00  0.00    +0.046 A 
ENDBRANCH  14  17
ENDBRANCH  11   6
ENDBRANCH   9  11
TORSDOF 7
ENDMDL
