MODEL 1
REMARK VINA RESULT:      -7.5      0.000      0.000
REMARK  Name = 51137095
REMARK  4 active torsions:
REMARK  status: ('A' for Active; 'I' for Inactive)
REMARK    1  A    between atoms: N_1  and  C_5
REMARK    2  A    between atoms: C_4  and  C_5
REMARK    3  A    between atoms: C_6  and  C_15
REMARK    4  A    between atoms: C_20  and  C_22
REMARK                            x       y       z     vdW  Elec       q    Type
REMARK                         _______ _______ _______ _____ _____    ______ ____
ROOT
ATOM      1  N   UNL     1      13.639   7.240  19.840  0.00  0.00    -0.301 NA
ATOM      6  C   UNL     1      12.199   8.223  21.409  0.00  0.00    +0.070 C 
ATOM      7  C   UNL     1      13.669   8.174  20.968  0.00  0.00    +0.095 C 
ATOM      8  C   UNL     1      12.453   7.616  19.070  0.00  0.00    +0.085 C 
ATOM     11  C   UNL     1      11.402   7.834  20.152  0.00  0.00    +0.028 C 
ENDROOT
BRANCH   6  15
ATOM      2  N   UNL     1      11.697   9.699  23.375  0.00  0.00    -0.342 N 
ATOM      3  N   UNL     1      11.551  10.665  21.379  0.00  0.00    -0.232 NA
ATOM     15  C   UNL     1      11.812   9.549  22.022  0.00  0.00    +0.113 A 
ATOM     16  C   UNL     1      11.338  10.999  23.622  0.00  0.00    +0.066 A 
ATOM     17  C   UNL     1      11.252  11.581  22.360  0.00  0.00    +0.089 A 
ATOM     18  C   UNL     1      11.087  11.696  24.806  0.00  0.00    +0.031 A 
ATOM     19  C   UNL     1      10.897  12.936  22.254  0.00  0.00    +0.030 A 
ATOM     20  C   UNL     1      10.736  13.043  24.681  0.00  0.00    -0.048 A 
ATOM     21  C   UNL     1      10.641  13.654  23.429  0.00  0.00    +0.005 A 
ATOM     22  C   UNL     1      10.455  13.843  25.911  0.00  0.00    +0.044 C 
ATOM     23  H   UNL     1      11.850   8.984  24.073  0.00  0.00    +0.167 HD
ENDBRANCH   6  15
BRANCH   1   5
ATOM      5  C   UNL     1      14.857   7.293  19.044  0.00  0.00    +0.088 C 
BRANCH   5   4
ATOM      4  C   UNL     1      16.017   6.625  19.778  0.00  0.00    +0.003 C 
ATOM      9  C   UNL     1      16.941   5.904  18.787  0.00  0.00    +0.005 C 
ATOM     10  C   UNL     1      16.798   7.653  20.605  0.00  0.00    +0.005 C 
ATOM     12  C   UNL     1      18.139   5.271  19.492  0.00  0.00    +0.000 C 
ATOM     13  C   UNL     1      17.997   7.018  21.308  0.00  0.00    +0.000 C 
ATOM     14  C   UNL     1      18.909   6.295  20.322  0.00  0.00    +0.000 C 
ENDBRANCH   5   4
ENDBRANCH   1   5
TORSDOF 3
ENDMDL
MODEL 2
REMARK VINA RESULT:      -7.4     16.293     18.878
REMARK  Name = 51137095
REMARK  4 active torsions:
REMARK  status: ('A' for Active; 'I' for Inactive)
REMARK    1  A    between atoms: N_1  and  C_5
REMARK    2  A    between atoms: C_4  and  C_5
REMARK    3  A    between atoms: C_6  and  C_15
REMARK    4  A    between atoms: C_20  and  C_22
REMARK                            x       y       z     vdW  Elec       q    Type
REMARK                         _______ _______ _______ _____ _____    ______ ____
ROOT
ATOM      1  N   UNL     1      11.908   4.189   1.495  0.00  0.00    -0.301 NA
ATOM      6  C   UNL     1      10.242   4.916   2.976  0.00  0.00    +0.070 C 
ATOM      7  C   UNL     1      11.284   3.809   2.764  0.00  0.00    +0.095 C 
ATOM      8  C   UNL     1      12.100   5.636   1.587  0.00  0.00    +0.085 C 
ATOM     11  C   UNL     1      10.780   6.116   2.178  0.00  0.00    +0.028 C 
ENDROOT
BRANCH   6  15
ATOM      2  N   UNL     1      10.166   4.239   5.392  0.00  0.00    -0.342 N 
ATOM      3  N   UNL     1       9.529   6.321   4.951  0.00  0.00    -0.232 NA
ATOM     15  C   UNL     1       9.967   5.195   4.436  0.00  0.00    +0.113 A 
ATOM     16  C   UNL     1       9.834   4.785   6.605  0.00  0.00    +0.066 A 
ATOM     17  C   UNL     1       9.440   6.085   6.303  0.00  0.00    +0.089 A 
ATOM     18  C   UNL     1       9.845   4.268   7.902  0.00  0.00    +0.031 A 
ATOM     19  C   UNL     1       9.028   6.934   7.344  0.00  0.00    +0.030 A 
ATOM     20  C   UNL     1       9.432   5.127   8.925  0.00  0.00    -0.048 A 
ATOM     21  C   UNL     1       9.030   6.437   8.653  0.00  0.00    +0.005 A 
ATOM     22  C   UNL     1       9.422   4.633  10.335  0.00  0.00    +0.044 C 
ATOM     23  H   UNL     1      10.499   3.296   5.237  0.00  0.00    +0.167 HD
ENDBRANCH   6  15
BRANCH   1   5
ATOM      5  C   UNL     1      13.156   3.478   1.256  0.00  0.00    +0.088 C 
BRANCH   5   4
ATOM      4  C   UNL     1      14.045   4.249   0.282  0.00  0.00    +0.003 C 
ATOM      9  C   UNL     1      15.527   4.036   0.615  0.00  0.00    +0.005 C 
ATOM     10  C   UNL     1      13.745   3.837  -1.165  0.00  0.00    +0.005 C 
ATOM     12  C   UNL     1      16.437   4.755  -0.378  0.00  0.00    +0.000 C 
ATOM     13  C   UNL     1      14.658   4.556  -2.157  0.00  0.00    +0.000 C 
ATOM     14  C   UNL     1      16.131   4.350  -1.817  0.00  0.00    +0.000 C 
ENDBRANCH   5   4
ENDBRANCH   1   5
TORSDOF 3
ENDMDL
MODEL 3
REMARK VINA RESULT:      -7.3     16.507     19.071
REMARK  Name = 51137095
REMARK  4 active torsions:
REMARK  status: ('A' for Active; 'I' for Inactive)
REMARK    1  A    between atoms: N_1  and  C_5
REMARK    2  A    between atoms: C_4  and  C_5
REMARK    3  A    between atoms: C_6  and  C_15
REMARK    4  A    between atoms: C_20  and  C_22
REMARK                            x       y       z     vdW  Elec       q    Type
REMARK                         _______ _______ _______ _____ _____    ______ ____
ROOT
ATOM      1  N   UNL     1      12.338   4.664   1.656  0.00  0.00    -0.301 NA
ATOM      6  C   UNL     1      10.639   5.511   3.032  0.00  0.00    +0.070 C 
ATOM      7  C   UNL     1      11.489   4.259   2.778  0.00  0.00    +0.095 C 
ATOM      8  C   UNL     1      12.767   6.025   1.979  0.00  0.00    +0.085 C 
ATOM     11  C   UNL     1      11.483   6.674   2.483  0.00  0.00    +0.028 C 
ENDROOT
BRANCH   6  15
ATOM      2  N   UNL     1      10.374   4.632   5.367  0.00  0.00    -0.342 N 
ATOM      3  N   UNL     1       9.688   6.720   5.037  0.00  0.00    -0.232 NA
ATOM     15  C   UNL     1      10.221   5.657   4.477  0.00  0.00    +0.113 A 
ATOM     16  C   UNL     1       9.909   5.062   6.584  0.00  0.00    +0.066 A 
ATOM     17  C   UNL     1       9.486   6.368   6.351  0.00  0.00    +0.089 A 
ATOM     18  C   UNL     1       9.825   4.439   7.831  0.00  0.00    +0.031 A 
ATOM     19  C   UNL     1       8.944   7.111   7.413  0.00  0.00    +0.030 A 
ATOM     20  C   UNL     1       9.283   5.194   8.876  0.00  0.00    -0.048 A 
ATOM     21  C   UNL     1       8.850   6.506   8.672  0.00  0.00    +0.005 A 
ATOM     22  C   UNL     1       9.166   4.584  10.234  0.00  0.00    +0.044 C 
ATOM     23  H   UNL     1      10.761   3.719   5.170  0.00  0.00    +0.167 HD
ENDBRANCH   6  15
BRANCH   1   5
ATOM      5  C   UNL     1      13.463   3.761   1.457  0.00  0.00    +0.088 C 
BRANCH   5   4
ATOM      4  C   UNL     1      13.676   3.476  -0.028  0.00  0.00    +0.003 C 
ATOM      9  C   UNL     1      12.331   3.366  -0.758  0.00  0.00    +0.005 C 
ATOM     10  C   UNL     1      14.558   4.557  -0.666  0.00  0.00    +0.005 C 
ATOM     12  C   UNL     1      12.519   3.133  -2.255  0.00  0.00    +0.000 C 
ATOM     13  C   UNL     1      14.743   4.322  -2.164  0.00  0.00    +0.000 C 
ATOM     14  C   UNL     1      13.403   4.206  -2.885  0.00  0.00    +0.000 C 
ENDBRANCH   5   4
ENDBRANCH   1   5
TORSDOF 3
ENDMDL
MODEL 4
REMARK VINA RESULT:      -7.1      3.833      9.779
REMARK  Name = 51137095
REMARK  4 active torsions:
REMARK  status: ('A' for Active; 'I' for Inactive)
REMARK    1  A    between atoms: N_1  and  C_5
REMARK    2  A    between atoms: C_4  and  C_5
REMARK    3  A    between atoms: C_6  and  C_15
REMARK    4  A    between atoms: C_20  and  C_22
REMARK                            x       y       z     vdW  Elec       q    Type
REMARK                         _______ _______ _______ _____ _____    ______ ____
ROOT
ATOM      1  N   UNL     1      16.227   7.550  20.309  0.00  0.00    -0.301 NA
ATOM      6  C   UNL     1      18.418   6.780  19.983  0.00  0.00    +0.070 C 
ATOM      7  C   UNL     1      17.528   7.535  20.981  0.00  0.00    +0.095 C 
ATOM      8  C   UNL     1      16.068   6.203  19.762  0.00  0.00    +0.085 C 
ATOM     11  C   UNL     1      17.442   5.915  19.167  0.00  0.00    +0.028 C 
ENDROOT
BRANCH   6  15
ATOM      2  N   UNL     1      20.066   4.891  20.088  0.00  0.00    -0.342 N 
ATOM      3  N   UNL     1      20.116   6.313  21.794  0.00  0.00    -0.232 NA
ATOM     15  C   UNL     1      19.537   6.017  20.653  0.00  0.00    +0.113 A 
ATOM     16  C   UNL     1      21.052   4.429  20.921  0.00  0.00    +0.066 A 
ATOM     17  C   UNL     1      21.064   5.333  21.978  0.00  0.00    +0.089 A 
ATOM     18  C   UNL     1      21.910   3.330  20.841  0.00  0.00    +0.031 A 
ATOM     19  C   UNL     1      21.979   5.146  23.029  0.00  0.00    +0.030 A 
ATOM     20  C   UNL     1      22.814   3.160  21.895  0.00  0.00    -0.048 A 
ATOM     21  C   UNL     1      22.849   4.051  22.970  0.00  0.00    +0.005 A 
ATOM     22  C   UNL     1      23.758   2.003  21.868  0.00  0.00    +0.044 C 
ATOM     23  H   UNL     1      19.784   4.470  19.212  0.00  0.00    +0.167 HD
ENDBRANCH   6  15
BRANCH   1   5
ATOM      5  C   UNL     1      15.142   7.915  21.209  0.00  0.00    +0.088 C 
BRANCH   5   4
ATOM      4  C   UNL     1      13.785   7.705  20.541  0.00  0.00    +0.003 C 
ATOM      9  C   UNL     1      12.706   7.400  21.589  0.00  0.00    +0.005 C 
ATOM     10  C   UNL     1      13.401   8.928  19.700  0.00  0.00    +0.005 C 
ATOM     12  C   UNL     1      11.329   7.238  20.949  0.00  0.00    +0.000 C 
ATOM     13  C   UNL     1      12.022   8.764  19.062  0.00  0.00    +0.000 C 
ATOM     14  C   UNL     1      10.953   8.453  20.106  0.00  0.00    +0.000 C 
ENDBRANCH   5   4
ENDBRANCH   1   5
TORSDOF 3
ENDMDL
MODEL 5
REMARK VINA RESULT:      -7.0     26.627     28.782
REMARK  Name = 51137095
REMARK  4 active torsions:
REMARK  status: ('A' for Active; 'I' for Inactive)
REMARK    1  A    between atoms: N_1  and  C_5
REMARK    2  A    between atoms: C_4  and  C_5
REMARK    3  A    between atoms: C_6  and  C_15
REMARK    4  A    between atoms: C_20  and  C_22
REMARK                            x       y       z     vdW  Elec       q    Type
REMARK                         _______ _______ _______ _____ _____    ______ ____
ROOT
ATOM      1  N   UNL     1     -13.985   6.215  21.582  0.00  0.00    -0.301 NA
ATOM      6  C   UNL     1     -15.657   4.954  22.636  0.00  0.00    +0.070 C 
ATOM      7  C   UNL     1     -14.211   4.875  22.126  0.00  0.00    +0.095 C 
ATOM      8  C   UNL     1     -14.571   7.126  22.564  0.00  0.00    +0.085 C 
ATOM     11  C   UNL     1     -15.894   6.450  22.906  0.00  0.00    +0.028 C 
ENDROOT
BRANCH   6  15
ATOM      2  N   UNL     1     -15.821   4.506  25.100  0.00  0.00    -0.342 N 
ATOM      3  N   UNL     1     -16.247   2.776  23.772  0.00  0.00    -0.232 NA
ATOM     15  C   UNL     1     -15.916   4.047  23.817  0.00  0.00    +0.113 A 
ATOM     16  C   UNL     1     -16.110   3.461  25.940  0.00  0.00    +0.066 A 
ATOM     17  C   UNL     1     -16.372   2.393  25.087  0.00  0.00    +0.089 A 
ATOM     18  C   UNL     1     -16.162   3.363  27.332  0.00  0.00    +0.031 A 
ATOM     19  C   UNL     1     -16.708   1.145  25.638  0.00  0.00    +0.030 A 
ATOM     20  C   UNL     1     -16.499   2.113  27.862  0.00  0.00    -0.048 A 
ATOM     21  C   UNL     1     -16.767   1.023  27.031  0.00  0.00    +0.005 A 
ATOM     22  C   UNL     1     -16.572   1.943  29.344  0.00  0.00    +0.044 C 
ATOM     23  H   UNL     1     -15.581   5.447  25.384  0.00  0.00    +0.167 HD
ENDBRANCH   6  15
BRANCH   1   5
ATOM      5  C   UNL     1     -12.574   6.487  21.346  0.00  0.00    +0.088 C 
BRANCH   5   4
ATOM      4  C   UNL     1     -12.394   7.493  20.212  0.00  0.00    +0.003 C 
ATOM      9  C   UNL     1     -11.882   8.834  20.753  0.00  0.00    +0.005 C 
ATOM     10  C   UNL     1     -11.446   6.938  19.141  0.00  0.00    +0.005 C 
ATOM     12  C   UNL     1     -11.644   9.842  19.630  0.00  0.00    +0.000 C 
ATOM     13  C   UNL     1     -11.209   7.948  18.020  0.00  0.00    +0.000 C 
ATOM     14  C   UNL     1     -10.708   9.283  18.562  0.00  0.00    +0.000 C 
ENDBRANCH   5   4
ENDBRANCH   1   5
TORSDOF 3
ENDMDL
MODEL 6
REMARK VINA RESULT:      -7.0      2.213      3.224
REMARK  Name = 51137095
REMARK  4 active torsions:
REMARK  status: ('A' for Active; 'I' for Inactive)
REMARK    1  A    between atoms: N_1  and  C_5
REMARK    2  A    between atoms: C_4  and  C_5
REMARK    3  A    between atoms: C_6  and  C_15
REMARK    4  A    between atoms: C_20  and  C_22
REMARK                            x       y       z     vdW  Elec       q    Type
REMARK                         _______ _______ _______ _____ _____    ______ ____
ROOT
ATOM      1  N   UNL     1      12.931   7.704  20.171  0.00  0.00    -0.301 NA
ATOM      6  C   UNL     1      11.711   8.723  21.894  0.00  0.00    +0.070 C 
ATOM      7  C   UNL     1      13.115   8.645  21.278  0.00  0.00    +0.095 C 
ATOM      8  C   UNL     1      11.667   8.095  19.548  0.00  0.00    +0.085 C 
ATOM     11  C   UNL     1      10.760   8.340  20.748  0.00  0.00    +0.028 C 
ENDROOT
BRANCH   6  15
ATOM      2  N   UNL     1      11.414  10.207  23.896  0.00  0.00    -0.342 N 
ATOM      3  N   UNL     1      11.162  11.189  21.919  0.00  0.00    -0.232 NA
ATOM     15  C   UNL     1      11.424  10.060  22.538  0.00  0.00    +0.113 A 
ATOM     16  C   UNL     1      11.127  11.519  24.173  0.00  0.00    +0.066 A 
ATOM     17  C   UNL     1      10.974  12.111  22.923  0.00  0.00    +0.089 A 
ATOM     18  C   UNL     1      10.992  12.218  25.374  0.00  0.00    +0.031 A 
ATOM     19  C   UNL     1      10.667  13.480  22.846  0.00  0.00    +0.030 A 
ATOM     20  C   UNL     1      10.687  13.580  25.279  0.00  0.00    -0.048 A 
ATOM     21  C   UNL     1      10.527  14.201  24.038  0.00  0.00    +0.005 A 
ATOM     22  C   UNL     1      10.530  14.383  26.529  0.00  0.00    +0.044 C 
ATOM     23  H   UNL     1      11.588   9.482  24.579  0.00  0.00    +0.167 HD
ENDBRANCH   6  15
BRANCH   1   5
ATOM      5  C   UNL     1      14.044   7.730  19.232  0.00  0.00    +0.088 C 
BRANCH   5   4
ATOM      4  C   UNL     1      13.796   8.749  18.121  0.00  0.00    +0.003 C 
ATOM      9  C   UNL     1      14.698   9.977  18.303  0.00  0.00    +0.005 C 
ATOM     10  C   UNL     1      14.011   8.111  16.743  0.00  0.00    +0.005 C 
ATOM     12  C   UNL     1      14.506  10.989  17.174  0.00  0.00    +0.000 C 
ATOM     13  C   UNL     1      13.821   9.125  15.616  0.00  0.00    +0.000 C 
ATOM     14  C   UNL     1      14.713  10.349  15.804  0.00  0.00    +0.000 C 
ENDBRANCH   5   4
ENDBRANCH   1   5
TORSDOF 3
ENDMDL
MODEL 7
REMARK VINA RESULT:      -6.9     14.285     15.928
REMARK  Name = 51137095
REMARK  4 active torsions:
REMARK  status: ('A' for Active; 'I' for Inactive)
REMARK    1  A    between atoms: N_1  and  C_5
REMARK    2  A    between atoms: C_4  and  C_5
REMARK    3  A    between atoms: C_6  and  C_15
REMARK    4  A    between atoms: C_20  and  C_22
REMARK                            x       y       z     vdW  Elec       q    Type
REMARK                         _______ _______ _______ _____ _____    ______ ____
ROOT
ATOM      1  N   UNL     1      16.299   8.676   5.321  0.00  0.00    -0.301 NA
ATOM      6  C   UNL     1      14.262   7.517   5.256  0.00  0.00    +0.070 C 
ATOM      7  C   UNL     1      15.446   7.847   6.175  0.00  0.00    +0.095 C 
ATOM      8  C   UNL     1      15.379   9.583   4.634  0.00  0.00    +0.085 C 
ATOM     11  C   UNL     1      14.236   8.661   4.227  0.00  0.00    +0.028 C 
ENDROOT
BRANCH   6  15
ATOM      2  N   UNL     1      12.809   6.268   6.877  0.00  0.00    -0.342 N 
ATOM      3  N   UNL     1      11.892   8.063   5.942  0.00  0.00    -0.232 NA
ATOM     15  C   UNL     1      12.968   7.313   6.011  0.00  0.00    +0.113 A 
ATOM     16  C   UNL     1      11.545   6.349   7.402  0.00  0.00    +0.066 A 
ATOM     17  C   UNL     1      10.993   7.478   6.803  0.00  0.00    +0.089 A 
ATOM     18  C   UNL     1      10.858   5.556   8.323  0.00  0.00    +0.031 A 
ATOM     19  C   UNL     1       9.678   7.852   7.129  0.00  0.00    +0.030 A 
ATOM     20  C   UNL     1       9.551   5.944   8.636  0.00  0.00    -0.048 A 
ATOM     21  C   UNL     1       8.970   7.071   8.050  0.00  0.00    +0.005 A 
ATOM     22  C   UNL     1       8.763   5.136   9.615  0.00  0.00    +0.044 C 
ATOM     23  H   UNL     1      13.497   5.560   7.095  0.00  0.00    +0.167 HD
ENDBRANCH   6  15
BRANCH   1   5
ATOM      5  C   UNL     1      17.317   9.389   6.080  0.00  0.00    +0.088 C 
BRANCH   5   4
ATOM      4  C   UNL     1      18.717   9.024   5.591  0.00  0.00    +0.003 C 
ATOM      9  C   UNL     1      19.550   8.423   6.730  0.00  0.00    +0.005 C 
ATOM     10  C   UNL     1      18.640   8.058   4.401  0.00  0.00    +0.005 C 
ATOM     12  C   UNL     1      20.938   8.001   6.252  0.00  0.00    +0.000 C 
ATOM     13  C   UNL     1      20.029   7.636   3.926  0.00  0.00    +0.000 C 
ATOM     14  C   UNL     1      20.858   7.047   5.064  0.00  0.00    +0.000 C 
ENDBRANCH   5   4
ENDBRANCH   1   5
TORSDOF 3
ENDMDL
MODEL 8
REMARK VINA RESULT:      -6.9     26.360     28.207
REMARK  Name = 51137095
REMARK  4 active torsions:
REMARK  status: ('A' for Active; 'I' for Inactive)
REMARK    1  A    between atoms: N_1  and  C_5
REMARK    2  A    between atoms: C_4  and  C_5
REMARK    3  A    between atoms: C_6  and  C_15
REMARK    4  A    between atoms: C_20  and  C_22
REMARK                            x       y       z     vdW  Elec       q    Type
REMARK                         _______ _______ _______ _____ _____    ______ ____
ROOT
ATOM      1  N   UNL     1      -2.166 -10.882  13.631  0.00  0.00    -0.301 NA
ATOM      6  C   UNL     1      -3.201 -10.271  15.644  0.00  0.00    +0.070 C 
ATOM      7  C   UNL     1      -3.497 -10.616  14.178  0.00  0.00    +0.095 C 
ATOM      8  C   UNL     1      -1.490 -11.682  14.652  0.00  0.00    +0.085 C 
ATOM     11  C   UNL     1      -1.860 -10.965  15.944  0.00  0.00    +0.028 C 
ENDROOT
BRANCH   6  15
ATOM      2  N   UNL     1      -5.499  -9.933  16.594  0.00  0.00    -0.342 N 
ATOM      3  N   UNL     1      -4.343 -11.630  17.442  0.00  0.00    -0.232 NA
ATOM     15  C   UNL     1      -4.331 -10.642  16.577  0.00  0.00    +0.113 A 
ATOM     16  C   UNL     1      -6.320 -10.503  17.533  0.00  0.00    +0.066 A 
ATOM     17  C   UNL     1      -5.575 -11.560  18.048  0.00  0.00    +0.089 A 
ATOM     18  C   UNL     1      -7.612 -10.194  17.962  0.00  0.00    +0.031 A 
ATOM     19  C   UNL     1      -6.136 -12.367  19.052  0.00  0.00    +0.030 A 
ATOM     20  C   UNL     1      -8.154 -11.008  18.962  0.00  0.00    -0.048 A 
ATOM     21  C   UNL     1      -7.431 -12.075  19.499  0.00  0.00    +0.005 A 
ATOM     22  C   UNL     1      -9.533 -10.728  19.464  0.00  0.00    +0.044 C 
ATOM     23  H   UNL     1      -5.723  -9.132  16.018  0.00  0.00    +0.167 HD
ENDBRANCH   6  15
BRANCH   1   5
ATOM      5  C   UNL     1      -2.220 -11.558  12.342  0.00  0.00    +0.088 C 
BRANCH   5   4
ATOM      4  C   UNL     1      -3.293 -10.941  11.448  0.00  0.00    +0.003 C 
ATOM      9  C   UNL     1      -2.748  -9.702  10.725  0.00  0.00    +0.005 C 
ATOM     10  C   UNL     1      -3.820 -11.973  10.443  0.00  0.00    +0.005 C 
ATOM     12  C   UNL     1      -3.786  -9.097   9.783  0.00  0.00    +0.000 C 
ATOM     13  C   UNL     1      -4.857 -11.365   9.501  0.00  0.00    +0.000 C 
ATOM     14  C   UNL     1      -4.315 -10.128   8.790  0.00  0.00    +0.000 C 
ENDBRANCH   5   4
ENDBRANCH   1   5
TORSDOF 3
ENDMDL
MODEL 9
REMARK VINA RESULT:      -6.9      4.252      7.753
REMARK  Name = 51137095
REMARK  4 active torsions:
REMARK  status: ('A' for Active; 'I' for Inactive)
REMARK    1  A    between atoms: N_1  and  C_5
REMARK    2  A    between atoms: C_4  and  C_5
REMARK    3  A    between atoms: C_6  and  C_15
REMARK    4  A    between atoms: C_20  and  C_22
REMARK                            x       y       z     vdW  Elec       q    Type
REMARK                         _______ _______ _______ _____ _____    ______ ____
ROOT
ATOM      1  N   UNL     1      21.386   5.183  21.551  0.00  0.00    -0.301 NA
ATOM      6  C   UNL     1      19.708   6.569  20.680  0.00  0.00    +0.070 C 
ATOM      7  C   UNL     1      20.157   5.104  20.758  0.00  0.00    +0.095 C 
ATOM      8  C   UNL     1      21.077   6.115  22.635  0.00  0.00    +0.085 C 
ATOM     11  C   UNL     1      20.336   7.236  21.916  0.00  0.00    +0.028 C 
ENDROOT
BRANCH   6  15
ATOM      2  N   UNL     1      17.456   7.139  21.631  0.00  0.00    -0.342 N 
ATOM      3  N   UNL     1      17.471   6.487  19.507  0.00  0.00    -0.232 NA
ATOM     15  C   UNL     1      18.208   6.721  20.570  0.00  0.00    +0.113 A 
ATOM     16  C   UNL     1      16.146   7.177  21.227  0.00  0.00    +0.066 A 
ATOM     17  C   UNL     1      16.183   6.765  19.898  0.00  0.00    +0.089 A 
ATOM     18  C   UNL     1      14.968   7.526  21.890  0.00  0.00    +0.031 A 
ATOM     19  C   UNL     1      14.982   6.691  19.171  0.00  0.00    +0.030 A 
ATOM     20  C   UNL     1      13.784   7.447  21.152  0.00  0.00    -0.048 A 
ATOM     21  C   UNL     1      13.788   7.037  19.817  0.00  0.00    +0.005 A 
ATOM     22  C   UNL     1      12.490   7.807  21.805  0.00  0.00    +0.044 C 
ATOM     23  H   UNL     1      17.800   7.379  22.552  0.00  0.00    +0.167 HD
ENDBRANCH   6  15
BRANCH   1   5
ATOM      5  C   UNL     1      21.811   3.880  22.045  0.00  0.00    +0.088 C 
BRANCH   5   4
ATOM      4  C   UNL     1      22.861   3.264  21.122  0.00  0.00    +0.003 C 
ATOM      9  C   UNL     1      23.773   4.351  20.538  0.00  0.00    +0.005 C 
ATOM     10  C   UNL     1      23.681   2.204  21.868  0.00  0.00    +0.005 C 
ATOM     12  C   UNL     1      24.865   3.754  19.653  0.00  0.00    +0.000 C 
ATOM     13  C   UNL     1      24.774   1.610  20.981  0.00  0.00    +0.000 C 
ATOM     14  C   UNL     1      25.674   2.693  20.395  0.00  0.00    +0.000 C 
ENDBRANCH   5   4
ENDBRANCH   1   5
TORSDOF 3
ENDMDL
MODEL 10
REMARK VINA RESULT:      -6.7     28.059     30.473
REMARK  Name = 51137095
REMARK  4 active torsions:
REMARK  status: ('A' for Active; 'I' for Inactive)
REMARK    1  A    between atoms: N_1  and  C_5
REMARK    2  A    between atoms: C_4  and  C_5
REMARK    3  A    between atoms: C_6  and  C_15
REMARK    4  A    between atoms: C_20  and  C_22
REMARK                            x       y       z     vdW  Elec       q    Type
REMARK                         _______ _______ _______ _____ _____    ______ ____
ROOT
ATOM      1  N   UNL     1     -12.246  -7.088  14.944  0.00  0.00    -0.301 NA
ATOM      6  C   UNL     1     -10.884  -8.103  16.561  0.00  0.00    +0.070 C 
ATOM      7  C   UNL     1     -11.404  -8.272  15.127  0.00  0.00    +0.095 C 
ATOM      8  C   UNL     1     -11.481  -5.986  15.528  0.00  0.00    +0.085 C 
ATOM     11  C   UNL     1     -10.956  -6.589  16.826  0.00  0.00    +0.028 C 
ENDROOT
BRANCH   6  15
ATOM      2  N   UNL     1      -9.177  -9.296  17.961  0.00  0.00    -0.342 N 
ATOM      3  N   UNL     1      -8.544  -8.784  15.893  0.00  0.00    -0.232 NA
ATOM     15  C   UNL     1      -9.521  -8.720  16.770  0.00  0.00    +0.113 A 
ATOM     16  C   UNL     1      -7.892  -9.762  17.844  0.00  0.00    +0.066 A 
ATOM     17  C   UNL     1      -7.520  -9.430  16.545  0.00  0.00    +0.089 A 
ATOM     18  C   UNL     1      -7.050 -10.426  18.738  0.00  0.00    +0.031 A 
ATOM     19  C   UNL     1      -6.235  -9.773  16.093  0.00  0.00    +0.030 A 
ATOM     20  C   UNL     1      -5.775 -10.760  18.271  0.00  0.00    -0.048 A 
ATOM     21  C   UNL     1      -5.372 -10.439  16.972  0.00  0.00    +0.005 A 
ATOM     22  C   UNL     1      -4.826 -11.472  19.179  0.00  0.00    +0.044 C 
ATOM     23  H   UNL     1      -9.761  -9.368  18.783  0.00  0.00    +0.167 HD
ENDBRANCH   6  15
BRANCH   1   5
ATOM      5  C   UNL     1     -12.577  -6.853  13.546  0.00  0.00    +0.088 C 
BRANCH   5   4
ATOM      4  C   UNL     1     -12.879  -5.377  13.298  0.00  0.00    +0.003 C 
ATOM      9  C   UNL     1     -12.188  -4.890  12.017  0.00  0.00    +0.005 C 
ATOM     10  C   UNL     1     -14.393  -5.139  13.227  0.00  0.00    +0.005 C 
ATOM     12  C   UNL     1     -12.518  -3.429  11.719  0.00  0.00    +0.000 C 
ATOM     13  C   UNL     1     -14.720  -3.677  12.927  0.00  0.00    +0.000 C 
ATOM     14  C   UNL     1     -14.025  -3.194  11.658  0.00  0.00    +0.000 C 
ENDBRANCH   5   4
ENDBRANCH   1   5
TORSDOF 3
ENDMDL
