MODEL 1
REMARK VINA RESULT:      -6.2      0.000      0.000
REMARK  Name = 51136788
REMARK  8 active torsions:
REMARK  status: ('A' for Active; 'I' for Inactive)
REMARK    1  A    between atoms: O_3  and  C_18
REMARK    2  A    between atoms: N_7  and  C_23
REMARK    3  A    between atoms: C_8  and  C_13
REMARK    4  A    between atoms: C_9  and  C_14
REMARK    5  A    between atoms: C_13  and  C_15
REMARK    6  A    between atoms: C_14  and  C_18
REMARK    7  A    between atoms: C_23  and  C_27
REMARK    8  A    between atoms: C_27  and  C_28
REMARK                            x       y       z     vdW  Elec       q    Type
REMARK                         _______ _______ _______ _____ _____    ______ ____
ROOT
ATOM      2  O   UNL     1      10.449   8.530  21.831  0.00  0.00    -0.253 OA
ATOM      5  N   UNL     1      12.670   7.867  21.881  0.00  0.00    -0.285 N 
ATOM      7  N   UNL     1      11.953   9.850  22.952  0.00  0.00    -0.299 N 
ATOM      8  C   UNL     1      14.988   8.108  21.037  0.00  0.00    +0.016 C 
ATOM      9  C   UNL     1      14.749   6.871  20.131  0.00  0.00    +0.006 C 
ATOM     10  C   UNL     1      13.256   6.676  19.811  0.00  0.00    +0.023 C 
ATOM     11  C   UNL     1      14.078   8.026  22.274  0.00  0.00    +0.113 C 
ATOM     12  C   UNL     1      12.407   6.670  21.083  0.00  0.00    +0.109 C 
ATOM     16  C   UNL     1      11.611   8.733  22.199  0.00  0.00    +0.302 C 
ATOM     29  H   UNL     1      12.905  10.029  23.233  0.00  0.00    +0.150 HD
ENDROOT
BRANCH   8  13
ATOM     13  C   UNL     1      14.798   9.451  20.321  0.00  0.00    +0.061 C 
BRANCH  13  15
ATOM      1  F   UNL     1      11.801  14.941  22.119  0.00  0.00    -0.205 F 
ATOM      6  N   UNL     1      16.361  10.486  21.823  0.00  0.00    -0.287 NA
ATOM     15  C   UNL     1      15.216  10.581  21.231  0.00  0.00    +0.044 C 
ATOM     17  C   UNL     1      14.298  11.734  21.407  0.00  0.00    -0.001 A 
ATOM     19  C   UNL     1      14.520  12.554  22.521  0.00  0.00    -0.034 A 
ATOM     20  C   UNL     1      15.641  12.210  23.455  0.00  0.00    +0.059 C 
ATOM     21  C   UNL     1      16.793  11.610  22.660  0.00  0.00    +0.146 C 
ATOM     22  C   UNL     1      13.246  12.004  20.528  0.00  0.00    +0.013 A 
ATOM     24  C   UNL     1      13.665  13.633  22.765  0.00  0.00    +0.042 A 
ATOM     25  C   UNL     1      12.408  13.092  20.771  0.00  0.00    +0.039 A 
ATOM     26  C   UNL     1      12.615  13.903  21.888  0.00  0.00    +0.124 A 
ENDBRANCH  13  15
ENDBRANCH   8  13
BRANCH   9  14
ATOM     14  C   UNL     1      15.576   6.898  18.846  0.00  0.00    +0.124 C 
BRANCH  14  18
ATOM      4  O   UNL     1      17.735   6.360  19.840  0.00  0.00    -0.251 OA
ATOM     18  C   UNL     1      16.871   6.150  19.003  0.00  0.00    +0.305 C 
BRANCH  18   3
ATOM      3  O   UNL     1      16.955   5.178  18.059  0.00  0.00    -0.481 OA
ATOM     30  H   UNL     1      17.350   4.354  18.416  0.00  0.00    +0.295 HD
ENDBRANCH  18   3
ENDBRANCH  14  18
ENDBRANCH   9  14
BRANCH   7  23
ATOM     23  C   UNL     1      10.975  10.837  23.349  0.00  0.00    +0.105 C 
BRANCH  23  27
ATOM     27  C   UNL     1      11.286  11.447  24.712  0.00  0.00    +0.015 C 
ATOM     28  C   UNL     1      10.649  12.817  24.902  0.00  0.00    +0.005 C 
ENDBRANCH  23  27
ENDBRANCH   7  23
TORSDOF 7
ENDMDL
MODEL 2
REMARK VINA RESULT:      -6.0     26.700     29.038
REMARK  Name = 51136788
REMARK  8 active torsions:
REMARK  status: ('A' for Active; 'I' for Inactive)
REMARK    1  A    between atoms: O_3  and  C_18
REMARK    2  A    between atoms: N_7  and  C_23
REMARK    3  A    between atoms: C_8  and  C_13
REMARK    4  A    between atoms: C_9  and  C_14
REMARK    5  A    between atoms: C_13  and  C_15
REMARK    6  A    between atoms: C_14  and  C_18
REMARK    7  A    between atoms: C_23  and  C_27
REMARK    8  A    between atoms: C_27  and  C_28
REMARK                            x       y       z     vdW  Elec       q    Type
REMARK                         _______ _______ _______ _____ _____    ______ ____
ROOT
ATOM      2  O   UNL     1      -7.992 -11.604  18.595  0.00  0.00    -0.253 OA
ATOM      5  N   UNL     1      -6.374 -10.418  17.433  0.00  0.00    -0.285 N 
ATOM      7  N   UNL     1      -8.576 -10.640  16.599  0.00  0.00    -0.299 N 
ATOM      8  C   UNL     1      -4.733 -10.303  15.579  0.00  0.00    +0.016 C 
ATOM      9  C   UNL     1      -3.611 -10.629  16.600  0.00  0.00    +0.006 C 
ATOM     10  C   UNL     1      -4.151 -11.396  17.819  0.00  0.00    +0.023 C 
ATOM     11  C   UNL     1      -5.901  -9.609  16.300  0.00  0.00    +0.113 C 
ATOM     12  C   UNL     1      -5.350 -10.682  18.444  0.00  0.00    +0.109 C 
ATOM     16  C   UNL     1      -7.670 -10.930  17.611  0.00  0.00    +0.302 C 
ATOM     29  H   UNL     1      -8.307 -10.109  15.783  0.00  0.00    +0.150 HD
ENDROOT
BRANCH   8  13
ATOM     13  C   UNL     1      -5.237 -11.522  14.795  0.00  0.00    +0.061 C 
BRANCH  13  15
ATOM      1  F   UNL     1      -5.374  -7.546   9.644  0.00  0.00    -0.205 F 
ATOM      6  N   UNL     1      -3.748 -12.570  13.228  0.00  0.00    -0.287 NA
ATOM     15  C   UNL     1      -4.553 -11.584  13.450  0.00  0.00    +0.044 C 
ATOM     17  C   UNL     1      -4.830 -10.514  12.458  0.00  0.00    -0.001 A 
ATOM     19  C   UNL     1      -3.916 -10.380  11.404  0.00  0.00    -0.034 A 
ATOM     20  C   UNL     1      -2.732 -11.298  11.356  0.00  0.00    +0.059 C 
ATOM     21  C   UNL     1      -3.131 -12.663  11.901  0.00  0.00    +0.146 C 
ATOM     22  C   UNL     1      -5.930  -9.660  12.554  0.00  0.00    +0.013 A 
ATOM     24  C   UNL     1      -4.098  -9.365  10.459  0.00  0.00    +0.042 A 
ATOM     25  C   UNL     1      -6.112  -8.662  11.597  0.00  0.00    +0.039 A 
ATOM     26  C   UNL     1      -5.197  -8.513  10.554  0.00  0.00    +0.124 A 
ENDBRANCH  13  15
ENDBRANCH   8  13
BRANCH   9  14
ATOM     14  C   UNL     1      -2.429 -11.372  15.976  0.00  0.00    +0.124 C 
BRANCH  14  18
ATOM      4  O   UNL     1      -1.514  -9.878  14.282  0.00  0.00    -0.251 OA
ATOM     18  C   UNL     1      -1.431 -10.422  15.372  0.00  0.00    +0.305 C 
BRANCH  18   3
ATOM      3  O   UNL     1      -0.393 -10.245  16.228  0.00  0.00    -0.481 OA
ATOM     30  H   UNL     1      -0.571 -10.641  17.108  0.00  0.00    +0.295 HD
ENDBRANCH  18   3
ENDBRANCH  14  18
ENDBRANCH   9  14
BRANCH   7  23
ATOM     23  C   UNL     1      -9.944 -11.105  16.634  0.00  0.00    +0.105 C 
BRANCH  23  27
ATOM     27  C   UNL     1     -10.947  -9.958  16.610  0.00  0.00    +0.015 C 
ATOM     28  C   UNL     1     -10.793  -9.017  17.797  0.00  0.00    +0.005 C 
ENDBRANCH  23  27
ENDBRANCH   7  23
TORSDOF 7
ENDMDL
MODEL 3
REMARK VINA RESULT:      -6.0     27.154     29.390
REMARK  Name = 51136788
REMARK  8 active torsions:
REMARK  status: ('A' for Active; 'I' for Inactive)
REMARK    1  A    between atoms: O_3  and  C_18
REMARK    2  A    between atoms: N_7  and  C_23
REMARK    3  A    between atoms: C_8  and  C_13
REMARK    4  A    between atoms: C_9  and  C_14
REMARK    5  A    between atoms: C_13  and  C_15
REMARK    6  A    between atoms: C_14  and  C_18
REMARK    7  A    between atoms: C_23  and  C_27
REMARK    8  A    between atoms: C_27  and  C_28
REMARK                            x       y       z     vdW  Elec       q    Type
REMARK                         _______ _______ _______ _____ _____    ______ ____
ROOT
ATOM      2  O   UNL     1      -1.216  -9.634  12.663  0.00  0.00    -0.253 OA
ATOM      5  N   UNL     1      -2.546 -11.118  13.848  0.00  0.00    -0.285 N 
ATOM      7  N   UNL     1      -3.172 -10.347  11.703  0.00  0.00    -0.299 N 
ATOM      8  C   UNL     1      -4.543 -11.537  15.255  0.00  0.00    +0.016 C 
ATOM      9  C   UNL     1      -3.621 -11.530  16.503  0.00  0.00    +0.006 C 
ATOM     10  C   UNL     1      -2.341 -10.710  16.265  0.00  0.00    +0.023 C 
ATOM     11  C   UNL     1      -3.734 -11.966  14.019  0.00  0.00    +0.113 C 
ATOM     12  C   UNL     1      -1.626 -11.147  14.987  0.00  0.00    +0.109 C 
ATOM     16  C   UNL     1      -2.240 -10.322  12.732  0.00  0.00    +0.302 C 
ATOM     29  H   UNL     1      -4.020 -10.890  11.768  0.00  0.00    +0.150 HD
ENDROOT
BRANCH   8  13
ATOM     13  C   UNL     1      -5.251 -10.202  14.994  0.00  0.00    +0.061 C 
BRANCH  13  15
ATOM      1  F   UNL     1     -10.852  -8.241  17.667  0.00  0.00    -0.205 F 
ATOM      6  N   UNL     1      -6.928 -11.150  13.560  0.00  0.00    -0.287 NA
ATOM     15  C   UNL     1      -6.693 -10.451  14.620  0.00  0.00    +0.044 C 
ATOM     17  C   UNL     1      -7.762  -9.879  15.478  0.00  0.00    -0.001 A 
ATOM     19  C   UNL     1      -9.042  -9.790  14.915  0.00  0.00    -0.034 A 
ATOM     20  C   UNL     1      -9.242 -10.254  13.503  0.00  0.00    +0.059 C 
ATOM     21  C   UNL     1      -8.327 -11.442  13.230  0.00  0.00    +0.146 C 
ATOM     22  C   UNL     1      -7.529  -9.431  16.779  0.00  0.00    +0.013 A 
ATOM     24  C   UNL     1     -10.083  -9.223  15.656  0.00  0.00    +0.042 A 
ATOM     25  C   UNL     1      -8.578  -8.882  17.517  0.00  0.00    +0.039 A 
ATOM     26  C   UNL     1      -9.851  -8.776  16.956  0.00  0.00    +0.124 A 
ENDBRANCH  13  15
ENDBRANCH   8  13
BRANCH   9  14
ATOM     14  C   UNL     1      -4.333 -11.061  17.773  0.00  0.00    +0.124 C 
BRANCH  14  18
ATOM      4  O   UNL     1      -3.459 -12.084  19.805  0.00  0.00    -0.251 OA
ATOM     18  C   UNL     1      -4.246 -12.085  18.870  0.00  0.00    +0.305 C 
BRANCH  18   3
ATOM      3  O   UNL     1      -5.187 -13.044  18.677  0.00  0.00    -0.481 OA
ATOM     30  H   UNL     1      -5.575 -13.352  19.525  0.00  0.00    +0.295 HD
ENDBRANCH  18   3
ENDBRANCH  14  18
ENDBRANCH   9  14
BRANCH   7  23
ATOM     23  C   UNL     1      -3.003  -9.574  10.493  0.00  0.00    +0.105 C 
BRANCH  23  27
ATOM     27  C   UNL     1      -4.229  -8.729  10.167  0.00  0.00    +0.015 C 
ATOM     28  C   UNL     1      -5.328  -8.860  11.213  0.00  0.00    +0.005 C 
ENDBRANCH  23  27
ENDBRANCH   7  23
TORSDOF 7
ENDMDL
MODEL 4
REMARK VINA RESULT:      -5.8      2.948      6.189
REMARK  Name = 51136788
REMARK  8 active torsions:
REMARK  status: ('A' for Active; 'I' for Inactive)
REMARK    1  A    between atoms: O_3  and  C_18
REMARK    2  A    between atoms: N_7  and  C_23
REMARK    3  A    between atoms: C_8  and  C_13
REMARK    4  A    between atoms: C_9  and  C_14
REMARK    5  A    between atoms: C_13  and  C_15
REMARK    6  A    between atoms: C_14  and  C_18
REMARK    7  A    between atoms: C_23  and  C_27
REMARK    8  A    between atoms: C_27  and  C_28
REMARK                            x       y       z     vdW  Elec       q    Type
REMARK                         _______ _______ _______ _____ _____    ______ ____
ROOT
ATOM      2  O   UNL     1      12.470   6.557  19.390  0.00  0.00    -0.253 OA
ATOM      5  N   UNL     1      12.240   8.797  19.941  0.00  0.00    -0.285 N 
ATOM      7  N   UNL     1      14.235   7.964  18.984  0.00  0.00    -0.299 N 
ATOM      8  C   UNL     1      12.718  10.674  21.488  0.00  0.00    +0.016 C 
ATOM      9  C   UNL     1      11.302  10.487  22.095  0.00  0.00    +0.006 C 
ATOM     10  C   UNL     1      10.783   9.051  21.905  0.00  0.00    +0.023 C 
ATOM     11  C   UNL     1      12.724  10.183  20.031  0.00  0.00    +0.113 C 
ATOM     12  C   UNL     1      10.879   8.609  20.445  0.00  0.00    +0.109 C 
ATOM     16  C   UNL     1      12.948   7.696  19.433  0.00  0.00    +0.302 C 
ATOM     29  H   UNL     1      14.635   8.889  19.040  0.00  0.00    +0.150 HD
ENDROOT
BRANCH   8  13
ATOM     13  C   UNL     1      13.834   9.990  22.288  0.00  0.00    +0.061 C 
BRANCH  13  15
ATOM      1  F   UNL     1      20.146   9.817  20.711  0.00  0.00    -0.205 F 
ATOM      6  N   UNL     1      14.686  12.075  23.122  0.00  0.00    -0.287 NA
ATOM     15  C   UNL     1      14.964  10.963  22.526  0.00  0.00    +0.044 C 
ATOM     17  C   UNL     1      16.328  10.601  22.063  0.00  0.00    -0.001 A 
ATOM     19  C   UNL     1      17.251  11.648  21.944  0.00  0.00    -0.034 A 
ATOM     20  C   UNL     1      16.806  13.042  22.270  0.00  0.00    +0.059 C 
ATOM     21  C   UNL     1      15.793  12.994  23.407  0.00  0.00    +0.146 C 
ATOM     22  C   UNL     1      16.695   9.293  21.742  0.00  0.00    +0.013 A 
ATOM     24  C   UNL     1      18.541  11.380  21.474  0.00  0.00    +0.042 A 
ATOM     25  C   UNL     1      17.989   9.033  21.290  0.00  0.00    +0.039 A 
ATOM     26  C   UNL     1      18.908  10.073  21.153  0.00  0.00    +0.124 A 
ENDBRANCH  13  15
ENDBRANCH   8  13
BRANCH   9  14
ATOM     14  C   UNL     1      11.219  10.901  23.564  0.00  0.00    +0.124 C 
BRANCH  14  18
ATOM      4  O   UNL     1      11.704  13.289  23.561  0.00  0.00    -0.251 OA
ATOM     18  C   UNL     1      10.918  12.366  23.713  0.00  0.00    +0.305 C 
BRANCH  18   3
ATOM      3  O   UNL     1       9.614  12.534  24.051  0.00  0.00    -0.481 OA
ATOM     30  H   UNL     1       9.473  13.353  24.572  0.00  0.00    +0.295 HD
ENDBRANCH  18   3
ENDBRANCH  14  18
ENDBRANCH   9  14
BRANCH   7  23
ATOM     23  C   UNL     1      15.091   6.932  18.443  0.00  0.00    +0.105 C 
BRANCH  23  27
ATOM     27  C   UNL     1      15.986   6.304  19.505  0.00  0.00    +0.015 C 
ATOM     28  C   UNL     1      17.310   5.808  18.939  0.00  0.00    +0.005 C 
ENDBRANCH  23  27
ENDBRANCH   7  23
TORSDOF 7
ENDMDL
MODEL 5
REMARK VINA RESULT:      -5.8     15.957     18.226
REMARK  Name = 51136788
REMARK  8 active torsions:
REMARK  status: ('A' for Active; 'I' for Inactive)
REMARK    1  A    between atoms: O_3  and  C_18
REMARK    2  A    between atoms: N_7  and  C_23
REMARK    3  A    between atoms: C_8  and  C_13
REMARK    4  A    between atoms: C_9  and  C_14
REMARK    5  A    between atoms: C_13  and  C_15
REMARK    6  A    between atoms: C_14  and  C_18
REMARK    7  A    between atoms: C_23  and  C_27
REMARK    8  A    between atoms: C_27  and  C_28
REMARK                            x       y       z     vdW  Elec       q    Type
REMARK                         _______ _______ _______ _____ _____    ______ ____
ROOT
ATOM      2  O   UNL     1       9.538  11.394   6.056  0.00  0.00    -0.253 OA
ATOM      5  N   UNL     1      10.523   9.368   6.601  0.00  0.00    -0.285 N 
ATOM      7  N   UNL     1      10.605  10.224   4.398  0.00  0.00    -0.299 N 
ATOM      8  C   UNL     1      10.456   6.890   6.584  0.00  0.00    +0.016 C 
ATOM      9  C   UNL     1       9.969   6.930   8.057  0.00  0.00    +0.006 C 
ATOM     10  C   UNL     1       9.257   8.253   8.389  0.00  0.00    +0.023 C 
ATOM     11  C   UNL     1      11.284   8.151   6.281  0.00  0.00    +0.113 C 
ATOM     12  C   UNL     1      10.111   9.460   8.001  0.00  0.00    +0.109 C 
ATOM     16  C   UNL     1      10.181  10.398   5.709  0.00  0.00    +0.302 C 
ATOM     29  H   UNL     1      11.111   9.399   4.109  0.00  0.00    +0.150 HD
ENDROOT
BRANCH   8  13
ATOM     13  C   UNL     1       9.328   6.731   5.558  0.00  0.00    +0.061 C 
BRANCH  13  15
ATOM      1  F   UNL     1       9.201   8.760  -0.625  0.00  0.00    -0.205 F 
ATOM      6  N   UNL     1      10.531   5.022   4.374  0.00  0.00    -0.287 NA
ATOM     15  C   UNL     1       9.874   6.131   4.285  0.00  0.00    +0.044 C 
ATOM     17  C   UNL     1       9.639   6.841   3.002  0.00  0.00    -0.001 A 
ATOM     19  C   UNL     1      10.462   6.488   1.925  0.00  0.00    -0.034 A 
ATOM     20  C   UNL     1      11.519   5.446   2.138  0.00  0.00    +0.059 C 
ATOM     21  C   UNL     1      11.010   4.409   3.131  0.00  0.00    +0.146 C 
ATOM     22  C   UNL     1       8.662   7.828   2.852  0.00  0.00    +0.013 A 
ATOM     24  C   UNL     1      10.319   7.149   0.701  0.00  0.00    +0.042 A 
ATOM     25  C   UNL     1       8.515   8.470   1.622  0.00  0.00    +0.039 A 
ATOM     26  C   UNL     1       9.343   8.134   0.551  0.00  0.00    +0.124 A 
ENDBRANCH  13  15
ENDBRANCH   8  13
BRANCH   9  14
ATOM     14  C   UNL     1       9.090   5.736   8.431  0.00  0.00    +0.124 C 
BRANCH  14  18
ATOM      4  O   UNL     1      10.045   4.679  10.408  0.00  0.00    -0.251 OA
ATOM     18  C   UNL     1       9.858   4.698   9.201  0.00  0.00    +0.305 C 
BRANCH  18   3
ATOM      3  O   UNL     1      10.332   3.755   8.349  0.00  0.00    -0.481 OA
ATOM     30  H   UNL     1      11.276   3.903   8.126  0.00  0.00    +0.295 HD
ENDBRANCH  18   3
ENDBRANCH  14  18
ENDBRANCH   9  14
BRANCH   7  23
ATOM     23  C   UNL     1      10.322  11.193   3.363  0.00  0.00    +0.105 C 
BRANCH  23  27
ATOM     27  C   UNL     1      11.150  10.958   2.105  0.00  0.00    +0.015 C 
ATOM     28  C   UNL     1      12.224   9.895   2.298  0.00  0.00    +0.005 C 
ENDBRANCH  23  27
ENDBRANCH   7  23
TORSDOF 7
ENDMDL
MODEL 6
REMARK VINA RESULT:      -5.7     15.691     18.112
REMARK  Name = 51136788
REMARK  8 active torsions:
REMARK  status: ('A' for Active; 'I' for Inactive)
REMARK    1  A    between atoms: O_3  and  C_18
REMARK    2  A    between atoms: N_7  and  C_23
REMARK    3  A    between atoms: C_8  and  C_13
REMARK    4  A    between atoms: C_9  and  C_14
REMARK    5  A    between atoms: C_13  and  C_15
REMARK    6  A    between atoms: C_14  and  C_18
REMARK    7  A    between atoms: C_23  and  C_27
REMARK    8  A    between atoms: C_27  and  C_28
REMARK                            x       y       z     vdW  Elec       q    Type
REMARK                         _______ _______ _______ _____ _____    ______ ____
ROOT
ATOM      2  O   UNL     1       8.430  10.044   5.410  0.00  0.00    -0.253 OA
ATOM      5  N   UNL     1       9.963   8.804   6.628  0.00  0.00    -0.285 N 
ATOM      7  N   UNL     1      10.467   9.595   4.458  0.00  0.00    -0.299 N 
ATOM      8  C   UNL     1      11.091   6.640   7.064  0.00  0.00    +0.016 C 
ATOM      9  C   UNL     1      10.122   6.416   8.255  0.00  0.00    +0.006 C 
ATOM     10  C   UNL     1       8.803   7.187   8.073  0.00  0.00    +0.023 C 
ATOM     11  C   UNL     1      11.265   8.148   6.819  0.00  0.00    +0.113 C 
ATOM     12  C   UNL     1       9.055   8.663   7.767  0.00  0.00    +0.109 C 
ATOM     16  C   UNL     1       9.545   9.520   5.495  0.00  0.00    +0.302 C 
ATOM     29  H   UNL     1      11.369   9.147   4.516  0.00  0.00    +0.150 HD
ENDROOT
BRANCH   8  13
ATOM     13  C   UNL     1      10.666   5.933   5.772  0.00  0.00    +0.061 C 
BRANCH  13  15
ATOM      1  F   UNL     1      10.913   4.159  -0.486  0.00  0.00    -0.205 F 
ATOM      6  N   UNL     1      12.643   7.023   4.950  0.00  0.00    -0.287 NA
ATOM     15  C   UNL     1      11.654   6.239   4.671  0.00  0.00    +0.044 C 
ATOM     17  C   UNL     1      11.440   5.635   3.331  0.00  0.00    -0.001 A 
ATOM     19  C   UNL     1      12.120   6.225   2.258  0.00  0.00    -0.034 A 
ATOM     20  C   UNL     1      12.991   7.416   2.525  0.00  0.00    +0.059 C 
ATOM     21  C   UNL     1      13.634   7.272   3.898  0.00  0.00    +0.146 C 
ATOM     22  C   UNL     1      10.597   4.542   3.121  0.00  0.00    +0.013 A 
ATOM     24  C   UNL     1      11.930   5.730   0.965  0.00  0.00    +0.042 A 
ATOM     25  C   UNL     1      10.427   4.044   1.829  0.00  0.00    +0.039 A 
ATOM     26  C   UNL     1      11.089   4.638   0.753  0.00  0.00    +0.124 A 
ENDBRANCH  13  15
ENDBRANCH   8  13
BRANCH   9  14
ATOM     14  C   UNL     1       9.848   4.938   8.536  0.00  0.00    +0.124 C 
BRANCH  14  18
ATOM      4  O   UNL     1       8.323   4.446  10.373  0.00  0.00    -0.251 OA
ATOM     18  C   UNL     1       9.445   4.709   9.966  0.00  0.00    +0.305 C 
BRANCH  18   3
ATOM      3  O   UNL     1      10.529   4.837  10.773  0.00  0.00    -0.481 OA
ATOM     30  H   UNL     1      10.999   5.686  10.624  0.00  0.00    +0.295 HD
ENDBRANCH  18   3
ENDBRANCH  14  18
ENDBRANCH   9  14
BRANCH   7  23
ATOM     23  C   UNL     1      10.179  10.289   3.223  0.00  0.00    +0.105 C 
BRANCH  23  27
ATOM     27  C   UNL     1      10.035   9.336   2.041  0.00  0.00    +0.015 C 
ATOM     28  C   UNL     1       8.996   8.250   2.285  0.00  0.00    +0.005 C 
ENDBRANCH  23  27
ENDBRANCH   7  23
TORSDOF 7
ENDMDL
MODEL 7
REMARK VINA RESULT:      -5.7     28.050     30.282
REMARK  Name = 51136788
REMARK  8 active torsions:
REMARK  status: ('A' for Active; 'I' for Inactive)
REMARK    1  A    between atoms: O_3  and  C_18
REMARK    2  A    between atoms: N_7  and  C_23
REMARK    3  A    between atoms: C_8  and  C_13
REMARK    4  A    between atoms: C_9  and  C_14
REMARK    5  A    between atoms: C_13  and  C_15
REMARK    6  A    between atoms: C_14  and  C_18
REMARK    7  A    between atoms: C_23  and  C_27
REMARK    8  A    between atoms: C_27  and  C_28
REMARK                            x       y       z     vdW  Elec       q    Type
REMARK                         _______ _______ _______ _____ _____    ______ ____
ROOT
ATOM      2  O   UNL     1      -9.810  -9.733  13.181  0.00  0.00    -0.253 OA
ATOM      5  N   UNL     1      -9.057  -9.385  15.346  0.00  0.00    -0.285 N 
ATOM      7  N   UNL     1      -7.559  -9.450  13.518  0.00  0.00    -0.299 N 
ATOM      8  C   UNL     1      -7.984 -10.268  17.399  0.00  0.00    +0.016 C 
ATOM      9  C   UNL     1      -9.395 -10.422  18.027  0.00  0.00    +0.006 C 
ATOM     10  C   UNL     1     -10.485 -10.580  16.952  0.00  0.00    +0.023 C 
ATOM     11  C   UNL     1      -8.008  -9.145  16.348  0.00  0.00    +0.113 C 
ATOM     12  C   UNL     1     -10.406  -9.468  15.907  0.00  0.00    +0.109 C 
ATOM     16  C   UNL     1      -8.873  -9.533  13.962  0.00  0.00    +0.302 C 
ATOM     29  H   UNL     1      -6.791  -9.310  14.157  0.00  0.00    +0.150 HD
ENDROOT
BRANCH   8  13
ATOM     13  C   UNL     1      -7.427 -11.560  16.790  0.00  0.00    +0.061 C 
BRANCH  13  15
ATOM      1  F   UNL     1      -1.644 -10.190  14.137  0.00  0.00    -0.205 F 
ATOM      6  N   UNL     1      -5.852 -12.317  18.438  0.00  0.00    -0.287 NA
ATOM     15  C   UNL     1      -6.014 -11.786  17.272  0.00  0.00    +0.044 C 
ATOM     17  C   UNL     1      -4.887 -11.384  16.392  0.00  0.00    -0.001 A 
ATOM     19  C   UNL     1      -3.632 -11.242  17.000  0.00  0.00    -0.034 A 
ATOM     20  C   UNL     1      -3.514 -11.485  18.474  0.00  0.00    +0.059 C 
ATOM     21  C   UNL     1      -4.481 -12.591  18.881  0.00  0.00    +0.146 C 
ATOM     22  C   UNL     1      -5.044 -11.138  15.027  0.00  0.00    +0.013 A 
ATOM     24  C   UNL     1      -2.539 -10.826  16.234  0.00  0.00    +0.042 A 
ATOM     25  C   UNL     1      -3.943 -10.740  14.268  0.00  0.00    +0.039 A 
ATOM     26  C   UNL     1      -2.695 -10.581  14.870  0.00  0.00    +0.124 A 
ENDBRANCH  13  15
ENDBRANCH   8  13
BRANCH   9  14
ATOM     14  C   UNL     1      -9.477 -11.557  19.048  0.00  0.00    +0.124 C 
BRANCH  14  18
ATOM      4  O   UNL     1     -11.471 -11.949  20.394  0.00  0.00    -0.251 OA
ATOM     18  C   UNL     1     -10.493 -11.270  20.118  0.00  0.00    +0.305 C 
BRANCH  18   3
ATOM      3  O   UNL     1     -10.169 -10.119  20.760  0.00  0.00    -0.481 OA
ATOM     30  H   UNL     1     -10.158  -9.350  20.150  0.00  0.00    +0.295 HD
ENDBRANCH  18   3
ENDBRANCH  14  18
ENDBRANCH   9  14
BRANCH   7  23
ATOM     23  C   UNL     1      -7.209  -9.591  12.123  0.00  0.00    +0.105 C 
BRANCH  23  27
ATOM     27  C   UNL     1      -5.977  -8.775  11.748  0.00  0.00    +0.015 C 
ATOM     28  C   UNL     1      -5.093  -9.479  10.728  0.00  0.00    +0.005 C 
ENDBRANCH  23  27
ENDBRANCH   7  23
TORSDOF 7
ENDMDL
MODEL 8
REMARK VINA RESULT:      -5.5     17.466     19.770
REMARK  Name = 51136788
REMARK  8 active torsions:
REMARK  status: ('A' for Active; 'I' for Inactive)
REMARK    1  A    between atoms: O_3  and  C_18
REMARK    2  A    between atoms: N_7  and  C_23
REMARK    3  A    between atoms: C_8  and  C_13
REMARK    4  A    between atoms: C_9  and  C_14
REMARK    5  A    between atoms: C_13  and  C_15
REMARK    6  A    between atoms: C_14  and  C_18
REMARK    7  A    between atoms: C_23  and  C_27
REMARK    8  A    between atoms: C_27  and  C_28
REMARK                            x       y       z     vdW  Elec       q    Type
REMARK                         _______ _______ _______ _____ _____    ______ ____
ROOT
ATOM      2  O   UNL     1       6.652  10.219   4.724  0.00  0.00    -0.253 OA
ATOM      5  N   UNL     1       8.685   9.158   5.066  0.00  0.00    -0.285 N 
ATOM      7  N   UNL     1       8.083  10.011   2.944  0.00  0.00    -0.299 N 
ATOM      8  C   UNL     1      10.102   7.137   4.837  0.00  0.00    +0.016 C 
ATOM      9  C   UNL     1       9.795   6.798   6.319  0.00  0.00    +0.006 C 
ATOM     10  C   UNL     1       8.462   7.413   6.783  0.00  0.00    +0.023 C 
ATOM     11  C   UNL     1       9.994   8.656   4.623  0.00  0.00    +0.113 C 
ATOM     12  C   UNL     1       8.401   8.909   6.480  0.00  0.00    +0.109 C 
ATOM     16  C   UNL     1       7.735   9.825   4.276  0.00  0.00    +0.302 C 
ATOM     29  H   UNL     1       8.957   9.669   2.572  0.00  0.00    +0.150 HD
ENDROOT
BRANCH   8  13
ATOM     13  C   UNL     1       9.218   6.390   3.830  0.00  0.00    +0.061 C 
BRANCH  13  15
ATOM      1  F   UNL     1      13.140   2.790   0.086  0.00  0.00    -0.205 F 
ATOM      6  N   UNL     1       9.365   7.646   1.787  0.00  0.00    -0.287 NA
ATOM     15  C   UNL     1       9.750   6.594   2.431  0.00  0.00    +0.044 C 
ATOM     17  C   UNL     1      10.676   5.581   1.864  0.00  0.00    -0.001 A 
ATOM     19  C   UNL     1      10.839   5.584   0.473  0.00  0.00    -0.034 A 
ATOM     20  C   UNL     1      10.070   6.582  -0.340  0.00  0.00    +0.059 C 
ATOM     21  C   UNL     1       9.928   7.875   0.453  0.00  0.00    +0.146 C 
ATOM     22  C   UNL     1      11.353   4.650   2.655  0.00  0.00    +0.013 A 
ATOM     24  C   UNL     1      11.666   4.629  -0.127  0.00  0.00    +0.042 A 
ATOM     25  C   UNL     1      12.188   3.711   2.049  0.00  0.00    +0.039 A 
ATOM     26  C   UNL     1      12.343   3.699   0.662  0.00  0.00    +0.124 A 
ENDBRANCH  13  15
ENDBRANCH   8  13
BRANCH   9  14
ATOM     14  C   UNL     1       9.826   5.297   6.611  0.00  0.00    +0.124 C 
BRANCH  14  18
ATOM      4  O   UNL     1      10.882   5.814   8.746  0.00  0.00    -0.251 OA
ATOM     18  C   UNL     1      10.376   5.008   7.980  0.00  0.00    +0.305 C 
BRANCH  18   3
ATOM      3  O   UNL     1      10.230   3.689   8.263  0.00  0.00    -0.481 OA
ATOM     30  H   UNL     1      10.238   3.518   9.229  0.00  0.00    +0.295 HD
ENDBRANCH  18   3
ENDBRANCH  14  18
ENDBRANCH   9  14
BRANCH   7  23
ATOM     23  C   UNL     1       7.205  10.672   2.005  0.00  0.00    +0.105 C 
BRANCH  23  27
ATOM     27  C   UNL     1       6.350   9.687   1.216  0.00  0.00    +0.015 C 
ATOM     28  C   UNL     1       6.572   9.788  -0.287  0.00  0.00    +0.005 C 
ENDBRANCH  23  27
ENDBRANCH   7  23
TORSDOF 7
ENDMDL
MODEL 9
REMARK VINA RESULT:      -5.4     17.036     19.086
REMARK  Name = 51136788
REMARK  8 active torsions:
REMARK  status: ('A' for Active; 'I' for Inactive)
REMARK    1  A    between atoms: O_3  and  C_18
REMARK    2  A    between atoms: N_7  and  C_23
REMARK    3  A    between atoms: C_8  and  C_13
REMARK    4  A    between atoms: C_9  and  C_14
REMARK    5  A    between atoms: C_13  and  C_15
REMARK    6  A    between atoms: C_14  and  C_18
REMARK    7  A    between atoms: C_23  and  C_27
REMARK    8  A    between atoms: C_27  and  C_28
REMARK                            x       y       z     vdW  Elec       q    Type
REMARK                         _______ _______ _______ _____ _____    ______ ____
ROOT
ATOM      2  O   UNL     1       9.922   9.385   0.323  0.00  0.00    -0.253 OA
ATOM      5  N   UNL     1      10.400   7.164   0.783  0.00  0.00    -0.285 N 
ATOM      7  N   UNL     1       8.854   8.386   2.090  0.00  0.00    -0.299 N 
ATOM      8  C   UNL     1      11.583   5.477   2.162  0.00  0.00    +0.016 C 
ATOM      9  C   UNL     1      12.653   5.366   1.043  0.00  0.00    +0.006 C 
ATOM     10  C   UNL     1      12.732   6.650   0.197  0.00  0.00    +0.023 C 
ATOM     11  C   UNL     1      10.243   5.919   1.551  0.00  0.00    +0.113 C 
ATOM     12  C   UNL     1      11.355   7.064  -0.321  0.00  0.00    +0.109 C 
ATOM     16  C   UNL     1       9.736   8.379   1.016  0.00  0.00    +0.302 C 
ATOM     29  H   UNL     1       8.719   7.572   2.671  0.00  0.00    +0.150 HD
ENDROOT
BRANCH   8  13
ATOM     13  C   UNL     1      11.979   6.408   3.314  0.00  0.00    +0.061 C 
BRANCH  13  15
ATOM      1  F   UNL     1       8.822  10.817   6.913  0.00  0.00    -0.205 F 
ATOM      6  N   UNL     1      10.638   5.076   4.796  0.00  0.00    -0.287 NA
ATOM     15  C   UNL     1      10.992   6.269   4.448  0.00  0.00    +0.044 C 
ATOM     17  C   UNL     1      10.473   7.499   5.098  0.00  0.00    -0.001 A 
ATOM     19  C   UNL     1       9.301   7.367   5.854  0.00  0.00    -0.034 A 
ATOM     20  C   UNL     1       8.650   6.020   5.943  0.00  0.00    +0.059 C 
ATOM     21  C   UNL     1       9.725   4.940   5.936  0.00  0.00    +0.146 C 
ATOM     22  C   UNL     1      11.094   8.743   4.966  0.00  0.00    +0.013 A 
ATOM     24  C   UNL     1       8.738   8.496   6.458  0.00  0.00    +0.042 A 
ATOM     25  C   UNL     1      10.534   9.861   5.586  0.00  0.00    +0.039 A 
ATOM     26  C   UNL     1       9.358   9.738   6.328  0.00  0.00    +0.124 A 
ENDBRANCH  13  15
ENDBRANCH   8  13
BRANCH   9  14
ATOM     14  C   UNL     1      14.036   4.983   1.571  0.00  0.00    +0.124 C 
BRANCH  14  18
ATOM      4  O   UNL     1      13.321   2.654   1.526  0.00  0.00    -0.251 OA
ATOM     18  C   UNL     1      14.197   3.492   1.678  0.00  0.00    +0.305 C 
BRANCH  18   3
ATOM      3  O   UNL     1      15.486   3.191   1.976  0.00  0.00    -0.481 OA
ATOM     30  H   UNL     1      16.118   3.680   1.406  0.00  0.00    +0.295 HD
ENDBRANCH  18   3
ENDBRANCH  14  18
ENDBRANCH   9  14
BRANCH   7  23
ATOM     23  C   UNL     1       8.104   9.564   2.461  0.00  0.00    +0.105 C 
BRANCH  23  27
ATOM     27  C   UNL     1       6.989   9.254   3.453  0.00  0.00    +0.015 C 
ATOM     28  C   UNL     1       6.472  10.498   4.164  0.00  0.00    +0.005 C 
ENDBRANCH  23  27
ENDBRANCH   7  23
TORSDOF 7
ENDMDL
MODEL 10
REMARK VINA RESULT:      -5.4      2.179      5.231
REMARK  Name = 51136788
REMARK  8 active torsions:
REMARK  status: ('A' for Active; 'I' for Inactive)
REMARK    1  A    between atoms: O_3  and  C_18
REMARK    2  A    between atoms: N_7  and  C_23
REMARK    3  A    between atoms: C_8  and  C_13
REMARK    4  A    between atoms: C_9  and  C_14
REMARK    5  A    between atoms: C_13  and  C_15
REMARK    6  A    between atoms: C_14  and  C_18
REMARK    7  A    between atoms: C_23  and  C_27
REMARK    8  A    between atoms: C_27  and  C_28
REMARK                            x       y       z     vdW  Elec       q    Type
REMARK                         _______ _______ _______ _____ _____    ______ ____
ROOT
ATOM      2  O   UNL     1      16.865   6.794  21.585  0.00  0.00    -0.253 OA
ATOM      5  N   UNL     1      15.342   7.887  20.221  0.00  0.00    -0.285 N 
ATOM      7  N   UNL     1      17.193   9.023  21.157  0.00  0.00    -0.299 N 
ATOM      8  C   UNL     1      13.400   9.408  19.982  0.00  0.00    +0.016 C 
ATOM      9  C   UNL     1      12.489   8.162  19.823  0.00  0.00    +0.006 C 
ATOM     10  C   UNL     1      13.098   6.918  20.493  0.00  0.00    +0.023 C 
ATOM     11  C   UNL     1      14.825   9.068  19.515  0.00  0.00    +0.113 C 
ATOM     12  C   UNL     1      14.536   6.681  20.030  0.00  0.00    +0.109 C 
ATOM     16  C   UNL     1      16.493   7.830  21.023  0.00  0.00    +0.302 C 
ATOM     29  H   UNL     1      16.877   9.875  20.717  0.00  0.00    +0.150 HD
ENDROOT
BRANCH   8  13
ATOM     13  C   UNL     1      13.425   9.985  21.403  0.00  0.00    +0.061 C 
BRANCH  13  15
ATOM      1  F   UNL     1      10.299  13.322  26.034  0.00  0.00    -0.205 F 
ATOM      6  N   UNL     1      12.889  12.069  20.338  0.00  0.00    -0.287 NA
ATOM     15  C   UNL     1      12.796  11.357  21.411  0.00  0.00    +0.044 C 
ATOM     17  C   UNL     1      12.111  11.821  22.645  0.00  0.00    -0.001 A 
ATOM     19  C   UNL     1      11.887  13.199  22.761  0.00  0.00    -0.034 A 
ATOM     20  C   UNL     1      12.358  14.101  21.660  0.00  0.00    +0.059 C 
ATOM     21  C   UNL     1      12.227  13.378  20.325  0.00  0.00    +0.146 C 
ATOM     22  C   UNL     1      11.712  10.951  23.661  0.00  0.00    +0.013 A 
ATOM     24  C   UNL     1      11.283  13.705  23.916  0.00  0.00    +0.042 A 
ATOM     25  C   UNL     1      11.095  11.463  24.803  0.00  0.00    +0.039 A 
ATOM     26  C   UNL     1      10.884  12.837  24.931  0.00  0.00    +0.124 A 
ENDBRANCH  13  15
ENDBRANCH   8  13
BRANCH   9  14
ATOM     14  C   UNL     1      11.061   8.395  20.317  0.00  0.00    +0.124 C 
BRANCH  14  18
ATOM      4  O   UNL     1      10.779   7.976  22.701  0.00  0.00    -0.251 OA
ATOM     18  C   UNL     1      10.757   7.582  21.545  0.00  0.00    +0.305 C 
BRANCH  18   3
ATOM      3  O   UNL     1      10.446   6.311  21.186  0.00  0.00    -0.481 OA
ATOM     30  H   UNL     1       9.681   5.964  21.694  0.00  0.00    +0.295 HD
ENDBRANCH  18   3
ENDBRANCH  14  18
ENDBRANCH   9  14
BRANCH   7  23
ATOM     23  C   UNL     1      18.392   9.125  21.957  0.00  0.00    +0.105 C 
BRANCH  23  27
ATOM     27  C   UNL     1      19.650   8.788  21.164  0.00  0.00    +0.015 C 
ATOM     28  C   UNL     1      20.344   7.530  21.669  0.00  0.00    +0.005 C 
ENDBRANCH  23  27
ENDBRANCH   7  23
TORSDOF 7
ENDMDL
