MODEL 1
REMARK VINA RESULT:      -6.7      0.000      0.000
REMARK  Name = 38031193
REMARK  13 active torsions:
REMARK  status: ('A' for Active; 'I' for Inactive)
REMARK    1  A    between atoms: O_1  and  C_21
REMARK    2  A    between atoms: N_3  and  C_11
REMARK    3  A    between atoms: C_6  and  C_10
REMARK    4  A    between atoms: C_7  and  C_11
REMARK    5  A    between atoms: C_9  and  C_14
REMARK    6  A    between atoms: C_10  and  C_17
REMARK    7  A    between atoms: C_10  and  C_18
REMARK    8  A    between atoms: C_13  and  C_22
REMARK    9  A    between atoms: C_14  and  C_23
REMARK   10  A    between atoms: C_24  and  C_25
REMARK   11  A    between atoms: C_25  and  C_26
REMARK   12  A    between atoms: C_25  and  C_27
REMARK   13  A    between atoms: C_25  and  C_28
REMARK                            x       y       z     vdW  Elec       q    Type
REMARK                         _______ _______ _______ _____ _____    ______ ____
ROOT
ATOM      6  C   UNL     1      15.449   8.996  20.783  0.00  0.00    +0.000 C 
ATOM      7  C   UNL     1      14.550   7.979  20.042  0.00  0.00    +0.029 C 
ATOM      8  C   UNL     1      16.570   8.271  21.540  0.00  0.00    +0.012 C 
ATOM      9  C   UNL     1      17.445   7.379  20.633  0.00  0.00    +0.024 C 
ATOM     12  C   UNL     1      15.345   6.910  19.336  0.00  0.00    -0.023 C 
ATOM     13  C   UNL     1      16.641   6.635  19.577  0.00  0.00    -0.073 C 
ATOM     22  C   UNL     1      17.363   5.604  18.754  0.00  0.00    +0.039 C 
ENDROOT
BRANCH   6  10
ATOM     10  C   UNL     1      16.019  10.045  19.819  0.00  0.00    -0.013 C 
ATOM     17  C   UNL     1      14.899  10.684  19.004  0.00  0.00    +0.007 C 
ATOM     18  C   UNL     1      16.802  11.105  20.588  0.00  0.00    +0.007 C 
ENDBRANCH   6  10
BRANCH   7  11
ATOM     11  C   UNL     1      13.545   7.316  20.989  0.00  0.00    +0.092 C 
BRANCH  11   3
ATOM      3  N   UNL     1      12.198   7.364  20.426  0.00  0.00    -0.302 NA
ATOM     15  C   UNL     1      11.172   6.974  21.403  0.00  0.00    +0.087 C 
ATOM     16  C   UNL     1      11.893   8.670  19.823  0.00  0.00    +0.087 C 
ATOM     19  C   UNL     1      10.900   8.030  22.476  0.00  0.00    +0.046 C 
ATOM     20  C   UNL     1      11.645   9.784  20.842  0.00  0.00    +0.046 C 
ATOM     21  C   UNL     1      10.572   9.382  21.851  0.00  0.00    +0.117 C 
BRANCH  21   1
ATOM      1  O   UNL     1      10.485  10.360  22.881  0.00  0.00    -0.392 OA
ATOM     29  H   UNL     1      10.258   9.896  23.705  0.00  0.00    +0.210 HD
ENDBRANCH  21   1
ENDBRANCH  11   3
ENDBRANCH   7  11
BRANCH   9  14
ATOM     14  C   UNL     1      18.276   6.443  21.520  0.00  0.00    +0.105 C 
BRANCH  14  23
ATOM      2  O   UNL     1      20.512   5.469  21.587  0.00  0.00    -0.424 OA
ATOM      4  N   UNL     1      20.393   7.414  20.489  0.00  0.00    -0.112 NA
ATOM      5  N   UNL     1      21.704   6.979  20.448  0.00  0.00    -0.112 NA
ATOM     23  C   UNL     1      19.733   6.502  21.164  0.00  0.00    +0.218 A 
ATOM     24  C   UNL     1      21.728   5.841  21.101  0.00  0.00    +0.223 A 
BRANCH  24  25
ATOM     25  C   UNL     1      22.854   4.938  21.368  0.00  0.00    +0.040 C 
ATOM     26  C   UNL     1      22.443   3.430  21.234  0.00  0.00    +0.020 C 
ATOM     27  C   UNL     1      23.427   5.123  22.817  0.00  0.00    +0.020 C 
ATOM     28  C   UNL     1      24.105   5.091  20.424  0.00  0.00    +0.020 C 
ENDBRANCH  24  25
ENDBRANCH  14  23
ENDBRANCH   9  14
TORSDOF 7
ENDMDL
MODEL 2
REMARK VINA RESULT:      -6.3      2.548      4.224
REMARK  Name = 38031193
REMARK  13 active torsions:
REMARK  status: ('A' for Active; 'I' for Inactive)
REMARK    1  A    between atoms: O_1  and  C_21
REMARK    2  A    between atoms: N_3  and  C_11
REMARK    3  A    between atoms: C_6  and  C_10
REMARK    4  A    between atoms: C_7  and  C_11
REMARK    5  A    between atoms: C_9  and  C_14
REMARK    6  A    between atoms: C_10  and  C_17
REMARK    7  A    between atoms: C_10  and  C_18
REMARK    8  A    between atoms: C_13  and  C_22
REMARK    9  A    between atoms: C_14  and  C_23
REMARK   10  A    between atoms: C_24  and  C_25
REMARK   11  A    between atoms: C_25  and  C_26
REMARK   12  A    between atoms: C_25  and  C_27
REMARK   13  A    between atoms: C_25  and  C_28
REMARK                            x       y       z     vdW  Elec       q    Type
REMARK                         _______ _______ _______ _____ _____    ______ ____
ROOT
ATOM      6  C   UNL     1      13.361   9.172  18.519  0.00  0.00    +0.000 C 
ATOM      7  C   UNL     1      12.121   9.546  19.364  0.00  0.00    +0.029 C 
ATOM      8  C   UNL     1      14.351   8.346  19.352  0.00  0.00    +0.012 C 
ATOM      9  C   UNL     1      13.730   7.064  19.948  0.00  0.00    +0.024 C 
ATOM     12  C   UNL     1      11.609   8.389  20.185  0.00  0.00    -0.023 C 
ATOM     13  C   UNL     1      12.307   7.268  20.446  0.00  0.00    -0.073 C 
ATOM     22  C   UNL     1      11.668   6.137  21.204  0.00  0.00    +0.039 C 
ENDROOT
BRANCH   6  10
ATOM     10  C   UNL     1      12.960   8.428  17.237  0.00  0.00    -0.013 C 
ATOM     17  C   UNL     1      11.733   9.079  16.606  0.00  0.00    +0.007 C 
ATOM     18  C   UNL     1      14.125   8.401  16.252  0.00  0.00    +0.007 C 
ENDBRANCH   6  10
BRANCH   7  11
ATOM     11  C   UNL     1      12.403  10.733  20.289  0.00  0.00    +0.092 C 
BRANCH  11   3
ATOM      3  N   UNL     1      12.198  10.357  21.687  0.00  0.00    -0.302 NA
ATOM     15  C   UNL     1      13.449  10.371  22.456  0.00  0.00    +0.087 C 
ATOM     16  C   UNL     1      11.162  11.173  22.335  0.00  0.00    +0.087 C 
ATOM     19  C   UNL     1      13.968  11.774  22.776  0.00  0.00    +0.046 C 
ATOM     20  C   UNL     1      11.603  12.604  22.651  0.00  0.00    +0.046 C 
ATOM     21  C   UNL     1      12.897  12.618  23.460  0.00  0.00    +0.117 C 
BRANCH  21   1
ATOM      1  O   UNL     1      13.373  13.953  23.591  0.00  0.00    -0.392 OA
ATOM     29  H   UNL     1      13.041  14.300  24.437  0.00  0.00    +0.210 HD
ENDBRANCH  21   1
ENDBRANCH  11   3
ENDBRANCH   7  11
BRANCH   9  14
ATOM     14  C   UNL     1      14.670   6.522  21.032  0.00  0.00    +0.105 C 
BRANCH  14  23
ATOM      2  O   UNL     1      17.057   6.901  21.365  0.00  0.00    -0.424 OA
ATOM      4  N   UNL     1      16.545   5.961  19.401  0.00  0.00    -0.112 NA
ATOM      5  N   UNL     1      17.917   6.115  19.456  0.00  0.00    -0.112 NA
ATOM     23  C   UNL     1      16.084   6.433  20.536  0.00  0.00    +0.218 A 
ATOM     24  C   UNL     1      18.172   6.668  20.618  0.00  0.00    +0.223 A 
BRANCH  24  25
ATOM     25  C   UNL     1      19.458   7.055  21.209  0.00  0.00    +0.040 C 
ATOM     26  C   UNL     1      19.630   8.612  21.279  0.00  0.00    +0.020 C 
ATOM     27  C   UNL     1      20.674   6.503  20.386  0.00  0.00    +0.020 C 
ATOM     28  C   UNL     1      19.722   6.563  22.682  0.00  0.00    +0.020 C 
ENDBRANCH  24  25
ENDBRANCH  14  23
ENDBRANCH   9  14
TORSDOF 7
ENDMDL
MODEL 3
REMARK VINA RESULT:      -6.1     26.928     30.242
REMARK  Name = 38031193
REMARK  13 active torsions:
REMARK  status: ('A' for Active; 'I' for Inactive)
REMARK    1  A    between atoms: O_1  and  C_21
REMARK    2  A    between atoms: N_3  and  C_11
REMARK    3  A    between atoms: C_6  and  C_10
REMARK    4  A    between atoms: C_7  and  C_11
REMARK    5  A    between atoms: C_9  and  C_14
REMARK    6  A    between atoms: C_10  and  C_17
REMARK    7  A    between atoms: C_10  and  C_18
REMARK    8  A    between atoms: C_13  and  C_22
REMARK    9  A    between atoms: C_14  and  C_23
REMARK   10  A    between atoms: C_24  and  C_25
REMARK   11  A    between atoms: C_25  and  C_26
REMARK   12  A    between atoms: C_25  and  C_27
REMARK   13  A    between atoms: C_25  and  C_28
REMARK                            x       y       z     vdW  Elec       q    Type
REMARK                         _______ _______ _______ _____ _____    ______ ____
ROOT
ATOM      6  C   UNL     1      -3.856 -11.952  12.261  0.00  0.00    +0.000 C 
ATOM      7  C   UNL     1      -2.910 -11.398  13.351  0.00  0.00    +0.029 C 
ATOM      8  C   UNL     1      -4.286 -10.833  11.302  0.00  0.00    +0.012 C 
ATOM      9  C   UNL     1      -3.098 -10.109  10.632  0.00  0.00    +0.024 C 
ATOM     12  C   UNL     1      -1.866 -10.464  12.792  0.00  0.00    -0.023 C 
ATOM     13  C   UNL     1      -1.926  -9.889  11.576  0.00  0.00    -0.073 C 
ATOM     22  C   UNL     1      -0.787  -9.040  11.082  0.00  0.00    +0.039 C 
ENDROOT
BRANCH   6  10
ATOM     10  C   UNL     1      -3.210 -13.116  11.498  0.00  0.00    -0.013 C 
ATOM     17  C   UNL     1      -2.661 -14.152  12.474  0.00  0.00    +0.007 C 
ATOM     18  C   UNL     1      -4.217 -13.752  10.545  0.00  0.00    +0.007 C 
ENDBRANCH   6  10
BRANCH   7  11
ATOM     11  C   UNL     1      -3.683 -10.681  14.461  0.00  0.00    +0.092 C 
BRANCH  11   3
ATOM      3  N   UNL     1      -4.924 -11.391  14.766  0.00  0.00    -0.302 NA
ATOM     15  C   UNL     1      -4.726 -12.457  15.757  0.00  0.00    +0.087 C 
ATOM     16  C   UNL     1      -6.002 -10.478  15.171  0.00  0.00    +0.087 C 
ATOM     19  C   UNL     1      -4.516 -11.950  17.184  0.00  0.00    +0.046 C 
ATOM     20  C   UNL     1      -5.835  -9.903  16.579  0.00  0.00    +0.046 C 
ATOM     21  C   UNL     1      -5.640 -11.011  17.610  0.00  0.00    +0.117 C 
BRANCH  21   1
ATOM      1  O   UNL     1      -5.318 -10.446  18.875  0.00  0.00    -0.392 OA
ATOM     29  H   UNL     1      -5.832 -10.924  19.548  0.00  0.00    +0.210 HD
ENDBRANCH  21   1
ENDBRANCH  11   3
ENDBRANCH   7  11
BRANCH   9  14
ATOM     14  C   UNL     1      -3.609  -8.809   9.999  0.00  0.00    +0.105 C 
BRANCH  14  23
ATOM      2  O   UNL     1      -5.904  -8.355   9.307  0.00  0.00    -0.424 OA
ATOM      4  N   UNL     1      -4.856  -9.885   8.057  0.00  0.00    -0.112 NA
ATOM      5  N   UNL     1      -6.135  -9.727   7.556  0.00  0.00    -0.112 NA
ATOM     23  C   UNL     1      -4.766  -9.065   9.077  0.00  0.00    +0.218 A 
ATOM     24  C   UNL     1      -6.711  -8.826   8.316  0.00  0.00    +0.223 A 
BRANCH  24  25
ATOM     25  C   UNL     1      -8.066  -8.268   8.243  0.00  0.00    +0.040 C 
ATOM     26  C   UNL     1      -8.052  -6.713   8.035  0.00  0.00    +0.020 C 
ATOM     27  C   UNL     1      -8.887  -8.541   9.552  0.00  0.00    +0.020 C 
ATOM     28  C   UNL     1      -8.979  -8.814   7.082  0.00  0.00    +0.020 C 
ENDBRANCH  24  25
ENDBRANCH  14  23
ENDBRANCH   9  14
TORSDOF 7
ENDMDL
MODEL 4
REMARK VINA RESULT:      -6.1      2.498      3.723
REMARK  Name = 38031193
REMARK  13 active torsions:
REMARK  status: ('A' for Active; 'I' for Inactive)
REMARK    1  A    between atoms: O_1  and  C_21
REMARK    2  A    between atoms: N_3  and  C_11
REMARK    3  A    between atoms: C_6  and  C_10
REMARK    4  A    between atoms: C_7  and  C_11
REMARK    5  A    between atoms: C_9  and  C_14
REMARK    6  A    between atoms: C_10  and  C_17
REMARK    7  A    between atoms: C_10  and  C_18
REMARK    8  A    between atoms: C_13  and  C_22
REMARK    9  A    between atoms: C_14  and  C_23
REMARK   10  A    between atoms: C_24  and  C_25
REMARK   11  A    between atoms: C_25  and  C_26
REMARK   12  A    between atoms: C_25  and  C_27
REMARK   13  A    between atoms: C_25  and  C_28
REMARK                            x       y       z     vdW  Elec       q    Type
REMARK                         _______ _______ _______ _____ _____    ______ ____
ROOT
ATOM      6  C   UNL     1      14.724  10.960  19.770  0.00  0.00    +0.000 C 
ATOM      7  C   UNL     1      13.211  10.904  19.455  0.00  0.00    +0.029 C 
ATOM      8  C   UNL     1      15.215   9.605  20.298  0.00  0.00    +0.012 C 
ATOM      9  C   UNL     1      14.935   8.434  19.332  0.00  0.00    +0.024 C 
ATOM     12  C   UNL     1      12.818   9.643  18.728  0.00  0.00    -0.023 C 
ATOM     13  C   UNL     1      13.578   8.535  18.651  0.00  0.00    -0.073 C 
ATOM     22  C   UNL     1      13.127   7.361  17.826  0.00  0.00    +0.039 C 
ENDROOT
BRANCH   6  10
ATOM     10  C   UNL     1      15.534  11.404  18.544  0.00  0.00    -0.013 C 
ATOM     17  C   UNL     1      14.683  12.283  17.634  0.00  0.00    +0.007 C 
ATOM     18  C   UNL     1      16.797  12.141  18.980  0.00  0.00    +0.007 C 
ENDBRANCH   6  10
BRANCH   7  11
ATOM     11  C   UNL     1      12.363  11.038  20.723  0.00  0.00    +0.092 C 
BRANCH  11   3
ATOM      3  N   UNL     1      12.915  12.064  21.605  0.00  0.00    -0.302 NA
ATOM     15  C   UNL     1      12.188  13.337  21.503  0.00  0.00    +0.087 C 
ATOM     16  C   UNL     1      13.003  11.609  23.001  0.00  0.00    +0.087 C 
ATOM     19  C   UNL     1      10.811  13.323  22.169  0.00  0.00    +0.046 C 
ATOM     20  C   UNL     1      11.653  11.537  23.718  0.00  0.00    +0.046 C 
ATOM     21  C   UNL     1      10.903  12.862  23.620  0.00  0.00    +0.117 C 
BRANCH  21   1
ATOM      1  O   UNL     1       9.588  12.714  24.143  0.00  0.00    -0.392 OA
ATOM     29  H   UNL     1       9.498  11.797  24.455  0.00  0.00    +0.210 HD
ENDBRANCH  21   1
ENDBRANCH  11   3
ENDBRANCH   7  11
BRANCH   9  14
ATOM     14  C   UNL     1      15.125   7.115  20.091  0.00  0.00    +0.105 C 
BRANCH  14  23
ATOM      2  O   UNL     1      17.471   6.812  20.691  0.00  0.00    -0.424 OA
ATOM      4  N   UNL     1      16.851   5.721  18.840  0.00  0.00    -0.112 NA
ATOM      5  N   UNL     1      18.191   5.462  19.060  0.00  0.00    -0.112 NA
ATOM     23  C   UNL     1      16.473   6.513  19.815  0.00  0.00    +0.218 A 
ATOM     24  C   UNL     1      18.511   6.119  20.150  0.00  0.00    +0.223 A 
BRANCH  24  25
ATOM     25  C   UNL     1      19.798   6.202  20.849  0.00  0.00    +0.040 C 
ATOM     26  C   UNL     1      20.654   4.900  20.662  0.00  0.00    +0.020 C 
ATOM     27  C   UNL     1      19.619   6.406  22.394  0.00  0.00    +0.020 C 
ATOM     28  C   UNL     1      20.755   7.370  20.404  0.00  0.00    +0.020 C 
ENDBRANCH  24  25
ENDBRANCH  14  23
ENDBRANCH   9  14
TORSDOF 7
ENDMDL
MODEL 5
REMARK VINA RESULT:      -6.1     26.887     30.223
REMARK  Name = 38031193
REMARK  13 active torsions:
REMARK  status: ('A' for Active; 'I' for Inactive)
REMARK    1  A    between atoms: O_1  and  C_21
REMARK    2  A    between atoms: N_3  and  C_11
REMARK    3  A    between atoms: C_6  and  C_10
REMARK    4  A    between atoms: C_7  and  C_11
REMARK    5  A    between atoms: C_9  and  C_14
REMARK    6  A    between atoms: C_10  and  C_17
REMARK    7  A    between atoms: C_10  and  C_18
REMARK    8  A    between atoms: C_13  and  C_22
REMARK    9  A    between atoms: C_14  and  C_23
REMARK   10  A    between atoms: C_24  and  C_25
REMARK   11  A    between atoms: C_25  and  C_26
REMARK   12  A    between atoms: C_25  and  C_27
REMARK   13  A    between atoms: C_25  and  C_28
REMARK                            x       y       z     vdW  Elec       q    Type
REMARK                         _______ _______ _______ _____ _____    ______ ____
ROOT
ATOM      6  C   UNL     1      -3.724 -12.006  12.329  0.00  0.00    +0.000 C 
ATOM      7  C   UNL     1      -2.792 -11.405  13.406  0.00  0.00    +0.029 C 
ATOM      8  C   UNL     1      -4.201 -10.916  11.359  0.00  0.00    +0.012 C 
ATOM      9  C   UNL     1      -3.045 -10.158  10.673  0.00  0.00    +0.024 C 
ATOM     12  C   UNL     1      -1.787 -10.440  12.829  0.00  0.00    -0.023 C 
ATOM     13  C   UNL     1      -1.876  -9.883  11.607  0.00  0.00    -0.073 C 
ATOM     22  C   UNL     1      -0.771  -8.999  11.095  0.00  0.00    +0.039 C 
ENDROOT
BRANCH   6  10
ATOM     10  C   UNL     1      -3.040 -13.156  11.576  0.00  0.00    -0.013 C 
ATOM     17  C   UNL     1      -2.570 -14.227  12.555  0.00  0.00    +0.007 C 
ATOM     18  C   UNL     1      -3.987 -13.750  10.538  0.00  0.00    +0.007 C 
ENDBRANCH   6  10
BRANCH   7  11
ATOM     11  C   UNL     1      -3.585 -10.703  14.513  0.00  0.00    +0.092 C 
BRANCH  11   3
ATOM      3  N   UNL     1      -4.822 -11.427  14.798  0.00  0.00    -0.302 NA
ATOM     15  C   UNL     1      -4.635 -12.468  15.818  0.00  0.00    +0.087 C 
ATOM     16  C   UNL     1      -5.926 -10.523  15.153  0.00  0.00    +0.087 C 
ATOM     19  C   UNL     1      -4.472 -11.926  17.239  0.00  0.00    +0.046 C 
ATOM     20  C   UNL     1      -5.807  -9.915  16.552  0.00  0.00    +0.046 C 
ATOM     21  C   UNL     1      -5.623 -10.997  17.612  0.00  0.00    +0.117 C 
BRANCH  21   1
ATOM      1  O   UNL     1      -5.345 -10.399  18.873  0.00  0.00    -0.392 OA
ATOM     29  H   UNL     1      -4.978 -11.090  19.450  0.00  0.00    +0.210 HD
ENDBRANCH  21   1
ENDBRANCH  11   3
ENDBRANCH   7  11
BRANCH   9  14
ATOM     14  C   UNL     1      -3.606  -8.885  10.028  0.00  0.00    +0.105 C 
BRANCH  14  23
ATOM      2  O   UNL     1      -4.531 -10.142   8.151  0.00  0.00    -0.424 OA
ATOM      4  N   UNL     1      -5.960  -8.691   9.074  0.00  0.00    -0.112 NA
ATOM      5  N   UNL     1      -6.610  -9.329   8.034  0.00  0.00    -0.112 NA
ATOM     23  C   UNL     1      -4.750  -9.197   9.105  0.00  0.00    +0.218 A 
ATOM     24  C   UNL     1      -5.738 -10.166   7.523  0.00  0.00    +0.223 A 
BRANCH  24  25
ATOM     25  C   UNL     1      -5.885 -11.102   6.403  0.00  0.00    +0.040 C 
ATOM     26  C   UNL     1      -6.811 -12.315   6.766  0.00  0.00    +0.020 C 
ATOM     27  C   UNL     1      -4.508 -11.704   5.953  0.00  0.00    +0.020 C 
ATOM     28  C   UNL     1      -6.509 -10.512   5.083  0.00  0.00    +0.020 C 
ENDBRANCH  24  25
ENDBRANCH  14  23
ENDBRANCH   9  14
TORSDOF 7
ENDMDL
MODEL 6
REMARK VINA RESULT:      -6.0     29.163     32.829
REMARK  Name = 38031193
REMARK  13 active torsions:
REMARK  status: ('A' for Active; 'I' for Inactive)
REMARK    1  A    between atoms: O_1  and  C_21
REMARK    2  A    between atoms: N_3  and  C_11
REMARK    3  A    between atoms: C_6  and  C_10
REMARK    4  A    between atoms: C_7  and  C_11
REMARK    5  A    between atoms: C_9  and  C_14
REMARK    6  A    between atoms: C_10  and  C_17
REMARK    7  A    between atoms: C_10  and  C_18
REMARK    8  A    between atoms: C_13  and  C_22
REMARK    9  A    between atoms: C_14  and  C_23
REMARK   10  A    between atoms: C_24  and  C_25
REMARK   11  A    between atoms: C_25  and  C_26
REMARK   12  A    between atoms: C_25  and  C_27
REMARK   13  A    between atoms: C_25  and  C_28
REMARK                            x       y       z     vdW  Elec       q    Type
REMARK                         _______ _______ _______ _____ _____    ______ ____
ROOT
ATOM      6  C   UNL     1      -9.923  -9.456  17.893  0.00  0.00    +0.000 C 
ATOM      7  C   UNL     1      -9.127 -10.186  16.786  0.00  0.00    +0.029 C 
ATOM      8  C   UNL     1     -10.217  -8.008  17.479  0.00  0.00    +0.012 C 
ATOM      9  C   UNL     1     -10.978  -7.896  16.140  0.00  0.00    +0.024 C 
ATOM     12  C   UNL     1      -9.667  -9.909  15.406  0.00  0.00    -0.023 C 
ATOM     13  C   UNL     1     -10.504  -8.900  15.100  0.00  0.00    -0.073 C 
ATOM     22  C   UNL     1     -11.051  -8.766  13.705  0.00  0.00    +0.039 C 
ENDROOT
BRANCH   6  10
ATOM     10  C   UNL     1     -11.216 -10.207  18.239  0.00  0.00    -0.013 C 
ATOM     17  C   UNL     1     -10.987 -11.714  18.188  0.00  0.00    +0.007 C 
ATOM     18  C   UNL     1     -11.725  -9.784  19.614  0.00  0.00    +0.007 C 
ENDBRANCH   6  10
BRANCH   7  11
ATOM     11  C   UNL     1      -7.640  -9.824  16.827  0.00  0.00    +0.092 C 
BRANCH  11   3
ATOM      3  N   UNL     1      -6.815 -11.030  16.796  0.00  0.00    -0.302 NA
ATOM     15  C   UNL     1      -5.437 -10.773  17.235  0.00  0.00    +0.087 C 
ATOM     16  C   UNL     1      -7.419 -12.136  17.551  0.00  0.00    +0.087 C 
ATOM     19  C   UNL     1      -5.293 -10.558  18.742  0.00  0.00    +0.046 C 
ATOM     20  C   UNL     1      -7.343 -11.968  19.070  0.00  0.00    +0.046 C 
ATOM     21  C   UNL     1      -5.909 -11.712  19.527  0.00  0.00    +0.117 C 
BRANCH  21   1
ATOM      1  O   UNL     1      -5.892 -11.390  20.913  0.00  0.00    -0.392 OA
ATOM     29  H   UNL     1      -5.836 -10.422  20.988  0.00  0.00    +0.210 HD
ENDBRANCH  21   1
ENDBRANCH  11   3
ENDBRANCH   7  11
BRANCH   9  14
ATOM     14  C   UNL     1     -10.898  -6.445  15.650  0.00  0.00    +0.105 C 
BRANCH  14  23
ATOM      2  O   UNL     1     -12.038  -5.215  13.878  0.00  0.00    -0.424 OA
ATOM      4  N   UNL     1     -13.410  -6.334  15.244  0.00  0.00    -0.112 NA
ATOM      5  N   UNL     1     -14.183  -5.690  14.296  0.00  0.00    -0.112 NA
ATOM     23  C   UNL     1     -12.166  -6.028  14.961  0.00  0.00    +0.218 A 
ATOM     24  C   UNL     1     -13.341  -5.048  13.520  0.00  0.00    +0.223 A 
BRANCH  24  25
ATOM     25  C   UNL     1     -13.605  -4.204  12.349  0.00  0.00    +0.040 C 
ATOM     26  C   UNL     1     -14.745  -3.161  12.621  0.00  0.00    +0.020 C 
ATOM     27  C   UNL     1     -14.052  -5.047  11.104  0.00  0.00    +0.020 C 
ATOM     28  C   UNL     1     -12.396  -3.340  11.830  0.00  0.00    +0.020 C 
ENDBRANCH  24  25
ENDBRANCH  14  23
ENDBRANCH   9  14
TORSDOF 7
ENDMDL
MODEL 7
REMARK VINA RESULT:      -6.0     27.438     31.594
REMARK  Name = 38031193
REMARK  13 active torsions:
REMARK  status: ('A' for Active; 'I' for Inactive)
REMARK    1  A    between atoms: O_1  and  C_21
REMARK    2  A    between atoms: N_3  and  C_11
REMARK    3  A    between atoms: C_6  and  C_10
REMARK    4  A    between atoms: C_7  and  C_11
REMARK    5  A    between atoms: C_9  and  C_14
REMARK    6  A    between atoms: C_10  and  C_17
REMARK    7  A    between atoms: C_10  and  C_18
REMARK    8  A    between atoms: C_13  and  C_22
REMARK    9  A    between atoms: C_14  and  C_23
REMARK   10  A    between atoms: C_24  and  C_25
REMARK   11  A    between atoms: C_25  and  C_26
REMARK   12  A    between atoms: C_25  and  C_27
REMARK   13  A    between atoms: C_25  and  C_28
REMARK                            x       y       z     vdW  Elec       q    Type
REMARK                         _______ _______ _______ _____ _____    ______ ____
ROOT
ATOM      6  C   UNL     1     -13.535   9.191  20.596  0.00  0.00    +0.000 C 
ATOM      7  C   UNL     1     -12.187   8.546  20.197  0.00  0.00    +0.029 C 
ATOM      8  C   UNL     1     -14.668   8.159  20.524  0.00  0.00    +0.012 C 
ATOM      9  C   UNL     1     -14.416   6.911  21.399  0.00  0.00    +0.024 C 
ATOM     12  C   UNL     1     -11.988   7.188  20.821  0.00  0.00    -0.023 C 
ATOM     13  C   UNL     1     -12.967   6.449  21.373  0.00  0.00    -0.073 C 
ATOM     22  C   UNL     1     -12.644   5.143  22.047  0.00  0.00    +0.039 C 
ENDROOT
BRANCH   6  10
ATOM     10  C   UNL     1     -13.457   9.833  21.988  0.00  0.00    -0.013 C 
ATOM     17  C   UNL     1     -12.346  10.878  22.031  0.00  0.00    +0.007 C 
ATOM     18  C   UNL     1     -14.799  10.455  22.363  0.00  0.00    +0.007 C 
ENDBRANCH   6  10
BRANCH   7  11
ATOM     11  C   UNL     1     -12.045   8.427  18.677  0.00  0.00    +0.092 C 
BRANCH  11   3
ATOM      3  N   UNL     1     -10.635   8.388  18.292  0.00  0.00    -0.302 NA
ATOM     15  C   UNL     1     -10.453   8.016  16.883  0.00  0.00    +0.087 C 
ATOM     16  C   UNL     1      -9.937   9.641  18.610  0.00  0.00    +0.087 C 
ATOM     19  C   UNL     1     -10.824   9.122  15.894  0.00  0.00    +0.046 C 
ATOM     20  C   UNL     1     -10.291  10.804  17.679  0.00  0.00    +0.046 C 
ATOM     21  C   UNL     1     -10.091  10.421  16.215  0.00  0.00    +0.117 C 
BRANCH  21   1
ATOM      1  O   UNL     1     -10.587  11.454  15.372  0.00  0.00    -0.392 OA
ATOM     29  H   UNL     1     -10.689  12.253  15.917  0.00  0.00    +0.210 HD
ENDBRANCH  21   1
ENDBRANCH  11   3
ENDBRANCH   7  11
BRANCH   9  14
ATOM     14  C   UNL     1     -15.402   5.813  20.982  0.00  0.00    +0.105 C 
BRANCH  14  23
ATOM      2  O   UNL     1     -16.505   4.059  22.271  0.00  0.00    -0.424 OA
ATOM      4  N   UNL     1     -16.859   6.126  23.048  0.00  0.00    -0.112 NA
ATOM      5  N   UNL     1     -17.534   5.240  23.866  0.00  0.00    -0.112 NA
ATOM     23  C   UNL     1     -16.272   5.392  22.131  0.00  0.00    +0.218 A 
ATOM     24  C   UNL     1     -17.301   4.046  23.375  0.00  0.00    +0.223 A 
BRANCH  24  25
ATOM     25  C   UNL     1     -17.763   2.734  23.844  0.00  0.00    +0.040 C 
ATOM     26  C   UNL     1     -19.189   2.811  24.494  0.00  0.00    +0.020 C 
ATOM     27  C   UNL     1     -16.806   2.124  24.926  0.00  0.00    +0.020 C 
ATOM     28  C   UNL     1     -17.889   1.610  22.748  0.00  0.00    +0.020 C 
ENDBRANCH  24  25
ENDBRANCH  14  23
ENDBRANCH   9  14
TORSDOF 7
ENDMDL
MODEL 8
REMARK VINA RESULT:      -5.9     27.555     30.627
REMARK  Name = 38031193
REMARK  13 active torsions:
REMARK  status: ('A' for Active; 'I' for Inactive)
REMARK    1  A    between atoms: O_1  and  C_21
REMARK    2  A    between atoms: N_3  and  C_11
REMARK    3  A    between atoms: C_6  and  C_10
REMARK    4  A    between atoms: C_7  and  C_11
REMARK    5  A    between atoms: C_9  and  C_14
REMARK    6  A    between atoms: C_10  and  C_17
REMARK    7  A    between atoms: C_10  and  C_18
REMARK    8  A    between atoms: C_13  and  C_22
REMARK    9  A    between atoms: C_14  and  C_23
REMARK   10  A    between atoms: C_24  and  C_25
REMARK   11  A    between atoms: C_25  and  C_26
REMARK   12  A    between atoms: C_25  and  C_27
REMARK   13  A    between atoms: C_25  and  C_28
REMARK                            x       y       z     vdW  Elec       q    Type
REMARK                         _______ _______ _______ _____ _____    ______ ____
ROOT
ATOM      6  C   UNL     1      -7.570 -12.285  17.090  0.00  0.00    +0.000 C 
ATOM      7  C   UNL     1      -7.656 -12.189  18.631  0.00  0.00    +0.029 C 
ATOM      8  C   UNL     1      -6.484 -11.343  16.552  0.00  0.00    +0.012 C 
ATOM      9  C   UNL     1      -5.089 -11.605  17.161  0.00  0.00    +0.024 C 
ATOM     12  C   UNL     1      -6.298 -12.177  19.287  0.00  0.00    -0.023 C 
ATOM     13  C   UNL     1      -5.140 -11.931  18.646  0.00  0.00    -0.073 C 
ATOM     22  C   UNL     1      -3.831 -12.030  19.380  0.00  0.00    +0.039 C 
ENDROOT
BRANCH   6  10
ATOM     10  C   UNL     1      -7.327 -13.730  16.633  0.00  0.00    -0.013 C 
ATOM     17  C   UNL     1      -8.254 -14.686  17.376  0.00  0.00    +0.007 C 
ATOM     18  C   UNL     1      -7.523 -13.850  15.124  0.00  0.00    +0.007 C 
ENDBRANCH   6  10
BRANCH   7  11
ATOM     11  C   UNL     1      -8.441 -10.952  19.078  0.00  0.00    +0.092 C 
BRANCH  11   3
ATOM      3  N   UNL     1      -9.463 -11.317  20.057  0.00  0.00    -0.302 NA
ATOM     15  C   UNL     1     -10.451 -10.248  20.255  0.00  0.00    +0.087 C 
ATOM     16  C   UNL     1     -10.115 -12.593  19.730  0.00  0.00    +0.087 C 
ATOM     19  C   UNL     1     -11.435 -10.086  19.095  0.00  0.00    +0.046 C 
ATOM     20  C   UNL     1     -11.089 -12.511  18.552  0.00  0.00    +0.046 C 
ATOM     21  C   UNL     1     -12.121 -11.407  18.763  0.00  0.00    +0.117 C 
BRANCH  21   1
ATOM      1  O   UNL     1     -12.901 -11.240  17.585  0.00  0.00    -0.392 OA
ATOM     29  H   UNL     1     -12.822 -12.058  17.064  0.00  0.00    +0.210 HD
ENDBRANCH  21   1
ENDBRANCH  11   3
ENDBRANCH   7  11
BRANCH   9  14
ATOM     14  C   UNL     1      -4.183 -10.409  16.843  0.00  0.00    +0.105 C 
BRANCH  14  23
ATOM      2  O   UNL     1      -3.840 -10.484  14.428  0.00  0.00    -0.424 OA
ATOM      4  N   UNL     1      -2.058 -11.108  15.626  0.00  0.00    -0.112 NA
ATOM      5  N   UNL     1      -1.725 -11.197  14.287  0.00  0.00    -0.112 NA
ATOM     23  C   UNL     1      -3.301 -10.689  15.661  0.00  0.00    +0.218 A 
ATOM     24  C   UNL     1      -2.795 -10.824  13.625  0.00  0.00    +0.223 A 
BRANCH  24  25
ATOM     25  C   UNL     1      -3.011 -10.722  12.177  0.00  0.00    +0.040 C 
ATOM     26  C   UNL     1      -1.861  -9.927  11.465  0.00  0.00    +0.020 C 
ATOM     27  C   UNL     1      -4.351  -9.983  11.831  0.00  0.00    +0.020 C 
ATOM     28  C   UNL     1      -3.095 -12.083  11.390  0.00  0.00    +0.020 C 
ENDBRANCH  24  25
ENDBRANCH  14  23
ENDBRANCH   9  14
TORSDOF 7
ENDMDL
MODEL 9
REMARK VINA RESULT:      -5.9     28.175     31.771
REMARK  Name = 38031193
REMARK  13 active torsions:
REMARK  status: ('A' for Active; 'I' for Inactive)
REMARK    1  A    between atoms: O_1  and  C_21
REMARK    2  A    between atoms: N_3  and  C_11
REMARK    3  A    between atoms: C_6  and  C_10
REMARK    4  A    between atoms: C_7  and  C_11
REMARK    5  A    between atoms: C_9  and  C_14
REMARK    6  A    between atoms: C_10  and  C_17
REMARK    7  A    between atoms: C_10  and  C_18
REMARK    8  A    between atoms: C_13  and  C_22
REMARK    9  A    between atoms: C_14  and  C_23
REMARK   10  A    between atoms: C_24  and  C_25
REMARK   11  A    between atoms: C_25  and  C_26
REMARK   12  A    between atoms: C_25  and  C_27
REMARK   13  A    between atoms: C_25  and  C_28
REMARK                            x       y       z     vdW  Elec       q    Type
REMARK                         _______ _______ _______ _____ _____    ______ ____
ROOT
ATOM      6  C   UNL     1     -13.437   8.806  20.474  0.00  0.00    +0.000 C 
ATOM      7  C   UNL     1     -12.112   8.091  20.122  0.00  0.00    +0.029 C 
ATOM      8  C   UNL     1     -14.592   7.798  20.544  0.00  0.00    +0.012 C 
ATOM      9  C   UNL     1     -14.344   6.652  21.549  0.00  0.00    +0.024 C 
ATOM     12  C   UNL     1     -11.925   6.807  20.892  0.00  0.00    -0.023 C 
ATOM     13  C   UNL     1     -12.906   6.157  21.546  0.00  0.00    -0.073 C 
ATOM     22  C   UNL     1     -12.592   4.929  22.356  0.00  0.00    +0.039 C 
ENDROOT
BRANCH   6  10
ATOM     10  C   UNL     1     -13.313   9.599  21.782  0.00  0.00    -0.013 C 
ATOM     17  C   UNL     1     -12.243  10.678  21.652  0.00  0.00    +0.007 C 
ATOM     18  C   UNL     1     -14.657  10.215  22.160  0.00  0.00    +0.007 C 
ENDBRANCH   6  10
BRANCH   7  11
ATOM     11  C   UNL     1     -12.008   7.797  18.623  0.00  0.00    +0.092 C 
BRANCH  11   3
ATOM      3  N   UNL     1     -11.761   9.027  17.873  0.00  0.00    -0.302 NA
ATOM     15  C   UNL     1     -10.478   8.995  17.158  0.00  0.00    +0.087 C 
ATOM     16  C   UNL     1     -12.870   9.358  16.967  0.00  0.00    +0.087 C 
ATOM     19  C   UNL     1     -10.475   8.090  15.925  0.00  0.00    +0.046 C 
ATOM     20  C   UNL     1     -12.948   8.465  15.726  0.00  0.00    +0.046 C 
ATOM     21  C   UNL     1     -11.618   8.441  14.978  0.00  0.00    +0.117 C 
BRANCH  21   1
ATOM      1  O   UNL     1     -11.668   7.476  13.933  0.00  0.00    -0.392 OA
ATOM     29  H   UNL     1     -11.700   7.959  13.090  0.00  0.00    +0.210 HD
ENDBRANCH  21   1
ENDBRANCH  11   3
ENDBRANCH   7  11
BRANCH   9  14
ATOM     14  C   UNL     1     -15.361   5.536  21.281  0.00  0.00    +0.105 C 
BRANCH  14  23
ATOM      2  O   UNL     1     -16.512   3.820  22.579  0.00  0.00    -0.424 OA
ATOM      4  N   UNL     1     -16.252   5.763  23.656  0.00  0.00    -0.112 NA
ATOM      5  N   UNL     1     -16.911   4.890  24.502  0.00  0.00    -0.112 NA
ATOM     23  C   UNL     1     -16.039   5.096  22.546  0.00  0.00    +0.218 A 
ATOM     24  C   UNL     1     -17.043   3.770  23.832  0.00  0.00    +0.223 A 
BRANCH  24  25
ATOM     25  C   UNL     1     -17.662   2.503  24.239  0.00  0.00    +0.040 C 
ATOM     26  C   UNL     1     -17.876   1.535  23.024  0.00  0.00    +0.020 C 
ATOM     27  C   UNL     1     -19.070   2.720  24.897  0.00  0.00    +0.020 C 
ATOM     28  C   UNL     1     -16.862   1.646  25.290  0.00  0.00    +0.020 C 
ENDBRANCH  24  25
ENDBRANCH  14  23
ENDBRANCH   9  14
TORSDOF 7
ENDMDL
MODEL 10
REMARK VINA RESULT:      -5.9     27.997     31.491
REMARK  Name = 38031193
REMARK  13 active torsions:
REMARK  status: ('A' for Active; 'I' for Inactive)
REMARK    1  A    between atoms: O_1  and  C_21
REMARK    2  A    between atoms: N_3  and  C_11
REMARK    3  A    between atoms: C_6  and  C_10
REMARK    4  A    between atoms: C_7  and  C_11
REMARK    5  A    between atoms: C_9  and  C_14
REMARK    6  A    between atoms: C_10  and  C_17
REMARK    7  A    between atoms: C_10  and  C_18
REMARK    8  A    between atoms: C_13  and  C_22
REMARK    9  A    between atoms: C_14  and  C_23
REMARK   10  A    between atoms: C_24  and  C_25
REMARK   11  A    between atoms: C_25  and  C_26
REMARK   12  A    between atoms: C_25  and  C_27
REMARK   13  A    between atoms: C_25  and  C_28
REMARK                            x       y       z     vdW  Elec       q    Type
REMARK                         _______ _______ _______ _____ _____    ______ ____
ROOT
ATOM      6  C   UNL     1     -16.248   6.775  21.000  0.00  0.00    +0.000 C 
ATOM      7  C   UNL     1     -15.681   5.610  21.846  0.00  0.00    +0.029 C 
ATOM      8  C   UNL     1     -15.406   8.043  21.198  0.00  0.00    +0.012 C 
ATOM      9  C   UNL     1     -13.912   7.846  20.864  0.00  0.00    +0.024 C 
ATOM     12  C   UNL     1     -14.178   5.518  21.770  0.00  0.00    -0.023 C 
ATOM     13  C   UNL     1     -13.372   6.499  21.323  0.00  0.00    -0.073 C 
ATOM     22  C   UNL     1     -11.890   6.270  21.209  0.00  0.00    +0.039 C 
ENDROOT
BRANCH   6  10
ATOM     10  C   UNL     1     -16.337   6.395  19.516  0.00  0.00    -0.013 C 
ATOM     17  C   UNL     1     -17.077   5.072  19.348  0.00  0.00    +0.007 C 
ATOM     18  C   UNL     1     -17.025   7.503  18.724  0.00  0.00    +0.007 C 
ENDBRANCH   6  10
BRANCH   7  11
ATOM     11  C   UNL     1     -16.105   5.718  23.313  0.00  0.00    +0.092 C 
BRANCH  11   3
ATOM      3  N   UNL     1     -17.098   4.697  23.639  0.00  0.00    -0.302 NA
ATOM     15  C   UNL     1     -16.508   3.355  23.728  0.00  0.00    +0.087 C 
ATOM     16  C   UNL     1     -17.859   5.028  24.853  0.00  0.00    +0.087 C 
ATOM     19  C   UNL     1     -15.670   3.125  24.987  0.00  0.00    +0.046 C 
ATOM     20  C   UNL     1     -17.067   4.855  26.151  0.00  0.00    +0.046 C 
ATOM     21  C   UNL     1     -16.462   3.457  26.248  0.00  0.00    +0.117 C 
BRANCH  21   1
ATOM      1  O   UNL     1     -15.595   3.381  27.373  0.00  0.00    -0.392 OA
ATOM     29  H   UNL     1     -14.714   3.130  27.048  0.00  0.00    +0.210 HD
ENDBRANCH  21   1
ENDBRANCH  11   3
ENDBRANCH   7  11
BRANCH   9  14
ATOM     14  C   UNL     1     -13.122   9.031  21.431  0.00  0.00    +0.105 C 
BRANCH  14  23
ATOM      2  O   UNL     1     -12.213   9.096  19.167  0.00  0.00    -0.424 OA
ATOM      4  N   UNL     1     -11.796  10.932  20.374  0.00  0.00    -0.112 NA
ATOM      5  N   UNL     1     -11.231  11.104  19.124  0.00  0.00    -0.112 NA
ATOM     23  C   UNL     1     -12.358   9.746  20.353  0.00  0.00    +0.218 A 
ATOM     24  C   UNL     1     -11.498  10.008  18.454  0.00  0.00    +0.223 A 
BRANCH  24  25
ATOM     25  C   UNL     1     -11.144   9.644  17.076  0.00  0.00    +0.040 C 
ATOM     26  C   UNL     1     -10.489   8.222  16.993  0.00  0.00    +0.020 C 
ATOM     27  C   UNL     1     -10.120  10.651  16.445  0.00  0.00    +0.020 C 
ATOM     28  C   UNL     1     -12.334   9.591  16.046  0.00  0.00    +0.020 C 
ENDBRANCH  24  25
ENDBRANCH  14  23
ENDBRANCH   9  14
TORSDOF 7
ENDMDL
