MODEL 1
REMARK VINA RESULT:      -6.6      0.000      0.000
REMARK  Name = 75536947
REMARK  4 active torsions:
REMARK  status: ('A' for Active; 'I' for Inactive)
REMARK    1  A    between atoms: O_2  and  C_9
REMARK    2  A    between atoms: O_2  and  C_18
REMARK    3  A    between atoms: O_5  and  C_23
REMARK    4  A    between atoms: O_5  and  C_24
REMARK                            x       y       z     vdW  Elec       q    Type
REMARK                         _______ _______ _______ _____ _____    ______ ____
ROOT
ATOM      1  O   UNL     1      11.663   7.677  18.864  0.00  0.00    -0.375 OA
ATOM      3  O   UNL     1      11.631  12.864  24.035  0.00  0.00    -0.377 OA
ATOM      4  O   UNL     1      15.035  10.316  21.454  0.00  0.00    -0.252 OA
ATOM      6  N   UNL     1      13.111   9.954  20.223  0.00  0.00    -0.280 N 
ATOM      7  N   UNL     1      13.104  11.335  22.180  0.00  0.00    -0.281 N 
ATOM      8  C   UNL     1      13.856   9.496  19.042  0.00  0.00    +0.156 C 
ATOM      9  C   UNL     1      14.138   7.993  19.018  0.00  0.00    +0.216 C 
ATOM     10  C   UNL     1      11.683   9.610  20.292  0.00  0.00    +0.137 C 
ATOM     11  C   UNL     1      12.946   7.104  18.644  0.00  0.00    +0.206 C 
ATOM     12  C   UNL     1      13.825  10.522  21.294  0.00  0.00    +0.305 C 
ATOM     13  C   UNL     1      12.300  12.482  21.741  0.00  0.00    +0.137 C 
ATOM     14  C   UNL     1      13.521  11.413  23.578  0.00  0.00    +0.137 C 
ATOM     15  C   UNL     1      11.433   8.110  20.199  0.00  0.00    +0.179 C 
ATOM     16  C   UNL     1      11.141  12.713  22.699  0.00  0.00    +0.179 C 
ATOM     17  C   UNL     1      12.319  11.688  24.471  0.00  0.00    +0.179 C 
ENDROOT
BRANCH   9   2
ATOM      2  O   UNL     1      14.673   7.589  20.278  0.00  0.00    -0.485 OA
BRANCH   2  18
ATOM     18  C   UNL     1      15.947   7.093  20.269  0.00  0.00    +0.121 A 
ATOM     19  C   UNL     1      16.824   7.402  21.309  0.00  0.00    +0.049 A 
ATOM     20  C   UNL     1      16.370   6.278  19.219  0.00  0.00    +0.049 A 
ATOM     21  C   UNL     1      18.124   6.897  21.299  0.00  0.00    +0.049 A 
ATOM     22  C   UNL     1      17.671   5.773  19.209  0.00  0.00    +0.049 A 
ATOM     23  C   UNL     1      18.547   6.082  20.248  0.00  0.00    +0.120 A 
BRANCH  23   5
ATOM      5  O   UNL     1      19.816   5.589  20.239  0.00  0.00    -0.495 OA
ATOM     24  C   UNL     1      20.849   6.448  20.718  0.00  0.00    +0.277 C 
ENDBRANCH  23   5
ENDBRANCH   2  18
ENDBRANCH   9   2
TORSDOF 3
ENDMDL
MODEL 2
REMARK VINA RESULT:      -6.0     16.839     19.889
REMARK  Name = 75536947
REMARK  4 active torsions:
REMARK  status: ('A' for Active; 'I' for Inactive)
REMARK    1  A    between atoms: O_2  and  C_9
REMARK    2  A    between atoms: O_2  and  C_18
REMARK    3  A    between atoms: O_5  and  C_23
REMARK    4  A    between atoms: O_5  and  C_24
REMARK                            x       y       z     vdW  Elec       q    Type
REMARK                         _______ _______ _______ _____ _____    ______ ____
ROOT
ATOM      1  O   UNL     1      10.078   7.485   0.990  0.00  0.00    -0.375 OA
ATOM      3  O   UNL     1      16.084   4.247  -1.670  0.00  0.00    -0.377 OA
ATOM      4  O   UNL     1      12.840   3.438   2.012  0.00  0.00    -0.252 OA
ATOM      6  N   UNL     1      11.711   4.962   0.687  0.00  0.00    -0.280 N 
ATOM      7  N   UNL     1      13.880   4.142   0.084  0.00  0.00    -0.281 N 
ATOM      8  C   UNL     1      10.415   4.668   1.313  0.00  0.00    +0.156 C 
ATOM      9  C   UNL     1      10.100   5.524   2.542  0.00  0.00    +0.216 C 
ATOM     10  C   UNL     1      11.824   6.218  -0.069  0.00  0.00    +0.137 C 
ATOM     11  C   UNL     1       9.663   6.964   2.248  0.00  0.00    +0.206 C 
ATOM     12  C   UNL     1      12.811   4.137   0.991  0.00  0.00    +0.305 C 
ATOM     13  C   UNL     1      13.715   3.871  -1.350  0.00  0.00    +0.137 C 
ATOM     14  C   UNL     1      15.234   3.897   0.574  0.00  0.00    +0.137 C 
ATOM     15  C   UNL     1      11.481   7.443   0.771  0.00  0.00    +0.179 C 
ATOM     16  C   UNL     1      14.783   4.599  -2.151  0.00  0.00    +0.179 C 
ATOM     17  C   UNL     1      16.248   4.620  -0.300  0.00  0.00    +0.179 C 
ENDROOT
BRANCH   9   2
ATOM      2  O   UNL     1      11.223   5.524   3.422  0.00  0.00    -0.485 OA
BRANCH   2  18
ATOM     18  C   UNL     1      10.949   5.574   4.760  0.00  0.00    +0.121 A 
ATOM     19  C   UNL     1       9.975   4.737   5.305  0.00  0.00    +0.049 A 
ATOM     20  C   UNL     1      11.644   6.462   5.581  0.00  0.00    +0.049 A 
ATOM     21  C   UNL     1       9.695   4.789   6.670  0.00  0.00    +0.049 A 
ATOM     22  C   UNL     1      11.364   6.514   6.948  0.00  0.00    +0.049 A 
ATOM     23  C   UNL     1      10.390   5.677   7.491  0.00  0.00    +0.120 A 
BRANCH  23   5
ATOM      5  O   UNL     1      10.117   5.727   8.824  0.00  0.00    -0.495 OA
ATOM     24  C   UNL     1       9.419   4.616   9.385  0.00  0.00    +0.277 C 
ENDBRANCH  23   5
ENDBRANCH   2  18
ENDBRANCH   9   2
TORSDOF 3
ENDMDL
MODEL 3
REMARK VINA RESULT:      -6.0     26.869     28.967
REMARK  Name = 75536947
REMARK  4 active torsions:
REMARK  status: ('A' for Active; 'I' for Inactive)
REMARK    1  A    between atoms: O_2  and  C_9
REMARK    2  A    between atoms: O_2  and  C_18
REMARK    3  A    between atoms: O_5  and  C_23
REMARK    4  A    between atoms: O_5  and  C_24
REMARK                            x       y       z     vdW  Elec       q    Type
REMARK                         _______ _______ _______ _____ _____    ______ ____
ROOT
ATOM      1  O   UNL     1      -5.078 -11.733  19.976  0.00  0.00    -0.375 OA
ATOM      3  O   UNL     1     -11.494  -8.830  17.963  0.00  0.00    -0.377 OA
ATOM      4  O   UNL     1      -7.440 -10.622  15.706  0.00  0.00    -0.252 OA
ATOM      6  N   UNL     1      -7.210 -11.444  17.856  0.00  0.00    -0.280 N 
ATOM      7  N   UNL     1      -9.109 -10.134  17.212  0.00  0.00    -0.281 N 
ATOM      8  C   UNL     1      -6.211 -12.444  17.454  0.00  0.00    +0.156 C 
ATOM      9  C   UNL     1      -4.765 -11.946  17.504  0.00  0.00    +0.216 C 
ATOM     10  C   UNL     1      -7.296 -11.117  19.287  0.00  0.00    +0.137 C 
ATOM     11  C   UNL     1      -4.149 -11.852  18.905  0.00  0.00    +0.206 C 
ATOM     12  C   UNL     1      -7.891 -10.728  16.854  0.00  0.00    +0.305 C 
ATOM     13  C   UNL     1     -10.216 -10.881  17.822  0.00  0.00    +0.137 C 
ATOM     14  C   UNL     1      -9.531  -8.908  16.539  0.00  0.00    +0.137 C 
ATOM     15  C   UNL     1      -5.970 -10.633  19.861  0.00  0.00    +0.179 C 
ATOM     16  C   UNL     1     -11.045  -9.965  18.711  0.00  0.00    +0.179 C 
ATOM     17  C   UNL     1     -10.390  -8.065  17.472  0.00  0.00    +0.179 C 
ENDROOT
BRANCH   9   2
ATOM      2  O   UNL     1      -4.674 -10.683  16.845  0.00  0.00    -0.485 OA
BRANCH   2  18
ATOM     18  C   UNL     1      -3.919 -10.643  15.706  0.00  0.00    +0.121 A 
ATOM     19  C   UNL     1      -4.540 -10.630  14.457  0.00  0.00    +0.049 A 
ATOM     20  C   UNL     1      -2.527 -10.615  15.794  0.00  0.00    +0.049 A 
ATOM     21  C   UNL     1      -3.769 -10.591  13.295  0.00  0.00    +0.049 A 
ATOM     22  C   UNL     1      -1.756 -10.576  14.631  0.00  0.00    +0.049 A 
ATOM     23  C   UNL     1      -2.377 -10.563  13.383  0.00  0.00    +0.120 A 
BRANCH  23   5
ATOM      5  O   UNL     1      -1.625 -10.524  12.249  0.00  0.00    -0.495 OA
ATOM     24  C   UNL     1      -2.204  -9.890  11.108  0.00  0.00    +0.277 C 
ENDBRANCH  23   5
ENDBRANCH   2  18
ENDBRANCH   9   2
TORSDOF 3
ENDMDL
MODEL 4
REMARK VINA RESULT:      -5.8     27.312     29.962
REMARK  Name = 75536947
REMARK  4 active torsions:
REMARK  status: ('A' for Active; 'I' for Inactive)
REMARK    1  A    between atoms: O_2  and  C_9
REMARK    2  A    between atoms: O_2  and  C_18
REMARK    3  A    between atoms: O_5  and  C_23
REMARK    4  A    between atoms: O_5  and  C_24
REMARK                            x       y       z     vdW  Elec       q    Type
REMARK                         _______ _______ _______ _____ _____    ______ ____
ROOT
ATOM      1  O   UNL     1     -10.083 -11.632  19.956  0.00  0.00    -0.375 OA
ATOM      3  O   UNL     1     -12.727  -6.314  15.670  0.00  0.00    -0.377 OA
ATOM      4  O   UNL     1      -8.734  -9.279  15.750  0.00  0.00    -0.252 OA
ATOM      6  N   UNL     1     -10.165 -10.339  17.227  0.00  0.00    -0.280 N 
ATOM      7  N   UNL     1     -10.813  -8.346  16.068  0.00  0.00    -0.281 N 
ATOM      8  C   UNL     1      -9.408 -11.598  17.182  0.00  0.00    +0.156 C 
ATOM      9  C   UNL     1      -8.287 -11.697  18.218  0.00  0.00    +0.216 C 
ATOM     10  C   UNL     1     -11.090 -10.150  18.354  0.00  0.00    +0.137 C 
ATOM     11  C   UNL     1      -8.739 -11.988  19.654  0.00  0.00    +0.206 C 
ATOM     12  C   UNL     1      -9.836  -9.320  16.314  0.00  0.00    +0.305 C 
ATOM     13  C   UNL     1     -12.180  -8.672  15.643  0.00  0.00    +0.137 C 
ATOM     14  C   UNL     1     -10.398  -6.990  15.716  0.00  0.00    +0.137 C 
ATOM     15  C   UNL     1     -10.400 -10.269  19.708  0.00  0.00    +0.179 C 
ATOM     16  C   UNL     1     -13.151  -7.604  16.123  0.00  0.00    +0.179 C 
ATOM     17  C   UNL     1     -11.436  -5.982  16.188  0.00  0.00    +0.179 C 
ENDROOT
BRANCH   9   2
ATOM      2  O   UNL     1      -7.502 -10.505  18.185  0.00  0.00    -0.485 OA
BRANCH   2  18
ATOM     18  C   UNL     1      -6.195 -10.646  17.810  0.00  0.00    +0.121 A 
ATOM     19  C   UNL     1      -5.312 -11.370  18.610  0.00  0.00    +0.049 A 
ATOM     20  C   UNL     1      -5.744 -10.063  16.625  0.00  0.00    +0.049 A 
ATOM     21  C   UNL     1      -3.979 -11.512  18.227  0.00  0.00    +0.049 A 
ATOM     22  C   UNL     1      -4.410 -10.205  16.242  0.00  0.00    +0.049 A 
ATOM     23  C   UNL     1      -3.528 -10.929  17.043  0.00  0.00    +0.120 A 
BRANCH  23   5
ATOM      5  O   UNL     1      -2.226 -11.068  16.668  0.00  0.00    -0.495 OA
ATOM     24  C   UNL     1      -1.955 -11.111  15.268  0.00  0.00    +0.277 C 
ENDBRANCH  23   5
ENDBRANCH   2  18
ENDBRANCH   9   2
TORSDOF 3
ENDMDL
MODEL 5
REMARK VINA RESULT:      -5.6     15.700     18.882
REMARK  Name = 75536947
REMARK  4 active torsions:
REMARK  status: ('A' for Active; 'I' for Inactive)
REMARK    1  A    between atoms: O_2  and  C_9
REMARK    2  A    between atoms: O_2  and  C_18
REMARK    3  A    between atoms: O_5  and  C_23
REMARK    4  A    between atoms: O_5  and  C_24
REMARK                            x       y       z     vdW  Elec       q    Type
REMARK                         _______ _______ _______ _____ _____    ______ ____
ROOT
ATOM      1  O   UNL     1      10.876   9.600   2.110  0.00  0.00    -0.375 OA
ATOM      3  O   UNL     1      12.957   3.062  -0.450  0.00  0.00    -0.377 OA
ATOM      4  O   UNL     1      10.395   4.800   3.442  0.00  0.00    -0.252 OA
ATOM      6  N   UNL     1      10.410   6.618   2.011  0.00  0.00    -0.280 N 
ATOM      7  N   UNL     1      11.428   4.536   1.403  0.00  0.00    -0.281 N 
ATOM      8  C   UNL     1       9.315   7.290   2.724  0.00  0.00    +0.156 C 
ATOM      9  C   UNL     1       9.772   8.202   3.865  0.00  0.00    +0.216 C 
ATOM     10  C   UNL     1      11.237   7.442   1.118  0.00  0.00    +0.137 C 
ATOM     11  C   UNL     1      10.358   9.552   3.435  0.00  0.00    +0.206 C 
ATOM     12  C   UNL     1      10.723   5.289   2.353  0.00  0.00    +0.305 C 
ATOM     13  C   UNL     1      10.974   4.369   0.017  0.00  0.00    +0.137 C 
ATOM     14  C   UNL     1      12.332   3.481   1.855  0.00  0.00    +0.137 C 
ATOM     15  C   UNL     1      11.874   8.627   1.833  0.00  0.00    +0.179 C 
ATOM     16  C   UNL     1      12.165   4.163  -0.907  0.00  0.00    +0.179 C 
ATOM     17  C   UNL     1      13.471   3.304   0.862  0.00  0.00    +0.179 C 
ENDROOT
BRANCH   9   2
ATOM      2  O   UNL     1      10.705   7.503   4.688  0.00  0.00    -0.485 OA
BRANCH   2  18
ATOM     18  C   UNL     1      10.246   7.074   5.902  0.00  0.00    +0.121 A 
ATOM     19  C   UNL     1       9.156   7.706   6.499  0.00  0.00    +0.049 A 
ATOM     20  C   UNL     1      10.870   6.004   6.544  0.00  0.00    +0.049 A 
ATOM     21  C   UNL     1       8.690   7.270   7.739  0.00  0.00    +0.049 A 
ATOM     22  C   UNL     1      10.403   5.567   7.784  0.00  0.00    +0.049 A 
ATOM     23  C   UNL     1       9.313   6.199   8.381  0.00  0.00    +0.120 A 
BRANCH  23   5
ATOM      5  O   UNL     1       8.857   5.772   9.590  0.00  0.00    -0.495 OA
ATOM     24  C   UNL     1       9.142   4.421   9.951  0.00  0.00    +0.277 C 
ENDBRANCH  23   5
ENDBRANCH   2  18
ENDBRANCH   9   2
TORSDOF 3
ENDMDL
MODEL 6
REMARK VINA RESULT:      -5.5     27.636     29.476
REMARK  Name = 75536947
REMARK  4 active torsions:
REMARK  status: ('A' for Active; 'I' for Inactive)
REMARK    1  A    between atoms: O_2  and  C_9
REMARK    2  A    between atoms: O_2  and  C_18
REMARK    3  A    between atoms: O_5  and  C_23
REMARK    4  A    between atoms: O_5  and  C_24
REMARK                            x       y       z     vdW  Elec       q    Type
REMARK                         _______ _______ _______ _____ _____    ______ ____
ROOT
ATOM      1  O   UNL     1      -1.840 -13.089  13.004  0.00  0.00    -0.375 OA
ATOM      3  O   UNL     1      -6.067  -9.396   8.299  0.00  0.00    -0.377 OA
ATOM      4  O   UNL     1      -5.482  -9.663  13.231  0.00  0.00    -0.252 OA
ATOM      6  N   UNL     1      -3.543 -10.656  12.450  0.00  0.00    -0.280 N 
ATOM      7  N   UNL     1      -5.186  -9.766  10.952  0.00  0.00    -0.281 N 
ATOM      8  C   UNL     1      -2.860 -10.527  13.745  0.00  0.00    +0.156 C 
ATOM      9  C   UNL     1      -3.070 -11.712  14.690  0.00  0.00    +0.216 C 
ATOM     10  C   UNL     1      -2.985 -11.617  11.488  0.00  0.00    +0.137 C 
ATOM     11  C   UNL     1      -2.263 -12.972  14.358  0.00  0.00    +0.206 C 
ATOM     12  C   UNL     1      -4.780 -10.007  12.271  0.00  0.00    +0.305 C 
ATOM     13  C   UNL     1      -4.353  -9.055   9.974  0.00  0.00    +0.137 C 
ATOM     14  C   UNL     1      -6.613  -9.734  10.638  0.00  0.00    +0.137 C 
ATOM     15  C   UNL     1      -2.894 -13.030  12.052  0.00  0.00    +0.179 C 
ATOM     16  C   UNL     1      -4.668  -9.535   8.565  0.00  0.00    +0.179 C 
ATOM     17  C   UNL     1      -6.846 -10.184   9.203  0.00  0.00    +0.179 C 
ENDROOT
BRANCH   9   2
ATOM      2  O   UNL     1      -4.461 -12.027  14.756  0.00  0.00    -0.485 OA
BRANCH   2  18
ATOM     18  C   UNL     1      -5.030 -12.015  15.999  0.00  0.00    +0.121 A 
ATOM     19  C   UNL     1      -5.845 -13.072  16.404  0.00  0.00    +0.049 A 
ATOM     20  C   UNL     1      -4.797 -10.945  16.862  0.00  0.00    +0.049 A 
ATOM     21  C   UNL     1      -6.427 -13.059  17.671  0.00  0.00    +0.049 A 
ATOM     22  C   UNL     1      -5.379 -10.932  18.130  0.00  0.00    +0.049 A 
ATOM     23  C   UNL     1      -6.193 -11.989  18.534  0.00  0.00    +0.120 A 
BRANCH  23   5
ATOM      5  O   UNL     1      -6.760 -11.977  19.772  0.00  0.00    -0.495 OA
ATOM     24  C   UNL     1      -7.958 -12.734  19.944  0.00  0.00    +0.277 C 
ENDBRANCH  23   5
ENDBRANCH   2  18
ENDBRANCH   9   2
TORSDOF 3
ENDMDL
MODEL 7
REMARK VINA RESULT:      -5.5     17.364     20.279
REMARK  Name = 75536947
REMARK  4 active torsions:
REMARK  status: ('A' for Active; 'I' for Inactive)
REMARK    1  A    between atoms: O_2  and  C_9
REMARK    2  A    between atoms: O_2  and  C_18
REMARK    3  A    between atoms: O_5  and  C_23
REMARK    4  A    between atoms: O_5  and  C_24
REMARK                            x       y       z     vdW  Elec       q    Type
REMARK                         _______ _______ _______ _____ _____    ______ ____
ROOT
ATOM      1  O   UNL     1      10.534   3.949  -0.150  0.00  0.00    -0.375 OA
ATOM      3  O   UNL     1      17.341   5.970  -1.946  0.00  0.00    -0.377 OA
ATOM      4  O   UNL     1      14.774   5.133   2.232  0.00  0.00    -0.252 OA
ATOM      6  N   UNL     1      13.448   4.122   0.628  0.00  0.00    -0.280 N 
ATOM      7  N   UNL     1      15.526   5.168   0.057  0.00  0.00    -0.281 N 
ATOM      8  C   UNL     1      12.690   3.352   1.624  0.00  0.00    +0.156 C 
ATOM      9  C   UNL     1      11.456   4.072   2.171  0.00  0.00    +0.216 C 
ATOM     10  C   UNL     1      12.850   4.267  -0.707  0.00  0.00    +0.137 C 
ATOM     11  C   UNL     1      10.243   4.106   1.234  0.00  0.00    +0.206 C 
ATOM     12  C   UNL     1      14.593   4.826   1.046  0.00  0.00    +0.305 C 
ATOM     13  C   UNL     1      16.120   4.185  -0.857  0.00  0.00    +0.137 C 
ATOM     14  C   UNL     1      16.330   6.376   0.222  0.00  0.00    +0.137 C 
ATOM     15  C   UNL     1      11.462   4.894  -0.666  0.00  0.00    +0.179 C 
ATOM     16  C   UNL     1      16.485   4.847  -2.178  0.00  0.00    +0.179 C 
ATOM     17  C   UNL     1      16.692   6.956  -1.138  0.00  0.00    +0.179 C 
ENDROOT
BRANCH   9   2
ATOM      2  O   UNL     1      11.811   5.399   2.559  0.00  0.00    -0.485 OA
BRANCH   2  18
ATOM     18  C   UNL     1      11.466   5.777   3.826  0.00  0.00    +0.121 A 
ATOM     19  C   UNL     1      12.028   6.921   4.391  0.00  0.00    +0.049 A 
ATOM     20  C   UNL     1      10.551   5.017   4.555  0.00  0.00    +0.049 A 
ATOM     21  C   UNL     1      11.677   7.306   5.685  0.00  0.00    +0.049 A 
ATOM     22  C   UNL     1      10.200   5.402   5.850  0.00  0.00    +0.049 A 
ATOM     23  C   UNL     1      10.762   6.546   6.414  0.00  0.00    +0.120 A 
BRANCH  23   5
ATOM      5  O   UNL     1      10.418   6.922   7.676  0.00  0.00    -0.495 OA
ATOM     24  C   UNL     1       9.444   6.125   8.348  0.00  0.00    +0.277 C 
ENDBRANCH  23   5
ENDBRANCH   2  18
ENDBRANCH   9   2
TORSDOF 3
ENDMDL
MODEL 8
REMARK VINA RESULT:      -5.4      4.867     10.062
REMARK  Name = 75536947
REMARK  4 active torsions:
REMARK  status: ('A' for Active; 'I' for Inactive)
REMARK    1  A    between atoms: O_2  and  C_9
REMARK    2  A    between atoms: O_2  and  C_18
REMARK    3  A    between atoms: O_5  and  C_23
REMARK    4  A    between atoms: O_5  and  C_24
REMARK                            x       y       z     vdW  Elec       q    Type
REMARK                         _______ _______ _______ _____ _____    ______ ____
ROOT
ATOM      1  O   UNL     1      22.578   8.410  21.848  0.00  0.00    -0.375 OA
ATOM      3  O   UNL     1      24.592   2.191  25.149  0.00  0.00    -0.377 OA
ATOM      4  O   UNL     1      21.476   3.540  21.515  0.00  0.00    -0.252 OA
ATOM      6  N   UNL     1      22.832   5.403  21.718  0.00  0.00    -0.280 N 
ATOM      7  N   UNL     1      23.180   3.448  23.058  0.00  0.00    -0.281 N 
ATOM      8  C   UNL     1      22.419   5.945  20.416  0.00  0.00    +0.156 C 
ATOM      9  C   UNL     1      21.188   6.852  20.473  0.00  0.00    +0.216 C 
ATOM     10  C   UNL     1      23.469   6.332  22.662  0.00  0.00    +0.137 C 
ATOM     11  C   UNL     1      21.433   8.265  21.014  0.00  0.00    +0.206 C 
ATOM     12  C   UNL     1      22.437   4.096  22.062  0.00  0.00    +0.305 C 
ATOM     13  C   UNL     1      24.639   3.291  22.994  0.00  0.00    +0.137 C 
ATOM     14  C   UNL     1      22.523   2.464  23.914  0.00  0.00    +0.137 C 
ATOM     15  C   UNL     1      22.598   7.544  22.974  0.00  0.00    +0.179 C 
ATOM     16  C   UNL     1      25.225   3.231  24.397  0.00  0.00    +0.179 C 
ATOM     17  C   UNL     1      23.188   2.429  25.282  0.00  0.00    +0.179 C 
ENDROOT
BRANCH   9   2
ATOM      2  O   UNL     1      20.159   6.211  21.228  0.00  0.00    -0.485 OA
BRANCH   2  18
ATOM     18  C   UNL     1      18.888   6.313  20.735  0.00  0.00    +0.121 A 
ATOM     19  C   UNL     1      17.938   7.080  21.409  0.00  0.00    +0.049 A 
ATOM     20  C   UNL     1      18.541   5.648  19.559  0.00  0.00    +0.049 A 
ATOM     21  C   UNL     1      16.641   7.182  20.907  0.00  0.00    +0.049 A 
ATOM     22  C   UNL     1      17.243   5.749  19.057  0.00  0.00    +0.049 A 
ATOM     23  C   UNL     1      16.294   6.517  19.731  0.00  0.00    +0.120 A 
BRANCH  23   5
ATOM      5  O   UNL     1      15.028   6.618  19.240  0.00  0.00    -0.495 OA
ATOM     24  C   UNL     1      13.989   6.898  20.179  0.00  0.00    +0.277 C 
ENDBRANCH  23   5
ENDBRANCH   2  18
ENDBRANCH   9   2
TORSDOF 3
ENDMDL
MODEL 9
REMARK VINA RESULT:      -5.4     25.144     27.100
REMARK  Name = 75536947
REMARK  4 active torsions:
REMARK  status: ('A' for Active; 'I' for Inactive)
REMARK    1  A    between atoms: O_2  and  C_9
REMARK    2  A    between atoms: O_2  and  C_18
REMARK    3  A    between atoms: O_5  and  C_23
REMARK    4  A    between atoms: O_5  and  C_24
REMARK                            x       y       z     vdW  Elec       q    Type
REMARK                         _______ _______ _______ _____ _____    ______ ____
ROOT
ATOM      1  O   UNL     1     -10.151   8.692  15.641  0.00  0.00    -0.375 OA
ATOM      3  O   UNL     1     -12.061  15.570  17.281  0.00  0.00    -0.377 OA
ATOM      4  O   UNL     1     -11.802  11.201  19.645  0.00  0.00    -0.252 OA
ATOM      6  N   UNL     1     -10.522  10.816  17.756  0.00  0.00    -0.280 N 
ATOM      7  N   UNL     1     -11.525  12.950  18.176  0.00  0.00    -0.281 N 
ATOM      8  C   UNL     1      -9.892   9.618  18.329  0.00  0.00    +0.156 C 
ATOM      9  C   UNL     1     -10.652   8.318  18.062  0.00  0.00    +0.216 C 
ATOM     10  C   UNL     1     -10.445  10.985  16.298  0.00  0.00    +0.137 C 
ATOM     11  C   UNL     1     -10.509   7.749  16.645  0.00  0.00    +0.206 C 
ATOM     12  C   UNL     1     -11.312  11.629  18.591  0.00  0.00    +0.305 C 
ATOM     13  C   UNL     1     -10.431  13.872  17.845  0.00  0.00    +0.137 C 
ATOM     14  C   UNL     1     -12.766  13.625  18.549  0.00  0.00    +0.137 C 
ATOM     15  C   UNL     1     -11.032   9.803  15.537  0.00  0.00    +0.179 C 
ATOM     16  C   UNL     1     -10.893  14.890  16.812  0.00  0.00    +0.179 C 
ATOM     17  C   UNL     1     -13.141  14.656  17.494  0.00  0.00    +0.179 C 
ENDROOT
BRANCH   9   2
ATOM      2  O   UNL     1     -12.032   8.499  18.379  0.00  0.00    -0.485 OA
BRANCH   2  18
ATOM     18  C   UNL     1     -12.525   7.749  19.410  0.00  0.00    +0.121 A 
ATOM     19  C   UNL     1     -11.661   6.980  20.189  0.00  0.00    +0.049 A 
ATOM     20  C   UNL     1     -13.893   7.753  19.682  0.00  0.00    +0.049 A 
ATOM     21  C   UNL     1     -12.164   6.214  21.240  0.00  0.00    +0.049 A 
ATOM     22  C   UNL     1     -14.397   6.986  20.733  0.00  0.00    +0.049 A 
ATOM     23  C   UNL     1     -13.533   6.218  21.512  0.00  0.00    +0.120 A 
BRANCH  23   5
ATOM      5  O   UNL     1     -14.024   5.471  22.539  0.00  0.00    -0.495 OA
ATOM     24  C   UNL     1     -15.425   5.561  22.794  0.00  0.00    +0.277 C 
ENDBRANCH  23   5
ENDBRANCH   2  18
ENDBRANCH   9   2
TORSDOF 3
ENDMDL
MODEL 10
REMARK VINA RESULT:      -5.4     27.606     30.140
REMARK  Name = 75536947
REMARK  4 active torsions:
REMARK  status: ('A' for Active; 'I' for Inactive)
REMARK    1  A    between atoms: O_2  and  C_9
REMARK    2  A    between atoms: O_2  and  C_18
REMARK    3  A    between atoms: O_5  and  C_23
REMARK    4  A    between atoms: O_5  and  C_24
REMARK                            x       y       z     vdW  Elec       q    Type
REMARK                         _______ _______ _______ _____ _____    ______ ____
ROOT
ATOM      1  O   UNL     1      -7.107 -13.618  17.903  0.00  0.00    -0.375 OA
ATOM      3  O   UNL     1      -1.921 -11.951  13.008  0.00  0.00    -0.377 OA
ATOM      4  O   UNL     1      -5.579  -9.568  15.391  0.00  0.00    -0.252 OA
ATOM      6  N   UNL     1      -5.359 -11.505  16.637  0.00  0.00    -0.280 N 
ATOM      7  N   UNL     1      -3.947 -11.059  14.754  0.00  0.00    -0.281 N 
ATOM      8  C   UNL     1      -6.099 -10.950  17.779  0.00  0.00    +0.156 C 
ATOM      9  C   UNL     1      -7.611 -11.176  17.720  0.00  0.00    +0.216 C 
ATOM     10  C   UNL     1      -5.212 -12.966  16.577  0.00  0.00    +0.137 C 
ATOM     11  C   UNL     1      -8.080 -12.593  18.070  0.00  0.00    +0.206 C 
ATOM     12  C   UNL     1      -4.998 -10.644  15.583  0.00  0.00    +0.305 C 
ATOM     13  C   UNL     1      -2.626 -11.443  15.267  0.00  0.00    +0.137 C 
ATOM     14  C   UNL     1      -3.933 -10.641  13.355  0.00  0.00    +0.137 C 
ATOM     15  C   UNL     1      -6.551 -13.694  16.597  0.00  0.00    +0.179 C 
ATOM     16  C   UNL     1      -1.977 -12.463  14.343  0.00  0.00    +0.179 C 
ATOM     17  C   UNL     1      -3.231 -11.687  12.500  0.00  0.00    +0.179 C 
ENDROOT
BRANCH   9   2
ATOM      2  O   UNL     1      -8.098 -10.803  16.431  0.00  0.00    -0.485 OA
BRANCH   2  18
ATOM     18  C   UNL     1      -8.854  -9.666  16.370  0.00  0.00    +0.121 A 
ATOM     19  C   UNL     1      -9.307  -9.194  15.138  0.00  0.00    +0.049 A 
ATOM     20  C   UNL     1      -9.174  -8.978  17.541  0.00  0.00    +0.049 A 
ATOM     21  C   UNL     1     -10.077  -8.033  15.077  0.00  0.00    +0.049 A 
ATOM     22  C   UNL     1      -9.944  -7.816  17.479  0.00  0.00    +0.049 A 
ATOM     23  C   UNL     1     -10.396  -7.345  16.247  0.00  0.00    +0.120 A 
BRANCH  23   5
ATOM      5  O   UNL     1     -11.149  -6.212  16.187  0.00  0.00    -0.495 OA
ATOM     24  C   UNL     1     -11.726  -5.883  14.923  0.00  0.00    +0.277 C 
ENDBRANCH  23   5
ENDBRANCH   2  18
ENDBRANCH   9   2
TORSDOF 3
ENDMDL
