MODEL 1
REMARK VINA RESULT:      -7.5      0.000      0.000
REMARK  Name = 11885335
REMARK  4 active torsions:
REMARK  status: ('A' for Active; 'I' for Inactive)
REMARK    1  A    between atoms: S_1  and  C_27
REMARK    2  A    between atoms: S_1  and  C_28
REMARK    3  A    between atoms: N_4  and  C_12
REMARK    4  A    between atoms: C_20  and  C_22
REMARK                            x       y       z     vdW  Elec       q    Type
REMARK                         _______ _______ _______ _____ _____    ______ ____
ROOT
ATOM      3  O   UNL     1      15.989   6.089  21.611  0.00  0.00    -0.267 OA
ATOM      4  N   UNL     1      13.312   9.647  19.304  0.00  0.00    -0.298 NA
ATOM      5  N   UNL     1      15.158   8.265  21.509  0.00  0.00    -0.311 N 
ATOM      6  C   UNL     1      12.651   8.793  21.566  0.00  0.00    +0.024 C 
ATOM      7  C   UNL     1      14.272  10.619  21.396  0.00  0.00    +0.050 C 
ATOM      8  C   UNL     1      13.090  10.101  22.210  0.00  0.00    +0.017 C 
ATOM      9  C   UNL     1      12.239   9.039  20.099  0.00  0.00    +0.090 C 
ATOM     10  C   UNL     1      13.823  10.872  19.939  0.00  0.00    +0.094 C 
ATOM     11  C   UNL     1      13.786   7.769  21.697  0.00  0.00    +0.130 C 
ATOM     13  C   UNL     1      15.425   9.634  21.433  0.00  0.00    +0.026 A 
ATOM     16  C   UNL     1      16.694  10.070  21.374  0.00  0.00    +0.022 A 
ATOM     17  C   UNL     1      16.185   7.301  21.512  0.00  0.00    +0.259 A 
ATOM     20  C   UNL     1      17.595   7.819  21.411  0.00  0.00    +0.047 A 
ATOM     21  C   UNL     1      17.792   9.144  21.357  0.00  0.00    +0.015 A 
ENDROOT
BRANCH   4  12
ATOM      2  O   UNL     1      12.679   9.055  15.196  0.00  0.00    -0.380 OA
ATOM     12  C   UNL     1      12.868   9.912  17.938  0.00  0.00    +0.061 C 
ATOM     14  C   UNL     1      14.065   9.943  16.985  0.00  0.00    +0.047 C 
ATOM     15  C   UNL     1      11.855   8.860  17.474  0.00  0.00    +0.047 C 
ATOM     18  C   UNL     1      13.591  10.097  15.543  0.00  0.00    +0.161 C 
ATOM     19  C   UNL     1      11.504   9.074  16.006  0.00  0.00    +0.161 C 
ENDBRANCH   4  12
BRANCH  20  22
ATOM     22  C   UNL     1      18.745   6.897  21.361  0.00  0.00    -0.013 A 
ATOM     23  C   UNL     1      18.926   6.067  20.255  0.00  0.00    +0.010 A 
ATOM     24  C   UNL     1      19.652   6.854  22.420  0.00  0.00    +0.010 A 
ATOM     25  C   UNL     1      20.013   5.194  20.207  0.00  0.00    +0.015 A 
ATOM     26  C   UNL     1      20.739   5.982  22.372  0.00  0.00    +0.015 A 
ATOM     27  C   UNL     1      20.920   5.151  21.266  0.00  0.00    +0.008 A 
BRANCH  27   1
ATOM      1  S   UNL     1      22.308   4.036  21.206  0.00  0.00    -0.129 S 
ATOM     28  C   UNL     1      22.789   3.950  22.954  0.00  0.00    +0.090 C 
ENDBRANCH  27   1
ENDBRANCH  20  22
TORSDOF 3
ENDMDL
MODEL 2
REMARK VINA RESULT:      -7.2     27.489     29.707
REMARK  Name = 11885335
REMARK  4 active torsions:
REMARK  status: ('A' for Active; 'I' for Inactive)
REMARK    1  A    between atoms: S_1  and  C_27
REMARK    2  A    between atoms: S_1  and  C_28
REMARK    3  A    between atoms: N_4  and  C_12
REMARK    4  A    between atoms: C_20  and  C_22
REMARK                            x       y       z     vdW  Elec       q    Type
REMARK                         _______ _______ _______ _____ _____    ______ ____
ROOT
ATOM      3  O   UNL     1     -15.037   8.665  20.559  0.00  0.00    -0.267 OA
ATOM      4  N   UNL     1     -11.800   9.323  16.786  0.00  0.00    -0.298 NA
ATOM      5  N   UNL     1     -12.875   9.052  19.778  0.00  0.00    -0.311 N 
ATOM      6  C   UNL     1     -12.238  11.148  18.449  0.00  0.00    +0.024 C 
ATOM      7  C   UNL     1     -10.537   9.457  18.937  0.00  0.00    +0.050 C 
ATOM      8  C   UNL     1     -10.861  10.943  19.067  0.00  0.00    +0.017 C 
ATOM      9  C   UNL     1     -12.221  10.718  16.967  0.00  0.00    +0.090 C 
ATOM     10  C   UNL     1     -10.510   9.063  17.443  0.00  0.00    +0.094 C 
ATOM     11  C   UNL     1     -13.273  10.375  19.276  0.00  0.00    +0.130 C 
ATOM     13  C   UNL     1     -11.550   8.616  19.691  0.00  0.00    +0.026 A 
ATOM     16  C   UNL     1     -11.185   7.454  20.255  0.00  0.00    +0.022 A 
ATOM     17  C   UNL     1     -13.868   8.298  20.434  0.00  0.00    +0.259 A 
ATOM     20  C   UNL     1     -13.435   6.984  21.026  0.00  0.00    +0.047 A 
ATOM     21  C   UNL     1     -12.147   6.625  20.926  0.00  0.00    +0.015 A 
ENDROOT
BRANCH   4  12
ATOM      2  O   UNL     1     -11.713   6.934  13.335  0.00  0.00    -0.380 OA
ATOM     12  C   UNL     1     -11.746   8.971  15.370  0.00  0.00    +0.061 C 
ATOM     14  C   UNL     1     -10.506   8.123  15.079  0.00  0.00    +0.047 C 
ATOM     15  C   UNL     1     -13.009   8.217  14.941  0.00  0.00    +0.047 C 
ATOM     18  C   UNL     1     -10.514   7.651  13.627  0.00  0.00    +0.161 C 
ATOM     19  C   UNL     1     -12.879   7.741  13.498  0.00  0.00    +0.161 C 
ENDBRANCH   4  12
BRANCH  20  22
ATOM     22  C   UNL     1     -14.401   6.094  21.697  0.00  0.00    -0.013 A 
ATOM     23  C   UNL     1     -14.120   5.591  22.967  0.00  0.00    +0.010 A 
ATOM     24  C   UNL     1     -15.596   5.755  21.062  0.00  0.00    +0.010 A 
ATOM     25  C   UNL     1     -15.033   4.749  23.603  0.00  0.00    +0.015 A 
ATOM     26  C   UNL     1     -16.509   4.913  21.697  0.00  0.00    +0.015 A 
ATOM     27  C   UNL     1     -16.227   4.409  22.967  0.00  0.00    +0.008 A 
BRANCH  27   1
ATOM      1  S   UNL     1     -17.393   3.333  23.777  0.00  0.00    -0.129 S 
ATOM     28  C   UNL     1     -16.359   2.562  25.054  0.00  0.00    +0.090 C 
ENDBRANCH  27   1
ENDBRANCH  20  22
TORSDOF 3
ENDMDL
MODEL 3
REMARK VINA RESULT:      -6.9     27.920     30.437
REMARK  Name = 11885335
REMARK  4 active torsions:
REMARK  status: ('A' for Active; 'I' for Inactive)
REMARK    1  A    between atoms: S_1  and  C_27
REMARK    2  A    between atoms: S_1  and  C_28
REMARK    3  A    between atoms: N_4  and  C_12
REMARK    4  A    between atoms: C_20  and  C_22
REMARK                            x       y       z     vdW  Elec       q    Type
REMARK                         _______ _______ _______ _____ _____    ______ ____
ROOT
ATOM      3  O   UNL     1      -5.795 -12.132   9.787  0.00  0.00    -0.267 OA
ATOM      4  N   UNL     1      -3.894 -11.022  14.293  0.00  0.00    -0.298 NA
ATOM      5  N   UNL     1      -3.981 -11.625  11.161  0.00  0.00    -0.311 N 
ATOM      6  C   UNL     1      -3.250 -13.132  13.100  0.00  0.00    +0.024 C 
ATOM      7  C   UNL     1      -2.022 -11.065  12.639  0.00  0.00    +0.050 C 
ATOM      8  C   UNL     1      -1.862 -12.572  12.818  0.00  0.00    +0.017 C 
ATOM      9  C   UNL     1      -3.831 -12.487  14.376  0.00  0.00    +0.090 C 
ATOM     10  C   UNL     1      -2.587 -10.448  13.938  0.00  0.00    +0.094 C 
ATOM     11  C   UNL     1      -4.136 -12.904  11.868  0.00  0.00    +0.130 C 
ATOM     13  C   UNL     1      -2.930 -10.755  11.464  0.00  0.00    +0.026 A 
ATOM     16  C   UNL     1      -2.741  -9.646  10.731  0.00  0.00    +0.022 A 
ATOM     17  C   UNL     1      -4.878 -11.373  10.104  0.00  0.00    +0.259 A 
ATOM     20  C   UNL     1      -4.661 -10.105   9.323  0.00  0.00    +0.047 A 
ATOM     21  C   UNL     1      -3.626  -9.317   9.650  0.00  0.00    +0.015 A 
ENDROOT
BRANCH   4  12
ATOM      2  O   UNL     1      -6.254 -10.566  17.734  0.00  0.00    -0.380 OA
ATOM     12  C   UNL     1      -4.399 -10.447  15.536  0.00  0.00    +0.061 C 
ATOM     14  C   UNL     1      -5.873 -10.065  15.386  0.00  0.00    +0.047 C 
ATOM     15  C   UNL     1      -4.226 -11.422  16.706  0.00  0.00    +0.047 C 
ATOM     18  C   UNL     1      -6.434  -9.578  16.719  0.00  0.00    +0.161 C 
ATOM     19  C   UNL     1      -4.877 -10.861  17.965  0.00  0.00    +0.161 C 
ENDBRANCH   4  12
BRANCH  20  22
ATOM     22  C   UNL     1      -5.566  -9.720   8.225  0.00  0.00    -0.013 A 
ATOM     23  C   UNL     1      -6.622  -8.841   8.467  0.00  0.00    +0.010 A 
ATOM     24  C   UNL     1      -5.368 -10.234   6.943  0.00  0.00    +0.010 A 
ATOM     25  C   UNL     1      -7.479  -8.476   7.429  0.00  0.00    +0.015 A 
ATOM     26  C   UNL     1      -6.225  -9.869   5.905  0.00  0.00    +0.015 A 
ATOM     27  C   UNL     1      -7.281  -8.991   6.148  0.00  0.00    +0.008 A 
BRANCH  27   1
ATOM      1  S   UNL     1      -8.376  -8.527   4.822  0.00  0.00    -0.129 S 
ATOM     28  C   UNL     1      -9.409  -7.265   5.619  0.00  0.00    +0.090 C 
ENDBRANCH  27   1
ENDBRANCH  20  22
TORSDOF 3
ENDMDL
MODEL 4
REMARK VINA RESULT:      -6.9      1.895      2.723
REMARK  Name = 11885335
REMARK  4 active torsions:
REMARK  status: ('A' for Active; 'I' for Inactive)
REMARK    1  A    between atoms: S_1  and  C_27
REMARK    2  A    between atoms: S_1  and  C_28
REMARK    3  A    between atoms: N_4  and  C_12
REMARK    4  A    between atoms: C_20  and  C_22
REMARK                            x       y       z     vdW  Elec       q    Type
REMARK                         _______ _______ _______ _____ _____    ______ ____
ROOT
ATOM      3  O   UNL     1      16.171   5.954  18.984  0.00  0.00    -0.267 OA
ATOM      4  N   UNL     1      13.778   9.958  17.145  0.00  0.00    -0.298 NA
ATOM      5  N   UNL     1      14.708   7.749  19.251  0.00  0.00    -0.311 N 
ATOM      6  C   UNL     1      12.511   7.949  17.947  0.00  0.00    +0.024 C 
ATOM      7  C   UNL     1      13.137   9.694  19.545  0.00  0.00    +0.050 C 
ATOM      8  C   UNL     1      12.026   8.717  19.169  0.00  0.00    +0.017 C 
ATOM      9  C   UNL     1      12.797   8.926  16.787  0.00  0.00    +0.090 C 
ATOM     10  C   UNL     1      13.387  10.669  18.372  0.00  0.00    +0.094 C 
ATOM     11  C   UNL     1      13.741   7.120  18.338  0.00  0.00    +0.130 C 
ATOM     13  C   UNL     1      14.411   8.951  19.899  0.00  0.00    +0.026 A 
ATOM     16  C   UNL     1      15.259   9.450  20.813  0.00  0.00    +0.022 A 
ATOM     17  C   UNL     1      15.892   7.031  19.512  0.00  0.00    +0.259 A 
ATOM     20  C   UNL     1      16.838   7.634  20.515  0.00  0.00    +0.047 A 
ATOM     21  C   UNL     1      16.492   8.781  21.118  0.00  0.00    +0.015 A 
ENDROOT
BRANCH   4  12
ATOM      2  O   UNL     1      15.741  12.652  14.593  0.00  0.00    -0.380 OA
ATOM     12  C   UNL     1      13.982  10.893  16.042  0.00  0.00    +0.061 C 
ATOM     14  C   UNL     1      14.390  12.268  16.576  0.00  0.00    +0.047 C 
ATOM     15  C   UNL     1      15.044  10.373  15.067  0.00  0.00    +0.047 C 
ATOM     18  C   UNL     1      14.722  13.209  15.423  0.00  0.00    +0.161 C 
ATOM     19  C   UNL     1      15.340  11.418  13.998  0.00  0.00    +0.161 C 
ENDBRANCH   4  12
BRANCH  20  22
ATOM     22  C   UNL     1      18.126   6.990  20.832  0.00  0.00    -0.013 A 
ATOM     23  C   UNL     1      18.857   7.404  21.946  0.00  0.00    +0.010 A 
ATOM     24  C   UNL     1      18.615   5.968  20.018  0.00  0.00    +0.010 A 
ATOM     25  C   UNL     1      20.077   6.796  22.246  0.00  0.00    +0.015 A 
ATOM     26  C   UNL     1      19.833   5.360  20.319  0.00  0.00    +0.015 A 
ATOM     27  C   UNL     1      20.565   5.774  21.432  0.00  0.00    +0.008 A 
BRANCH  27   1
ATOM      1  S   UNL     1      22.122   4.998  21.814  0.00  0.00    -0.129 S 
ATOM     28  C   UNL     1      21.819   3.285  21.298  0.00  0.00    +0.090 C 
ENDBRANCH  27   1
ENDBRANCH  20  22
TORSDOF 3
ENDMDL
MODEL 5
REMARK VINA RESULT:      -6.7     23.611     26.961
REMARK  Name = 11885335
REMARK  4 active torsions:
REMARK  status: ('A' for Active; 'I' for Inactive)
REMARK    1  A    between atoms: S_1  and  C_27
REMARK    2  A    between atoms: S_1  and  C_28
REMARK    3  A    between atoms: N_4  and  C_12
REMARK    4  A    between atoms: C_20  and  C_22
REMARK                            x       y       z     vdW  Elec       q    Type
REMARK                         _______ _______ _______ _____ _____    ______ ____
ROOT
ATOM      3  O   UNL     1      -6.505   9.725   5.296  0.00  0.00    -0.267 OA
ATOM      4  N   UNL     1      -1.763  10.452   3.835  0.00  0.00    -0.298 NA
ATOM      5  N   UNL     1      -4.220   9.329   5.533  0.00  0.00    -0.311 N 
ATOM      6  C   UNL     1      -2.545  11.183   6.102  0.00  0.00    +0.024 C 
ATOM      7  C   UNL     1      -1.754   8.889   5.783  0.00  0.00    +0.050 C 
ATOM      8  C   UNL     1      -1.751  10.062   6.759  0.00  0.00    +0.017 C 
ATOM      9  C   UNL     1      -1.888  11.582   4.764  0.00  0.00    +0.090 C 
ATOM     10  C   UNL     1      -1.074   9.314   4.462  0.00  0.00    +0.094 C 
ATOM     11  C   UNL     1      -4.000  10.726   5.932  0.00  0.00    +0.130 C 
ATOM     13  C   UNL     1      -3.169   8.408   5.521  0.00  0.00    +0.026 A 
ATOM     16  C   UNL     1      -3.411   7.113   5.263  0.00  0.00    +0.022 A 
ATOM     17  C   UNL     1      -5.549   8.948   5.263  0.00  0.00    +0.259 A 
ATOM     20  C   UNL     1      -5.784   7.497   4.943  0.00  0.00    +0.047 A 
ATOM     21  C   UNL     1      -4.739   6.656   4.963  0.00  0.00    +0.015 A 
ENDROOT
BRANCH   4  12
ATOM      2  O   UNL     1       1.043  10.459   0.713  0.00  0.00    -0.380 OA
ATOM     12  C   UNL     1      -1.091  10.857   2.603  0.00  0.00    +0.061 C 
ATOM     14  C   UNL     1       0.353  11.272   2.896  0.00  0.00    +0.047 C 
ATOM     15  C   UNL     1      -1.112   9.730   1.566  0.00  0.00    +0.047 C 
ATOM     18  C   UNL     1       1.092  11.578   1.597  0.00  0.00    +0.161 C 
ATOM     19  C   UNL     1      -0.293  10.121   0.341  0.00  0.00    +0.161 C 
ENDBRANCH   4  12
BRANCH  20  22
ATOM     22  C   UNL     1      -7.128   6.997   4.603  0.00  0.00    -0.013 A 
ATOM     23  C   UNL     1      -7.786   7.482   3.472  0.00  0.00    +0.010 A 
ATOM     24  C   UNL     1      -7.744   6.041   5.410  0.00  0.00    +0.010 A 
ATOM     25  C   UNL     1      -9.059   7.010   3.148  0.00  0.00    +0.015 A 
ATOM     26  C   UNL     1      -9.016   5.569   5.087  0.00  0.00    +0.015 A 
ATOM     27  C   UNL     1      -9.674   6.054   3.957  0.00  0.00    +0.008 A 
BRANCH  27   1
ATOM      1  S   UNL     1     -11.300   5.453   3.546  0.00  0.00    -0.129 S 
ATOM     28  C   UNL     1     -11.386   5.803   1.768  0.00  0.00    +0.090 C 
ENDBRANCH  27   1
ENDBRANCH  20  22
TORSDOF 3
ENDMDL
MODEL 6
REMARK VINA RESULT:      -6.2     28.123     31.364
REMARK  Name = 11885335
REMARK  4 active torsions:
REMARK  status: ('A' for Active; 'I' for Inactive)
REMARK    1  A    between atoms: S_1  and  C_27
REMARK    2  A    between atoms: S_1  and  C_28
REMARK    3  A    between atoms: N_4  and  C_12
REMARK    4  A    between atoms: C_20  and  C_22
REMARK                            x       y       z     vdW  Elec       q    Type
REMARK                         _______ _______ _______ _____ _____    ______ ____
ROOT
ATOM      3  O   UNL     1      -8.820  -8.378  17.458  0.00  0.00    -0.267 OA
ATOM      4  N   UNL     1      -5.005 -11.473  16.445  0.00  0.00    -0.298 NA
ATOM      5  N   UNL     1      -7.844 -10.495  17.525  0.00  0.00    -0.311 N 
ATOM      6  C   UNL     1      -5.680 -10.982  18.809  0.00  0.00    +0.024 C 
ATOM      7  C   UNL     1      -6.799 -12.784  17.587  0.00  0.00    +0.050 C 
ATOM      8  C   UNL     1      -6.257 -12.383  18.956  0.00  0.00    +0.017 C 
ATOM      9  C   UNL     1      -4.555 -10.981  17.753  0.00  0.00    +0.090 C 
ATOM     10  C   UNL     1      -5.646 -12.792  16.558  0.00  0.00    +0.094 C 
ATOM     11  C   UNL     1      -6.818 -10.012  18.460  0.00  0.00    +0.130 C 
ATOM     13  C   UNL     1      -7.899 -11.838  17.145  0.00  0.00    +0.026 A 
ATOM     16  C   UNL     1      -8.910 -12.281  16.380  0.00  0.00    +0.022 A 
ATOM     17  C   UNL     1      -8.818  -9.562  17.117  0.00  0.00    +0.259 A 
ATOM     20  C   UNL     1      -9.919 -10.081  16.232  0.00  0.00    +0.047 A 
ATOM     21  C   UNL     1      -9.930 -11.384  15.913  0.00  0.00    +0.015 A 
ENDROOT
BRANCH   4  12
ATOM      2  O   UNL     1      -1.899 -10.089  13.984  0.00  0.00    -0.380 OA
ATOM     12  C   UNL     1      -3.902 -11.506  15.489  0.00  0.00    +0.061 C 
ATOM     14  C   UNL     1      -4.243 -10.672  14.252  0.00  0.00    +0.047 C 
ATOM     15  C   UNL     1      -2.605 -10.995  16.125  0.00  0.00    +0.047 C 
ATOM     18  C   UNL     1      -3.045 -10.606  13.309  0.00  0.00    +0.161 C 
ATOM     19  C   UNL     1      -1.498 -10.912  15.079  0.00  0.00    +0.161 C 
ENDBRANCH   4  12
BRANCH  20  22
ATOM     22  C   UNL     1     -10.966  -9.183  15.710  0.00  0.00    -0.013 A 
ATOM     23  C   UNL     1     -12.078  -8.878  16.496  0.00  0.00    +0.010 A 
ATOM     24  C   UNL     1     -10.846  -8.638  14.432  0.00  0.00    +0.010 A 
ATOM     25  C   UNL     1     -13.069  -8.028  16.004  0.00  0.00    +0.015 A 
ATOM     26  C   UNL     1     -11.837  -7.789  13.939  0.00  0.00    +0.015 A 
ATOM     27  C   UNL     1     -12.949  -7.485  14.724  0.00  0.00    +0.008 A 
BRANCH  27   1
ATOM      1  S   UNL     1     -14.215  -6.402  14.094  0.00  0.00    -0.129 S 
ATOM     28  C   UNL     1     -13.352  -5.581  12.725  0.00  0.00    +0.090 C 
ENDBRANCH  27   1
ENDBRANCH  20  22
TORSDOF 3
ENDMDL
MODEL 7
REMARK VINA RESULT:      -6.1     22.486     24.546
REMARK  Name = 11885335
REMARK  4 active torsions:
REMARK  status: ('A' for Active; 'I' for Inactive)
REMARK    1  A    between atoms: S_1  and  C_27
REMARK    2  A    between atoms: S_1  and  C_28
REMARK    3  A    between atoms: N_4  and  C_12
REMARK    4  A    between atoms: C_20  and  C_22
REMARK                            x       y       z     vdW  Elec       q    Type
REMARK                         _______ _______ _______ _____ _____    ______ ____
ROOT
ATOM      3  O   UNL     1       9.243 -11.673  31.882  0.00  0.00    -0.267 OA
ATOM      4  N   UNL     1       7.364  -8.446  35.229  0.00  0.00    -0.298 NA
ATOM      5  N   UNL     1       8.619  -9.513  32.496  0.00  0.00    -0.311 N 
ATOM      6  C   UNL     1       9.731  -8.247  34.427  0.00  0.00    +0.024 C 
ATOM      7  C   UNL     1       7.934  -7.181  33.152  0.00  0.00    +0.050 C 
ATOM      8  C   UNL     1       9.374  -7.004  33.623  0.00  0.00    +0.017 C 
ATOM      9  C   UNL     1       8.775  -8.390  35.630  0.00  0.00    +0.090 C 
ATOM     10  C   UNL     1       7.001  -7.303  34.378  0.00  0.00    +0.094 C 
ATOM     11  C   UNL     1       9.695  -9.466  33.496  0.00  0.00    +0.130 C 
ATOM     13  C   UNL     1       7.804  -8.402  32.262  0.00  0.00    +0.026 A 
ATOM     16  C   UNL     1       6.901  -8.427  31.268  0.00  0.00    +0.022 A 
ATOM     17  C   UNL     1       8.521 -10.688  31.726  0.00  0.00    +0.259 A 
ATOM     20  C   UNL     1       7.476 -10.698  30.642  0.00  0.00    +0.047 A 
ATOM     21  C   UNL     1       6.734  -9.597  30.452  0.00  0.00    +0.015 A 
ENDROOT
BRANCH   4  12
ATOM      2  O   UNL     1       4.176  -7.572  37.816  0.00  0.00    -0.380 OA
ATOM     12  C   UNL     1       6.490  -8.529  36.396  0.00  0.00    +0.061 C 
ATOM     14  C   UNL     1       6.484  -7.198  37.152  0.00  0.00    +0.047 C 
ATOM     15  C   UNL     1       5.062  -8.908  35.991  0.00  0.00    +0.047 C 
ATOM     18  C   UNL     1       5.479  -7.243  38.299  0.00  0.00    +0.161 C 
ATOM     19  C   UNL     1       4.136  -8.859  37.201  0.00  0.00    +0.161 C 
ENDBRANCH   4  12
BRANCH  20  22
ATOM     22  C   UNL     1       7.257 -11.892  29.804  0.00  0.00    -0.013 A 
ATOM     23  C   UNL     1       6.216 -12.771  30.103  0.00  0.00    +0.010 A 
ATOM     24  C   UNL     1       8.090 -12.142  28.713  0.00  0.00    +0.010 A 
ATOM     25  C   UNL     1       6.008 -13.901  29.311  0.00  0.00    +0.015 A 
ATOM     26  C   UNL     1       7.881 -13.271  27.922  0.00  0.00    +0.015 A 
ATOM     27  C   UNL     1       6.841 -14.151  28.221  0.00  0.00    +0.008 A 
BRANCH  27   1
ATOM      1  S   UNL     1       6.577 -15.595  27.210  0.00  0.00    -0.129 S 
ATOM     28  C   UNL     1       5.177 -16.385  28.052  0.00  0.00    +0.090 C 
ENDBRANCH  27   1
ENDBRANCH  20  22
TORSDOF 3
ENDMDL
MODEL 8
REMARK VINA RESULT:      -6.1     16.893     21.227
REMARK  Name = 11885335
REMARK  4 active torsions:
REMARK  status: ('A' for Active; 'I' for Inactive)
REMARK    1  A    between atoms: S_1  and  C_27
REMARK    2  A    between atoms: S_1  and  C_28
REMARK    3  A    between atoms: N_4  and  C_12
REMARK    4  A    between atoms: C_20  and  C_22
REMARK                            x       y       z     vdW  Elec       q    Type
REMARK                         _______ _______ _______ _____ _____    ______ ____
ROOT
ATOM      3  O   UNL     1      12.086   7.411   1.807  0.00  0.00    -0.267 OA
ATOM      4  N   UNL     1      11.876   4.455  -2.239  0.00  0.00    -0.298 NA
ATOM      5  N   UNL     1      12.782   5.524   0.627  0.00  0.00    -0.311 N 
ATOM      6  C   UNL     1      13.984   5.668  -1.631  0.00  0.00    +0.024 C 
ATOM      7  C   UNL     1      13.525   3.478  -0.638  0.00  0.00    +0.050 C 
ATOM      8  C   UNL     1      14.636   4.360  -1.202  0.00  0.00    +0.017 C 
ATOM      9  C   UNL     1      12.905   5.395  -2.700  0.00  0.00    +0.090 C 
ATOM     10  C   UNL     1      12.472   3.209  -1.737  0.00  0.00    +0.094 C 
ATOM     11  C   UNL     1      13.420   6.372  -0.390  0.00  0.00    +0.130 C 
ATOM     13  C   UNL     1      12.879   4.131   0.569  0.00  0.00    +0.026 A 
ATOM     16  C   UNL     1      12.386   3.379   1.567  0.00  0.00    +0.022 A 
ATOM     17  C   UNL     1      12.162   6.185   1.705  0.00  0.00    +0.259 A 
ATOM     20  C   UNL     1      11.588   5.315   2.791  0.00  0.00    +0.047 A 
ATOM     21  C   UNL     1      11.726   3.984   2.689  0.00  0.00    +0.015 A 
ENDROOT
BRANCH   4  12
ATOM      2  O   UNL     1      10.118   2.613  -5.577  0.00  0.00    -0.380 OA
ATOM     12  C   UNL     1      10.904   4.182  -3.295  0.00  0.00    +0.061 C 
ATOM     14  C   UNL     1      11.551   4.354  -4.672  0.00  0.00    +0.047 C 
ATOM     15  C   UNL     1      10.325   2.770  -3.161  0.00  0.00    +0.047 C 
ATOM     18  C   UNL     1      10.574   3.951  -5.772  0.00  0.00    +0.161 C 
ATOM     19  C   UNL     1       9.416   2.455  -4.344  0.00  0.00    +0.161 C 
ENDBRANCH   4  12
BRANCH  20  22
ATOM     22  C   UNL     1      10.879   5.899   3.944  0.00  0.00    -0.013 A 
ATOM     23  C   UNL     1       9.509   6.148   3.866  0.00  0.00    +0.010 A 
ATOM     24  C   UNL     1      11.577   6.204   5.112  0.00  0.00    +0.010 A 
ATOM     25  C   UNL     1       8.836   6.701   4.956  0.00  0.00    +0.015 A 
ATOM     26  C   UNL     1      10.905   6.758   6.202  0.00  0.00    +0.015 A 
ATOM     27  C   UNL     1       9.535   7.007   6.124  0.00  0.00    +0.008 A 
BRANCH  27   1
ATOM      1  S   UNL     1       8.677   7.715   7.516  0.00  0.00    -0.129 S 
ATOM     28  C   UNL     1       9.416   9.370   7.603  0.00  0.00    +0.090 C 
ENDBRANCH  27   1
ENDBRANCH  20  22
TORSDOF 3
ENDMDL
MODEL 9
REMARK VINA RESULT:      -6.1     22.740     24.211
REMARK  Name = 11885335
REMARK  4 active torsions:
REMARK  status: ('A' for Active; 'I' for Inactive)
REMARK    1  A    between atoms: S_1  and  C_27
REMARK    2  A    between atoms: S_1  and  C_28
REMARK    3  A    between atoms: N_4  and  C_12
REMARK    4  A    between atoms: C_20  and  C_22
REMARK                            x       y       z     vdW  Elec       q    Type
REMARK                         _______ _______ _______ _____ _____    ______ ____
ROOT
ATOM      3  O   UNL     1      -2.721  11.952  37.669  0.00  0.00    -0.267 OA
ATOM      4  N   UNL     1      -2.918  14.056  33.121  0.00  0.00    -0.298 NA
ATOM      5  N   UNL     1      -1.688  13.040  35.884  0.00  0.00    -0.311 N 
ATOM      6  C   UNL     1      -2.330  15.409  35.148  0.00  0.00    +0.024 C 
ATOM      7  C   UNL     1      -0.567  14.203  33.953  0.00  0.00    +0.050 C 
ATOM      8  C   UNL     1      -0.881  15.502  34.691  0.00  0.00    +0.017 C 
ATOM      9  C   UNL     1      -3.259  15.234  33.928  0.00  0.00    +0.090 C 
ATOM     10  C   UNL     1      -1.500  14.066  32.729  0.00  0.00    +0.094 C 
ATOM     11  C   UNL     1      -2.459  14.261  36.158  0.00  0.00    +0.130 C 
ATOM     13  C   UNL     1      -0.722  13.009  34.875  0.00  0.00    +0.026 A 
ATOM     16  C   UNL     1       0.049  11.921  34.715  0.00  0.00    +0.022 A 
ATOM     17  C   UNL     1      -1.902  11.949  36.749  0.00  0.00    +0.259 A 
ATOM     20  C   UNL     1      -1.046  10.731  36.522  0.00  0.00    +0.047 A 
ATOM     21  C   UNL     1      -0.124  10.765  35.549  0.00  0.00    +0.015 A 
ENDROOT
BRANCH   4  12
ATOM      2  O   UNL     1      -6.285  14.583  30.670  0.00  0.00    -0.380 OA
ATOM     12  C   UNL     1      -3.784  13.954  31.950  0.00  0.00    +0.061 C 
ATOM     14  C   UNL     1      -5.093  13.249  32.315  0.00  0.00    +0.047 C 
ATOM     15  C   UNL     1      -4.081  15.337  31.360  0.00  0.00    +0.047 C 
ATOM     18  C   UNL     1      -6.047  13.251  31.124  0.00  0.00    +0.161 C 
ATOM     19  C   UNL     1      -5.090  15.224  30.223  0.00  0.00    +0.161 C 
ENDBRANCH   4  12
BRANCH  20  22
ATOM     22  C   UNL     1      -1.216   9.516  37.340  0.00  0.00    -0.013 A 
ATOM     23  C   UNL     1      -0.436   9.330  38.481  0.00  0.00    +0.010 A 
ATOM     24  C   UNL     1      -2.156   8.553  36.973  0.00  0.00    +0.010 A 
ATOM     25  C   UNL     1      -0.595   8.180  39.256  0.00  0.00    +0.015 A 
ATOM     26  C   UNL     1      -2.315   7.404  37.748  0.00  0.00    +0.015 A 
ATOM     27  C   UNL     1      -1.535   7.217  38.888  0.00  0.00    +0.008 A 
BRANCH  27   1
ATOM      1  S   UNL     1      -1.738   5.748  39.876  0.00  0.00    -0.129 S 
ATOM     28  C   UNL     1      -0.107   4.967  39.717  0.00  0.00    +0.090 C 
ENDBRANCH  27   1
ENDBRANCH  20  22
TORSDOF 3
ENDMDL
MODEL 10
REMARK VINA RESULT:      -6.1     22.602     25.989
REMARK  Name = 11885335
REMARK  4 active torsions:
REMARK  status: ('A' for Active; 'I' for Inactive)
REMARK    1  A    between atoms: S_1  and  C_27
REMARK    2  A    between atoms: S_1  and  C_28
REMARK    3  A    between atoms: N_4  and  C_12
REMARK    4  A    between atoms: C_20  and  C_22
REMARK                            x       y       z     vdW  Elec       q    Type
REMARK                         _______ _______ _______ _____ _____    ______ ____
ROOT
ATOM      3  O   UNL     1      -1.427  10.442  39.511  0.00  0.00    -0.267 OA
ATOM      4  N   UNL     1       0.215   6.103  41.414  0.00  0.00    -0.298 NA
ATOM      5  N   UNL     1      -1.424   8.111  39.554  0.00  0.00    -0.311 N 
ATOM      6  C   UNL     1      -2.197   6.763  41.592  0.00  0.00    +0.024 C 
ATOM      7  C   UNL     1      -1.413   5.594  39.590  0.00  0.00    +0.050 C 
ATOM      8  C   UNL     1      -2.582   5.708  40.564  0.00  0.00    +0.017 C 
ATOM      9  C   UNL     1      -0.909   6.339  42.329  0.00  0.00    +0.090 C 
ATOM     10  C   UNL     1      -0.145   5.150  40.354  0.00  0.00    +0.094 C 
ATOM     11  C   UNL     1      -2.052   8.117  40.883  0.00  0.00    +0.130 C 
ATOM     13  C   UNL     1      -1.171   6.913  38.881  0.00  0.00    +0.026 A 
ATOM     16  C   UNL     1      -0.701   6.934  37.623  0.00  0.00    +0.022 A 
ATOM     17  C   UNL     1      -1.187   9.367  38.961  0.00  0.00    +0.259 A 
ATOM     20  C   UNL     1      -0.627   9.357  37.564  0.00  0.00    +0.047 A 
ATOM     21  C   UNL     1      -0.420   8.177  36.961  0.00  0.00    +0.015 A 
ENDROOT
BRANCH   4  12
ATOM      2  O   UNL     1       3.083   3.487  43.012  0.00  0.00    -0.380 OA
ATOM     12  C   UNL     1       1.398   5.653  42.143  0.00  0.00    +0.061 C 
ATOM     14  C   UNL     1       0.998   4.707  43.277  0.00  0.00    +0.047 C 
ATOM     15  C   UNL     1       2.392   4.958  41.206  0.00  0.00    +0.047 C 
ATOM     18  C   UNL     1       2.239   4.140  43.960  0.00  0.00    +0.161 C 
ATOM     19  C   UNL     1       3.556   4.378  42.003  0.00  0.00    +0.161 C 
ENDBRANCH   4  12
BRANCH  20  22
ATOM     22  C   UNL     1      -0.300  10.613  36.864  0.00  0.00    -0.013 A 
ATOM     23  C   UNL     1       0.044  11.749  37.596  0.00  0.00    +0.010 A 
ATOM     24  C   UNL     1      -0.333  10.665  35.470  0.00  0.00    +0.010 A 
ATOM     25  C   UNL     1       0.354  12.939  36.935  0.00  0.00    +0.015 A 
ATOM     26  C   UNL     1      -0.023  11.853  34.809  0.00  0.00    +0.015 A 
ATOM     27  C   UNL     1       0.320  12.990  35.541  0.00  0.00    +0.008 A 
BRANCH  27   1
ATOM      1  S   UNL     1       0.714  14.508  34.696  0.00  0.00    -0.129 S 
ATOM     28  C   UNL     1       1.027  13.922  33.008  0.00  0.00    +0.090 C 
ENDBRANCH  27   1
ENDBRANCH  20  22
TORSDOF 3
ENDMDL
