MODEL 1
REMARK VINA RESULT:      -6.9      0.000      0.000
REMARK  Name = 11882471
REMARK  9 active torsions:
REMARK  status: ('A' for Active; 'I' for Inactive)
REMARK    1  A    between atoms: N_8  and  C_14
REMARK    2  A    between atoms: N_9  and  C_21
REMARK    3  A    between atoms: C_15  and  C_19
REMARK    4  A    between atoms: C_20  and  C_23
REMARK    5  A    between atoms: C_21  and  C_24
REMARK    6  A    between atoms: C_21  and  C_25
REMARK    7  A    between atoms: C_22  and  C_26
REMARK    8  A    between atoms: C_24  and  C_28
REMARK    9  A    between atoms: C_29  and  C_32
REMARK                            x       y       z     vdW  Elec       q    Type
REMARK                         _______ _______ _______ _____ _____    ______ ____
ROOT
ATOM      4  O   UNL     1      13.381  13.492  20.739  0.00  0.00    -0.268 OA
ATOM      7  N   UNL     1      14.157  11.375  21.291  0.00  0.00    -0.285 N 
ATOM     14  C   UNL     1      15.881   9.031  20.975  0.00  0.00    +0.077 C 
ATOM     15  C   UNL     1      15.006  11.263  20.097  0.00  0.00    +0.164 C 
ATOM     16  C   UNL     1      16.219  10.354  20.284  0.00  0.00    +0.054 C 
ATOM     17  C   UNL     1      15.122   9.301  22.272  0.00  0.00    +0.041 C 
ATOM     18  C   UNL     1      13.865  10.126  22.017  0.00  0.00    +0.111 C 
ATOM     20  C   UNL     1      13.574  12.626  21.595  0.00  0.00    +0.266 C 
ENDROOT
BRANCH  20  23
ATOM      1  S   UNL     1      13.267  13.383  25.462  0.00  0.00    -0.080 S 
ATOM     10  N   UNL     1      11.869  12.849  23.355  0.00  0.00    -0.240 NA
ATOM     23  C   UNL     1      13.197  12.876  22.982  0.00  0.00    +0.133 A 
ATOM     27  C   UNL     1      14.103  13.150  23.982  0.00  0.00    +0.080 A 
ATOM     29  C   UNL     1      11.787  13.102  24.641  0.00  0.00    +0.076 A 
ATOM     32  C   UNL     1      10.521  13.156  25.404  0.00  0.00    +0.073 C 
ENDBRANCH  20  23
BRANCH  15  19
ATOM      3  O   UNL     1      13.166  11.471  18.587  0.00  0.00    -0.274 OA
ATOM      9  N   UNL     1      14.480   9.550  18.507  0.00  0.00    -0.302 N 
ATOM     19  C   UNL     1      14.114  10.798  18.984  0.00  0.00    +0.234 C 
ATOM     38  H   UNL     1      15.291   9.082  18.897  0.00  0.00    +0.150 HD
BRANCH   9  21
ATOM     21  C   UNL     1      13.767   8.868  17.451  0.00  0.00    +0.163 C 
BRANCH  21  25
ATOM      6  O   UNL     1      14.874  10.081  15.660  0.00  0.00    -0.274 OA
ATOM     11  N   UNL     1      12.580  10.134  15.767  0.00  0.00    -0.328 N 
ATOM     25  C   UNL     1      13.829   9.762  16.220  0.00  0.00    +0.231 C 
ATOM     39  H   UNL     1      11.723   9.854  16.234  0.00  0.00    +0.145 HD
ATOM     40  H   UNL     1      12.480  10.719  14.945  0.00  0.00    +0.145 HD
ENDBRANCH  21  25
BRANCH  21  24
ATOM     24  C   UNL     1      12.309   8.576  17.827  0.00  0.00    +0.074 C 
BRANCH  24  28
ATOM      2  S   UNL     1      10.991   8.535  20.250  0.00  0.00    -0.102 S 
ATOM     28  C   UNL     1      12.184   7.949  19.195  0.00  0.00    -0.008 A 
ATOM     31  C   UNL     1      12.932   6.940  19.713  0.00  0.00    +0.011 A 
ATOM     33  C   UNL     1      12.515   6.622  21.038  0.00  0.00    +0.008 A 
ATOM     34  C   UNL     1      11.467   7.413  21.453  0.00  0.00    +0.045 A 
ENDBRANCH  24  28
ENDBRANCH  21  24
ENDBRANCH   9  21
ENDBRANCH  15  19
BRANCH  14   8
ATOM      5  O   UNL     1      16.670   6.691  19.612  0.00  0.00    -0.268 OA
ATOM      8  N   UNL     1      17.079   8.268  21.232  0.00  0.00    -0.307 N 
ATOM     22  C   UNL     1      17.398   7.118  20.511  0.00  0.00    +0.264 C 
ATOM     37  H   UNL     1      17.736   8.614  21.927  0.00  0.00    +0.149 HD
BRANCH  22  26
ATOM     12  N   UNL     1      19.092   5.515  20.031  0.00  0.00    -0.247 NA
ATOM     13  N   UNL     1      20.512   6.250  22.335  0.00  0.00    -0.259 NA
ATOM     26  C   UNL     1      18.667   6.470  20.868  0.00  0.00    +0.143 A 
ATOM     30  C   UNL     1      19.348   6.838  21.996  0.00  0.00    +0.143 A 
ATOM     35  C   UNL     1      20.256   4.927  20.370  0.00  0.00    +0.131 A 
ATOM     36  C   UNL     1      20.954   5.287  21.501  0.00  0.00    +0.130 A 
ENDBRANCH  22  26
ENDBRANCH  14   8
TORSDOF 8
ENDMDL
MODEL 2
REMARK VINA RESULT:      -6.7     28.782     31.539
REMARK  Name = 11882471
REMARK  9 active torsions:
REMARK  status: ('A' for Active; 'I' for Inactive)
REMARK    1  A    between atoms: N_8  and  C_14
REMARK    2  A    between atoms: N_9  and  C_21
REMARK    3  A    between atoms: C_15  and  C_19
REMARK    4  A    between atoms: C_20  and  C_23
REMARK    5  A    between atoms: C_21  and  C_24
REMARK    6  A    between atoms: C_21  and  C_25
REMARK    7  A    between atoms: C_22  and  C_26
REMARK    8  A    between atoms: C_24  and  C_28
REMARK    9  A    between atoms: C_29  and  C_32
REMARK                            x       y       z     vdW  Elec       q    Type
REMARK                         _______ _______ _______ _____ _____    ______ ____
ROOT
ATOM      4  O   UNL     1      -5.513  -8.449  11.753  0.00  0.00    -0.268 OA
ATOM      7  N   UNL     1      -5.644 -10.163  10.193  0.00  0.00    -0.285 N 
ATOM     14  C   UNL     1      -5.603 -11.277   7.487  0.00  0.00    +0.077 C 
ATOM     15  C   UNL     1      -5.652  -9.251   9.041  0.00  0.00    +0.164 C 
ATOM     16  C   UNL     1      -5.081  -9.865   7.764  0.00  0.00    +0.054 C 
ATOM     17  C   UNL     1      -5.405 -12.155   8.720  0.00  0.00    +0.041 C 
ATOM     18  C   UNL     1      -6.080 -11.549   9.946  0.00  0.00    +0.111 C 
ATOM     20  C   UNL     1      -5.350  -9.638  11.472  0.00  0.00    +0.266 C 
ENDROOT
BRANCH  20  23
ATOM      1  S   UNL     1      -4.636 -12.138  14.448  0.00  0.00    -0.080 S 
ATOM     10  N   UNL     1      -3.504 -10.927  12.465  0.00  0.00    -0.240 NA
ATOM     23  C   UNL     1      -4.834 -10.560  12.478  0.00  0.00    +0.133 A 
ATOM     27  C   UNL     1      -5.606 -11.112  13.475  0.00  0.00    +0.080 A 
ATOM     29  C   UNL     1      -3.286 -11.757  13.460  0.00  0.00    +0.076 A 
ATOM     32  C   UNL     1      -1.974 -12.366  13.769  0.00  0.00    +0.073 C 
ENDBRANCH  20  23
BRANCH  15  19
ATOM      3  O   UNL     1      -7.997  -9.311   9.493  0.00  0.00    -0.274 OA
ATOM      9  N   UNL     1      -7.188  -7.784   7.932  0.00  0.00    -0.302 N 
ATOM     19  C   UNL     1      -7.072  -8.798   8.868  0.00  0.00    +0.234 C 
ATOM     38  H   UNL     1      -6.355  -7.421   7.480  0.00  0.00    +0.150 HD
BRANCH   9  21
ATOM     21  C   UNL     1      -8.452  -7.188   7.565  0.00  0.00    +0.163 C 
BRANCH  21  25
ATOM      6  O   UNL     1      -9.604  -7.032   5.430  0.00  0.00    -0.274 OA
ATOM     11  N   UNL     1      -7.407  -7.704   5.447  0.00  0.00    -0.328 N 
ATOM     25  C   UNL     1      -8.580  -7.306   6.053  0.00  0.00    +0.231 C 
ATOM     39  H   UNL     1      -6.565  -7.918   5.972  0.00  0.00    +0.145 HD
ATOM     40  H   UNL     1      -7.353  -7.809   4.439  0.00  0.00    +0.145 HD
ENDBRANCH  21  25
BRANCH  21  24
ATOM     24  C   UNL     1      -8.551  -5.720   7.997  0.00  0.00    +0.074 C 
BRANCH  24  28
ATOM      2  S   UNL     1     -10.837  -6.715   9.179  0.00  0.00    -0.102 S 
ATOM     28  C   UNL     1      -9.846  -5.418   8.711  0.00  0.00    -0.008 A 
ATOM     31  C   UNL     1     -10.344  -4.198   9.040  0.00  0.00    +0.011 A 
ATOM     33  C   UNL     1     -11.596  -4.318   9.709  0.00  0.00    +0.008 A 
ATOM     34  C   UNL     1     -11.981  -5.633   9.851  0.00  0.00    +0.045 A 
ENDBRANCH  24  28
ENDBRANCH  21  24
ENDBRANCH   9  21
ENDBRANCH  15  19
BRANCH  14   8
ATOM      5  O   UNL     1      -6.209 -10.722   4.789  0.00  0.00    -0.268 OA
ATOM      8  N   UNL     1      -4.941 -11.850   6.338  0.00  0.00    -0.307 N 
ATOM     22  C   UNL     1      -5.302 -11.522   5.033  0.00  0.00    +0.264 C 
ATOM     37  H   UNL     1      -4.152 -12.472   6.493  0.00  0.00    +0.149 HD
BRANCH  22  26
ATOM     12  N   UNL     1      -5.185 -12.481   2.856  0.00  0.00    -0.247 NA
ATOM     13  N   UNL     1      -2.448 -13.001   3.176  0.00  0.00    -0.259 NA
ATOM     26  C   UNL     1      -4.514 -12.164   3.970  0.00  0.00    +0.143 A 
ATOM     30  C   UNL     1      -3.181 -12.412   4.142  0.00  0.00    +0.143 A 
ATOM     35  C   UNL     1      -4.453 -13.070   1.890  0.00  0.00    +0.131 A 
ATOM     36  C   UNL     1      -3.109 -13.326   2.047  0.00  0.00    +0.130 A 
ENDBRANCH  22  26
ENDBRANCH  14   8
TORSDOF 8
ENDMDL
MODEL 3
REMARK VINA RESULT:      -6.6     29.264     32.320
REMARK  Name = 11882471
REMARK  9 active torsions:
REMARK  status: ('A' for Active; 'I' for Inactive)
REMARK    1  A    between atoms: N_8  and  C_14
REMARK    2  A    between atoms: N_9  and  C_21
REMARK    3  A    between atoms: C_15  and  C_19
REMARK    4  A    between atoms: C_20  and  C_23
REMARK    5  A    between atoms: C_21  and  C_24
REMARK    6  A    between atoms: C_21  and  C_25
REMARK    7  A    between atoms: C_22  and  C_26
REMARK    8  A    between atoms: C_24  and  C_28
REMARK    9  A    between atoms: C_29  and  C_32
REMARK                            x       y       z     vdW  Elec       q    Type
REMARK                         _______ _______ _______ _____ _____    ______ ____
ROOT
ATOM      4  O   UNL     1      -8.617  -8.602  16.577  0.00  0.00    -0.268 OA
ATOM      7  N   UNL     1      -9.827 -10.339  17.530  0.00  0.00    -0.285 N 
ATOM     14  C   UNL     1     -10.452 -12.278  19.629  0.00  0.00    +0.077 C 
ATOM     15  C   UNL     1      -8.884 -10.523  18.640  0.00  0.00    +0.164 C 
ATOM     16  C   UNL     1      -9.523 -11.095  19.905  0.00  0.00    +0.054 C 
ATOM     17  C   UNL     1     -11.470 -11.902  18.556  0.00  0.00    +0.041 C 
ATOM     18  C   UNL     1     -10.780 -11.435  17.279  0.00  0.00    +0.111 C 
ATOM     20  C   UNL     1      -9.686  -9.203  16.700  0.00  0.00    +0.266 C 
ENDROOT
BRANCH  20  23
ATOM      1  S   UNL     1     -12.533  -8.209  14.146  0.00  0.00    -0.080 S 
ATOM     10  N   UNL     1     -11.915  -8.160  16.655  0.00  0.00    -0.240 NA
ATOM     23  C   UNL     1     -10.866  -8.745  15.974  0.00  0.00    +0.133 A 
ATOM     27  C   UNL     1     -11.017  -8.860  14.611  0.00  0.00    +0.080 A 
ATOM     29  C   UNL     1     -12.850  -7.837  15.790  0.00  0.00    +0.076 A 
ATOM     32  C   UNL     1     -14.129  -7.186  16.147  0.00  0.00    +0.073 C 
ENDBRANCH  20  23
BRANCH  15  19
ATOM      3  O   UNL     1      -7.925 -12.604  17.964  0.00  0.00    -0.274 OA
ATOM      9  N   UNL     1      -6.620 -10.678  17.870  0.00  0.00    -0.302 N 
ATOM     19  C   UNL     1      -7.779 -11.395  18.118  0.00  0.00    +0.234 C 
ATOM     38  H   UNL     1      -6.609  -9.674  18.019  0.00  0.00    +0.150 HD
BRANCH   9  21
ATOM     21  C   UNL     1      -5.403 -11.288  17.383  0.00  0.00    +0.163 C 
BRANCH  21  25
ATOM      6  O   UNL     1      -4.541 -11.655  19.626  0.00  0.00    -0.274 OA
ATOM     11  N   UNL     1      -4.721 -13.455  18.210  0.00  0.00    -0.328 N 
ATOM     25  C   UNL     1      -4.831 -12.117  18.525  0.00  0.00    +0.231 C 
ATOM     39  H   UNL     1      -4.975 -13.825  17.299  0.00  0.00    +0.145 HD
ATOM     40  H   UNL     1      -4.366 -14.120  18.889  0.00  0.00    +0.145 HD
ENDBRANCH  21  25
BRANCH  21  24
ATOM     24  C   UNL     1      -4.379 -10.248  16.912  0.00  0.00    +0.074 C 
BRANCH  24  28
ATOM      2  S   UNL     1      -3.724 -12.019  14.901  0.00  0.00    -0.102 S 
ATOM     28  C   UNL     1      -3.291 -10.858  16.062  0.00  0.00    -0.008 A 
ATOM     31  C   UNL     1      -1.960 -10.592  16.107  0.00  0.00    +0.011 A 
ATOM     33  C   UNL     1      -1.250 -11.370  15.147  0.00  0.00    +0.008 A 
ATOM     34  C   UNL     1      -2.088 -12.188  14.423  0.00  0.00    +0.045 A 
ENDBRANCH  24  28
ENDBRANCH  21  24
ENDBRANCH   9  21
ENDBRANCH  15  19
BRANCH  14   8
ATOM      5  O   UNL     1      -9.837 -14.584  21.133  0.00  0.00    -0.268 OA
ATOM      8  N   UNL     1     -11.117 -12.699  20.841  0.00  0.00    -0.307 N 
ATOM     22  C   UNL     1     -10.751 -13.855  21.526  0.00  0.00    +0.264 C 
ATOM     37  H   UNL     1     -11.839 -12.099  21.231  0.00  0.00    +0.149 HD
BRANCH  22  26
ATOM     12  N   UNL     1     -12.715 -13.573  22.845  0.00  0.00    -0.247 NA
ATOM     13  N   UNL     1     -11.639 -15.175  24.881  0.00  0.00    -0.259 NA
ATOM     26  C   UNL     1     -11.501 -14.132  22.760  0.00  0.00    +0.143 A 
ATOM     30  C   UNL     1     -10.962 -14.914  23.744  0.00  0.00    +0.143 A 
ATOM     35  C   UNL     1     -13.391 -13.834  23.981  0.00  0.00    +0.131 A 
ATOM     36  C   UNL     1     -12.863 -14.620  24.981  0.00  0.00    +0.130 A 
ENDBRANCH  22  26
ENDBRANCH  14   8
TORSDOF 8
ENDMDL
MODEL 4
REMARK VINA RESULT:      -6.6      3.313      6.456
REMARK  Name = 11882471
REMARK  9 active torsions:
REMARK  status: ('A' for Active; 'I' for Inactive)
REMARK    1  A    between atoms: N_8  and  C_14
REMARK    2  A    between atoms: N_9  and  C_21
REMARK    3  A    between atoms: C_15  and  C_19
REMARK    4  A    between atoms: C_20  and  C_23
REMARK    5  A    between atoms: C_21  and  C_24
REMARK    6  A    between atoms: C_21  and  C_25
REMARK    7  A    between atoms: C_22  and  C_26
REMARK    8  A    between atoms: C_24  and  C_28
REMARK    9  A    between atoms: C_29  and  C_32
REMARK                            x       y       z     vdW  Elec       q    Type
REMARK                         _______ _______ _______ _____ _____    ______ ____
ROOT
ATOM      4  O   UNL     1      12.284  10.912  21.066  0.00  0.00    -0.268 OA
ATOM      7  N   UNL     1      14.015  11.280  19.563  0.00  0.00    -0.285 N 
ATOM     14  C   UNL     1      15.253  11.273  16.912  0.00  0.00    +0.077 C 
ATOM     15  C   UNL     1      13.331  10.603  18.453  0.00  0.00    +0.164 C 
ATOM     16  C   UNL     1      13.740  11.114  17.072  0.00  0.00    +0.054 C 
ATOM     17  C   UNL     1      15.812  12.114  18.057  0.00  0.00    +0.041 C 
ATOM     18  C   UNL     1      15.463  11.506  19.411  0.00  0.00    +0.111 C 
ATOM     20  C   UNL     1      13.286  11.552  20.743  0.00  0.00    +0.266 C 
ENDROOT
BRANCH  20  23
ATOM      1  S   UNL     1      14.331  14.927  22.515  0.00  0.00    -0.080 S 
ATOM     10  N   UNL     1      14.347  12.360  22.812  0.00  0.00    -0.240 NA
ATOM     23  C   UNL     1      13.761  12.639  21.594  0.00  0.00    +0.133 A 
ATOM     27  C   UNL     1      13.662  13.970  21.259  0.00  0.00    +0.080 A 
ATOM     29  C   UNL     1      14.687  13.492  23.385  0.00  0.00    +0.076 A 
ATOM     32  C   UNL     1      15.345  13.597  24.706  0.00  0.00    +0.073 C 
ENDBRANCH  20  23
BRANCH  15  19
ATOM      3  O   UNL     1      13.895   8.420  17.666  0.00  0.00    -0.274 OA
ATOM      9  N   UNL     1      13.455   8.722  19.933  0.00  0.00    -0.302 N 
ATOM     19  C   UNL     1      13.601   9.137  18.619  0.00  0.00    +0.234 C 
ATOM     38  H   UNL     1      13.221   9.401  20.650  0.00  0.00    +0.150 HD
BRANCH   9  21
ATOM     21  C   UNL     1      13.638   7.352  20.354  0.00  0.00    +0.163 C 
BRANCH  21  25
ATOM      6  O   UNL     1      11.854   7.555  21.992  0.00  0.00    -0.274 OA
ATOM     11  N   UNL     1      11.798   5.793  20.519  0.00  0.00    -0.328 N 
ATOM     25  C   UNL     1      12.359   6.928  21.064  0.00  0.00    +0.231 C 
ATOM     39  H   UNL     1      12.221   5.290  19.745  0.00  0.00    +0.145 HD
ATOM     40  H   UNL     1      10.935   5.411  20.891  0.00  0.00    +0.145 HD
ENDBRANCH  21  25
BRANCH  21  24
ATOM     24  C   UNL     1      14.846   7.185  21.284  0.00  0.00    +0.074 C 
BRANCH  24  28
ATOM      2  S   UNL     1      17.565   6.721  21.352  0.00  0.00    -0.102 S 
ATOM     28  C   UNL     1      16.067   6.683  20.552  0.00  0.00    -0.008 A 
ATOM     31  C   UNL     1      16.129   6.187  19.289  0.00  0.00    +0.011 A 
ATOM     33  C   UNL     1      17.462   5.816  18.949  0.00  0.00    +0.008 A 
ATOM     34  C   UNL     1      18.343   6.053  19.980  0.00  0.00    +0.045 A 
ENDBRANCH  24  28
ENDBRANCH  21  24
ENDBRANCH   9  21
ENDBRANCH  15  19
BRANCH  14   8
ATOM      5  O   UNL     1      15.222   9.952  14.420  0.00  0.00    -0.268 OA
ATOM      8  N   UNL     1      15.572  11.869  15.636  0.00  0.00    -0.307 N 
ATOM     22  C   UNL     1      15.532  11.145  14.446  0.00  0.00    +0.264 C 
ATOM     37  H   UNL     1      15.780  12.864  15.603  0.00  0.00    +0.149 HD
BRANCH  22  26
ATOM     12  N   UNL     1      14.874  11.979  12.314  0.00  0.00    -0.247 NA
ATOM     13  N   UNL     1      17.389  13.164  11.945  0.00  0.00    -0.259 NA
ATOM     26  C   UNL     1      15.852  11.900  13.226  0.00  0.00    +0.143 A 
ATOM     30  C   UNL     1      17.083  12.471  13.060  0.00  0.00    +0.143 A 
ATOM     35  C   UNL     1      15.180  12.672  11.199  0.00  0.00    +0.131 A 
ATOM     36  C   UNL     1      16.414  13.254  11.018  0.00  0.00    +0.130 A 
ENDBRANCH  22  26
ENDBRANCH  14   8
TORSDOF 8
ENDMDL
MODEL 5
REMARK VINA RESULT:      -6.5      1.963      2.524
REMARK  Name = 11882471
REMARK  9 active torsions:
REMARK  status: ('A' for Active; 'I' for Inactive)
REMARK    1  A    between atoms: N_8  and  C_14
REMARK    2  A    between atoms: N_9  and  C_21
REMARK    3  A    between atoms: C_15  and  C_19
REMARK    4  A    between atoms: C_20  and  C_23
REMARK    5  A    between atoms: C_21  and  C_24
REMARK    6  A    between atoms: C_21  and  C_25
REMARK    7  A    between atoms: C_22  and  C_26
REMARK    8  A    between atoms: C_24  and  C_28
REMARK    9  A    between atoms: C_29  and  C_32
REMARK                            x       y       z     vdW  Elec       q    Type
REMARK                         _______ _______ _______ _____ _____    ______ ____
ROOT
ATOM      4  O   UNL     1      13.374  11.481  18.744  0.00  0.00    -0.268 OA
ATOM      7  N   UNL     1      14.515  10.402  20.453  0.00  0.00    -0.285 N 
ATOM     14  C   UNL     1      16.710   8.825  21.576  0.00  0.00    +0.077 C 
ATOM     15  C   UNL     1      15.480   9.768  19.546  0.00  0.00    +0.164 C 
ATOM     16  C   UNL     1      16.832   9.469  20.193  0.00  0.00    +0.054 C 
ATOM     17  C   UNL     1      15.789   9.662  22.460  0.00  0.00    +0.041 C 
ATOM     18  C   UNL     1      14.419   9.846  21.815  0.00  0.00    +0.111 C 
ATOM     20  C   UNL     1      13.658  11.402  19.941  0.00  0.00    +0.266 C 
ENDROOT
BRANCH  20  23
ATOM      1  S   UNL     1      12.850  14.202  22.611  0.00  0.00    -0.080 S 
ATOM     10  N   UNL     1      11.740  12.438  21.082  0.00  0.00    -0.240 NA
ATOM     23  C   UNL     1      13.104  12.366  20.886  0.00  0.00    +0.133 A 
ATOM     27  C   UNL     1      13.870  13.240  21.623  0.00  0.00    +0.080 A 
ATOM     29  C   UNL     1      11.491  13.373  21.971  0.00  0.00    +0.076 A 
ATOM     32  C   UNL     1      10.138  13.741  22.442  0.00  0.00    +0.073 C 
ENDBRANCH  20  23
BRANCH  15  19
ATOM      3  O   UNL     1      15.344   7.424  19.108  0.00  0.00    -0.274 OA
ATOM      9  N   UNL     1      13.596   8.802  18.425  0.00  0.00    -0.302 N 
ATOM     19  C   UNL     1      14.817   8.529  19.019  0.00  0.00    +0.234 C 
ATOM     38  H   UNL     1      13.244   9.753  18.415  0.00  0.00    +0.150 HD
BRANCH   9  21
ATOM     21  C   UNL     1      12.768   7.784  17.819  0.00  0.00    +0.163 C 
BRANCH  21  25
ATOM      6  O   UNL     1      10.602   8.024  16.741  0.00  0.00    -0.274 OA
ATOM     11  N   UNL     1      12.090   9.770  16.619  0.00  0.00    -0.328 N 
ATOM     25  C   UNL     1      11.705   8.502  16.999  0.00  0.00    +0.231 C 
ATOM     39  H   UNL     1      13.000  10.157  16.847  0.00  0.00    +0.145 HD
ATOM     40  H   UNL     1      11.467  10.362  16.079  0.00  0.00    +0.145 HD
ENDBRANCH  21  25
BRANCH  21  24
ATOM     24  C   UNL     1      12.112   6.870  18.861  0.00  0.00    +0.074 C 
BRANCH  24  28
ATOM      2  S   UNL     1      12.065   6.978  21.618  0.00  0.00    -0.102 S 
ATOM     28  C   UNL     1      11.681   7.625  20.096  0.00  0.00    -0.008 A 
ATOM     31  C   UNL     1      10.998   8.798  20.151  0.00  0.00    +0.011 A 
ATOM     33  C   UNL     1      10.773   9.196  21.500  0.00  0.00    +0.008 A 
ATOM     34  C   UNL     1      11.302   8.297  22.399  0.00  0.00    +0.045 A 
ENDBRANCH  24  28
ENDBRANCH  21  24
ENDBRANCH   9  21
ENDBRANCH  15  19
BRANCH  14   8
ATOM      5  O   UNL     1      18.344   6.530  21.439  0.00  0.00    -0.268 OA
ATOM      8  N   UNL     1      18.010   8.677  22.187  0.00  0.00    -0.307 N 
ATOM     22  C   UNL     1      18.756   7.505  22.071  0.00  0.00    +0.264 C 
ATOM     37  H   UNL     1      18.413   9.475  22.671  0.00  0.00    +0.149 HD
BRANCH  22  26
ATOM     12  N   UNL     1      20.504   6.342  23.195  0.00  0.00    -0.247 NA
ATOM     13  N   UNL     1      22.000   8.704  23.420  0.00  0.00    -0.259 NA
ATOM     26  C   UNL     1      20.074   7.519  22.722  0.00  0.00    +0.143 A 
ATOM     30  C   UNL     1      20.791   8.678  22.825  0.00  0.00    +0.143 A 
ATOM     35  C   UNL     1      21.713   6.368  23.791  0.00  0.00    +0.131 A 
ATOM     36  C   UNL     1      22.448   7.527  23.902  0.00  0.00    +0.130 A 
ENDBRANCH  22  26
ENDBRANCH  14   8
TORSDOF 8
ENDMDL
MODEL 6
REMARK VINA RESULT:      -6.4     26.550     29.566
REMARK  Name = 11882471
REMARK  9 active torsions:
REMARK  status: ('A' for Active; 'I' for Inactive)
REMARK    1  A    between atoms: N_8  and  C_14
REMARK    2  A    between atoms: N_9  and  C_21
REMARK    3  A    between atoms: C_15  and  C_19
REMARK    4  A    between atoms: C_20  and  C_23
REMARK    5  A    between atoms: C_21  and  C_24
REMARK    6  A    between atoms: C_21  and  C_25
REMARK    7  A    between atoms: C_22  and  C_26
REMARK    8  A    between atoms: C_24  and  C_28
REMARK    9  A    between atoms: C_29  and  C_32
REMARK                            x       y       z     vdW  Elec       q    Type
REMARK                         _______ _______ _______ _____ _____    ______ ____
ROOT
ATOM      4  O   UNL     1     -13.377  11.369  20.212  0.00  0.00    -0.268 OA
ATOM      7  N   UNL     1     -13.405   9.132  20.832  0.00  0.00    -0.285 N 
ATOM     14  C   UNL     1     -14.609   6.730  21.991  0.00  0.00    +0.077 C 
ATOM     15  C   UNL     1     -14.664   9.250  21.579  0.00  0.00    +0.164 C 
ATOM     16  C   UNL     1     -15.466   7.950  21.647  0.00  0.00    +0.054 C 
ATOM     17  C   UNL     1     -13.411   6.652  21.048  0.00  0.00    +0.041 C 
ATOM     18  C   UNL     1     -12.587   7.935  21.093  0.00  0.00    +0.111 C 
ATOM     20  C   UNL     1     -12.995  10.213  20.019  0.00  0.00    +0.266 C 
ENDROOT
BRANCH  20  23
ATOM      1  S   UNL     1     -10.019   9.697  17.469  0.00  0.00    -0.080 S 
ATOM     10  N   UNL     1     -12.565   9.351  17.754  0.00  0.00    -0.240 NA
ATOM     23  C   UNL     1     -12.085   9.921  18.916  0.00  0.00    +0.133 A 
ATOM     27  C   UNL     1     -10.734  10.182  18.951  0.00  0.00    +0.080 A 
ATOM     29  C   UNL     1     -11.562   9.188  16.920  0.00  0.00    +0.076 A 
ATOM     32  C   UNL     1     -11.688   8.604  15.567  0.00  0.00    +0.073 C 
ENDBRANCH  20  23
BRANCH  15  19
ATOM      3  O   UNL     1     -14.551   9.131  23.962  0.00  0.00    -0.274 OA
ATOM      9  N   UNL     1     -13.699  11.012  22.886  0.00  0.00    -0.302 N 
ATOM     19  C   UNL     1     -14.303   9.766  22.941  0.00  0.00    +0.234 C 
ATOM     38  H   UNL     1     -13.527  11.446  21.985  0.00  0.00    +0.150 HD
BRANCH   9  21
ATOM     21  C   UNL     1     -13.276  11.737  24.061  0.00  0.00    +0.163 C 
BRANCH  21  25
ATOM      6  O   UNL     1     -13.443  14.099  24.607  0.00  0.00    -0.274 OA
ATOM     11  N   UNL     1     -13.482  13.477  22.396  0.00  0.00    -0.328 N 
ATOM     25  C   UNL     1     -13.424  13.220  23.750  0.00  0.00    +0.231 C 
ATOM     39  H   UNL     1     -13.456  12.741  21.697  0.00  0.00    +0.145 HD
ATOM     40  H   UNL     1     -13.567  14.428  22.052  0.00  0.00    +0.145 HD
ENDBRANCH  21  25
BRANCH  21  24
ATOM     24  C   UNL     1     -11.829  11.415  24.454  0.00  0.00    +0.074 C 
BRANCH  24  28
ATOM      2  S   UNL     1     -13.108  10.889  26.842  0.00  0.00    -0.102 S 
ATOM     28  C   UNL     1     -11.723  10.875  25.860  0.00  0.00    -0.008 A 
ATOM     31  C   UNL     1     -10.622  10.361  26.467  0.00  0.00    +0.011 A 
ATOM     33  C   UNL     1     -10.915   9.955  27.801  0.00  0.00    +0.008 A 
ATOM     34  C   UNL     1     -12.231  10.185  28.134  0.00  0.00    +0.045 A 
ENDBRANCH  24  28
ENDBRANCH  21  24
ENDBRANCH   9  21
ENDBRANCH  15  19
BRANCH  14   8
ATOM      5  O   UNL     1     -15.873   5.461  24.170  0.00  0.00    -0.268 OA
ATOM      8  N   UNL     1     -15.394   5.520  21.924  0.00  0.00    -0.307 N 
ATOM     22  C   UNL     1     -15.987   4.955  23.052  0.00  0.00    +0.264 C 
ATOM     37  H   UNL     1     -15.560   5.099  21.014  0.00  0.00    +0.149 HD
BRANCH  22  26
ATOM     12  N   UNL     1     -17.553   3.749  21.723  0.00  0.00    -0.247 NA
ATOM     13  N   UNL     1     -17.439   1.565  23.480  0.00  0.00    -0.259 NA
ATOM     26  C   UNL     1     -16.781   3.740  22.817  0.00  0.00    +0.143 A 
ATOM     30  C   UNL     1     -16.715   2.684  23.683  0.00  0.00    +0.143 A 
ATOM     35  C   UNL     1     -18.277   2.630  21.519  0.00  0.00    +0.131 A 
ATOM     36  C   UNL     1     -18.221   1.558  22.382  0.00  0.00    +0.130 A 
ENDBRANCH  22  26
ENDBRANCH  14   8
TORSDOF 8
ENDMDL
MODEL 7
REMARK VINA RESULT:      -6.4     28.491     31.922
REMARK  Name = 11882471
REMARK  9 active torsions:
REMARK  status: ('A' for Active; 'I' for Inactive)
REMARK    1  A    between atoms: N_8  and  C_14
REMARK    2  A    between atoms: N_9  and  C_21
REMARK    3  A    between atoms: C_15  and  C_19
REMARK    4  A    between atoms: C_20  and  C_23
REMARK    5  A    between atoms: C_21  and  C_24
REMARK    6  A    between atoms: C_21  and  C_25
REMARK    7  A    between atoms: C_22  and  C_26
REMARK    8  A    between atoms: C_24  and  C_28
REMARK    9  A    between atoms: C_29  and  C_32
REMARK                            x       y       z     vdW  Elec       q    Type
REMARK                         _______ _______ _______ _____ _____    ______ ____
ROOT
ATOM      4  O   UNL     1      -8.141 -14.105  18.740  0.00  0.00    -0.268 OA
ATOM      7  N   UNL     1      -9.206 -12.044  18.825  0.00  0.00    -0.285 N 
ATOM     14  C   UNL     1     -10.143  -9.510  17.702  0.00  0.00    +0.077 C 
ATOM     15  C   UNL     1      -8.748 -11.638  17.490  0.00  0.00    +0.164 C 
ATOM     16  C   UNL     1      -9.680 -10.649  16.792  0.00  0.00    +0.054 C 
ATOM     17  C   UNL     1     -10.724 -10.080  18.994  0.00  0.00    +0.041 C 
ATOM     18  C   UNL     1      -9.718 -10.979  19.704  0.00  0.00    +0.111 C 
ATOM     20  C   UNL     1      -9.012 -13.385  19.230  0.00  0.00    +0.266 C 
ENDROOT
BRANCH  20  23
ATOM      1  S   UNL     1     -11.919 -14.721  21.551  0.00  0.00    -0.080 S 
ATOM     10  N   UNL     1      -9.376 -14.263  21.500  0.00  0.00    -0.240 NA
ATOM     23  C   UNL     1      -9.891 -13.910  20.270  0.00  0.00    +0.133 A 
ATOM     27  C   UNL     1     -11.247 -14.087  20.106  0.00  0.00    +0.080 A 
ATOM     29  C   UNL     1     -10.356 -14.704  22.256  0.00  0.00    +0.076 A 
ATOM     32  C   UNL     1     -10.190 -15.175  23.649  0.00  0.00    +0.073 C 
ENDBRANCH  20  23
BRANCH  15  19
ATOM      3  O   UNL     1      -7.159  -9.884  17.813  0.00  0.00    -0.274 OA
ATOM      9  N   UNL     1      -6.395 -12.075  17.618  0.00  0.00    -0.302 N 
ATOM     19  C   UNL     1      -7.364 -11.086  17.666  0.00  0.00    +0.234 C 
ATOM     38  H   UNL     1      -6.673 -13.044  17.504  0.00  0.00    +0.150 HD
BRANCH   9  21
ATOM     21  C   UNL     1      -4.981 -11.803  17.738  0.00  0.00    +0.163 C 
BRANCH  21  25
ATOM      6  O   UNL     1      -5.468 -11.520  20.102  0.00  0.00    -0.274 OA
ATOM     11  N   UNL     1      -3.353 -12.172  19.486  0.00  0.00    -0.328 N 
ATOM     25  C   UNL     1      -4.652 -11.792  19.224  0.00  0.00    +0.231 C 
ATOM     39  H   UNL     1      -2.692 -12.405  18.751  0.00  0.00    +0.145 HD
ATOM     40  H   UNL     1      -3.009 -12.221  20.439  0.00  0.00    +0.145 HD
ENDBRANCH  21  25
BRANCH  21  24
ATOM     24  C   UNL     1      -4.589 -10.467  17.094  0.00  0.00    +0.074 C 
BRANCH  24  28
ATOM      2  S   UNL     1      -3.873 -10.749  14.445  0.00  0.00    -0.102 S 
ATOM     28  C   UNL     1      -3.473 -10.620  16.090  0.00  0.00    -0.008 A 
ATOM     31  C   UNL     1      -2.138 -10.671  16.338  0.00  0.00    +0.011 A 
ATOM     33  C   UNL     1      -1.398 -10.824  15.131  0.00  0.00    +0.008 A 
ATOM     34  C   UNL     1      -2.218 -10.879  14.026  0.00  0.00    +0.045 A 
ENDBRANCH  24  28
ENDBRANCH  21  24
ENDBRANCH   9  21
ENDBRANCH  15  19
BRANCH  14   8
ATOM      5  O   UNL     1      -9.555  -7.296  16.057  0.00  0.00    -0.268 OA
ATOM      8  N   UNL     1     -11.112  -8.678  17.028  0.00  0.00    -0.307 N 
ATOM     22  C   UNL     1     -10.738  -7.599  16.229  0.00  0.00    +0.264 C 
ATOM     37  H   UNL     1     -12.096  -8.925  17.097  0.00  0.00    +0.149 HD
BRANCH  22  26
ATOM     12  N   UNL     1     -13.072  -7.304  15.863  0.00  0.00    -0.247 NA
ATOM     13  N   UNL     1     -12.581  -5.135  14.154  0.00  0.00    -0.259 NA
ATOM     26  C   UNL     1     -11.837  -6.868  15.584  0.00  0.00    +0.143 A 
ATOM     30  C   UNL     1     -11.582  -5.813  14.752  0.00  0.00    +0.143 A 
ATOM     35  C   UNL     1     -14.072  -6.626  15.264  0.00  0.00    +0.131 A 
ATOM     36  C   UNL     1     -13.831  -5.561  14.425  0.00  0.00    +0.130 A 
ENDBRANCH  22  26
ENDBRANCH  14   8
TORSDOF 8
ENDMDL
MODEL 8
REMARK VINA RESULT:      -6.3     28.475     31.709
REMARK  Name = 11882471
REMARK  9 active torsions:
REMARK  status: ('A' for Active; 'I' for Inactive)
REMARK    1  A    between atoms: N_8  and  C_14
REMARK    2  A    between atoms: N_9  and  C_21
REMARK    3  A    between atoms: C_15  and  C_19
REMARK    4  A    between atoms: C_20  and  C_23
REMARK    5  A    between atoms: C_21  and  C_24
REMARK    6  A    between atoms: C_21  and  C_25
REMARK    7  A    between atoms: C_22  and  C_26
REMARK    8  A    between atoms: C_24  and  C_28
REMARK    9  A    between atoms: C_29  and  C_32
REMARK                            x       y       z     vdW  Elec       q    Type
REMARK                         _______ _______ _______ _____ _____    ______ ____
ROOT
ATOM      4  O   UNL     1      -3.970 -12.819  10.654  0.00  0.00    -0.268 OA
ATOM      7  N   UNL     1      -4.882 -10.705  10.364  0.00  0.00    -0.285 N 
ATOM     14  C   UNL     1      -6.889  -8.807   9.398  0.00  0.00    +0.077 C 
ATOM     15  C   UNL     1      -5.920 -11.169   9.433  0.00  0.00    +0.164 C 
ATOM     16  C   UNL     1      -7.182 -10.308   9.437  0.00  0.00    +0.054 C 
ATOM     17  C   UNL     1      -5.905  -8.440  10.505  0.00  0.00    +0.041 C 
ATOM     18  C   UNL     1      -4.621  -9.255  10.397  0.00  0.00    +0.111 C 
ATOM     20  C   UNL     1      -4.119 -11.667  11.064  0.00  0.00    +0.266 C 
ENDROOT
BRANCH  20  23
ATOM      1  S   UNL     1      -1.834 -10.459  14.054  0.00  0.00    -0.080 S 
ATOM     10  N   UNL     1      -4.235 -11.226  13.483  0.00  0.00    -0.240 NA
ATOM     23  C   UNL     1      -3.497 -11.253  12.317  0.00  0.00    +0.133 A 
ATOM     27  C   UNL     1      -2.179 -10.871  12.426  0.00  0.00    +0.080 A 
ATOM     29  C   UNL     1      -3.460 -10.823  14.464  0.00  0.00    +0.076 A 
ATOM     32  C   UNL     1      -3.899 -10.670  15.868  0.00  0.00    +0.073 C 
ENDBRANCH  20  23
BRANCH  15  19
ATOM      3  O   UNL     1      -4.106 -11.564   7.930  0.00  0.00    -0.274 OA
ATOM      9  N   UNL     1      -6.149 -10.853   7.069  0.00  0.00    -0.302 N 
ATOM     19  C   UNL     1      -5.278 -11.230   8.078  0.00  0.00    +0.234 C 
ATOM     38  H   UNL     1      -7.106 -10.607   7.299  0.00  0.00    +0.150 HD
BRANCH   9  21
ATOM     21  C   UNL     1      -5.769 -10.804   5.675  0.00  0.00    +0.163 C 
BRANCH  21  25
ATOM      6  O   UNL     1      -7.398 -10.109   4.011  0.00  0.00    -0.274 OA
ATOM     11  N   UNL     1      -6.751  -8.596   5.614  0.00  0.00    -0.328 N 
ATOM     25  C   UNL     1      -6.711  -9.825   4.989  0.00  0.00    +0.231 C 
ATOM     39  H   UNL     1      -6.185  -8.377   6.428  0.00  0.00    +0.145 HD
ATOM     40  H   UNL     1      -7.350  -7.856   5.265  0.00  0.00    +0.145 HD
ENDBRANCH  21  25
BRANCH  21  24
ATOM     24  C   UNL     1      -5.847 -12.180   5.003  0.00  0.00    +0.074 C 
BRANCH  24  28
ATOM      2  S   UNL     1      -5.033 -12.923   2.473  0.00  0.00    -0.102 S 
ATOM     28  C   UNL     1      -4.693 -12.424   4.060  0.00  0.00    -0.008 A 
ATOM     31  C   UNL     1      -3.367 -12.293   4.325  0.00  0.00    +0.011 A 
ATOM     33  C   UNL     1      -2.582 -12.614   3.180  0.00  0.00    +0.008 A 
ATOM     34  C   UNL     1      -3.362 -12.972   2.103  0.00  0.00    +0.045 A 
ENDBRANCH  24  28
ENDBRANCH  21  24
ENDBRANCH   9  21
ENDBRANCH  15  19
BRANCH  14   8
ATOM      5  O   UNL     1      -7.789  -6.826   7.603  0.00  0.00    -0.268 OA
ATOM      8  N   UNL     1      -8.110  -8.045   9.523  0.00  0.00    -0.307 N 
ATOM     22  C   UNL     1      -8.483  -7.081   8.589  0.00  0.00    +0.264 C 
ATOM     37  H   UNL     1      -8.740  -8.261  10.292  0.00  0.00    +0.149 HD
BRANCH  22  26
ATOM     12  N   UNL     1      -9.773  -5.081   8.694  0.00  0.00    -0.247 NA
ATOM     13  N   UNL     1     -12.057  -6.532   9.430  0.00  0.00    -0.259 NA
ATOM     26  C   UNL     1      -9.769  -6.412   8.838  0.00  0.00    +0.143 A 
ATOM     30  C   UNL     1     -10.873  -7.133   9.198  0.00  0.00    +0.143 A 
ATOM     35  C   UNL     1     -10.956  -4.480   8.926  0.00  0.00    +0.131 A 
ATOM     36  C   UNL     1     -12.078  -5.192   9.288  0.00  0.00    +0.130 A 
ENDBRANCH  22  26
ENDBRANCH  14   8
TORSDOF 8
ENDMDL
MODEL 9
REMARK VINA RESULT:      -6.3     29.675     32.579
REMARK  Name = 11882471
REMARK  9 active torsions:
REMARK  status: ('A' for Active; 'I' for Inactive)
REMARK    1  A    between atoms: N_8  and  C_14
REMARK    2  A    between atoms: N_9  and  C_21
REMARK    3  A    between atoms: C_15  and  C_19
REMARK    4  A    between atoms: C_20  and  C_23
REMARK    5  A    between atoms: C_21  and  C_24
REMARK    6  A    between atoms: C_21  and  C_25
REMARK    7  A    between atoms: C_22  and  C_26
REMARK    8  A    between atoms: C_24  and  C_28
REMARK    9  A    between atoms: C_29  and  C_32
REMARK                            x       y       z     vdW  Elec       q    Type
REMARK                         _______ _______ _______ _____ _____    ______ ____
ROOT
ATOM      4  O   UNL     1     -14.593  -8.231  14.504  0.00  0.00    -0.268 OA
ATOM      7  N   UNL     1     -12.467  -7.753  15.305  0.00  0.00    -0.285 N 
ATOM     14  C   UNL     1      -9.876  -8.435  16.481  0.00  0.00    +0.077 C 
ATOM     15  C   UNL     1     -12.258  -9.102  15.848  0.00  0.00    +0.164 C 
ATOM     16  C   UNL     1     -10.790  -9.521  15.911  0.00  0.00    +0.054 C 
ATOM     17  C   UNL     1     -10.097  -7.123  15.733  0.00  0.00    +0.041 C 
ATOM     18  C   UNL     1     -11.560  -6.696  15.786  0.00  0.00    +0.111 C 
ATOM     20  C   UNL     1     -13.584  -7.524  14.469  0.00  0.00    +0.266 C 
ENDROOT
BRANCH  20  23
ATOM      1  S   UNL     1     -12.863  -4.867  11.633  0.00  0.00    -0.080 S 
ATOM     10  N   UNL     1     -14.356  -5.319  13.694  0.00  0.00    -0.240 NA
ATOM     23  C   UNL     1     -13.513  -6.401  13.540  0.00  0.00    +0.133 A 
ATOM     27  C   UNL     1     -12.635  -6.340  12.482  0.00  0.00    +0.080 A 
ATOM     29  C   UNL     1     -14.102  -4.448  12.744  0.00  0.00    +0.076 A 
ATOM     32  C   UNL     1     -14.806  -3.157  12.582  0.00  0.00    +0.073 C 
ENDBRANCH  20  23
BRANCH  15  19
ATOM      3  O   UNL     1     -13.898  -8.435  17.451  0.00  0.00    -0.274 OA
ATOM      9  N   UNL     1     -12.264  -9.970  18.082  0.00  0.00    -0.302 N 
ATOM     19  C   UNL     1     -12.913  -9.122  17.198  0.00  0.00    +0.234 C 
ATOM     38  H   UNL     1     -11.462 -10.505  17.766  0.00  0.00    +0.150 HD
BRANCH   9  21
ATOM     21  C   UNL     1     -12.683 -10.151  19.453  0.00  0.00    +0.163 C 
BRANCH  21  25
ATOM      6  O   UNL     1     -11.548 -12.075  20.410  0.00  0.00    -0.274 OA
ATOM     11  N   UNL     1     -10.504 -10.031  20.492  0.00  0.00    -0.328 N 
ATOM     25  C   UNL     1     -11.551 -10.869  20.174  0.00  0.00    +0.231 C 
ATOM     39  H   UNL     1     -10.515  -9.037  20.283  0.00  0.00    +0.145 HD
ATOM     40  H   UNL     1      -9.679 -10.386  20.963  0.00  0.00    +0.145 HD
ENDBRANCH  21  25
BRANCH  21  24
ATOM     24  C   UNL     1     -13.983 -10.957  19.562  0.00  0.00    +0.074 C 
BRANCH  24  28
ATOM      2  S   UNL     1     -16.415 -11.097  20.858  0.00  0.00    -0.102 S 
ATOM     28  C   UNL     1     -15.041 -10.233  20.359  0.00  0.00    -0.008 A 
ATOM     31  C   UNL     1     -15.040  -8.930  20.743  0.00  0.00    +0.011 A 
ATOM     33  C   UNL     1     -16.216  -8.613  21.483  0.00  0.00    +0.008 A 
ATOM     34  C   UNL     1     -17.049  -9.701  21.620  0.00  0.00    +0.045 A 
ENDBRANCH  24  28
ENDBRANCH  21  24
ENDBRANCH   9  21
ENDBRANCH  15  19
BRANCH  14   8
ATOM      5  O   UNL     1      -8.579 -10.212  18.247  0.00  0.00    -0.268 OA
ATOM      8  N   UNL     1      -8.492  -8.840  16.406  0.00  0.00    -0.307 N 
ATOM     22  C   UNL     1      -7.925  -9.726  17.321  0.00  0.00    +0.264 C 
ATOM     37  H   UNL     1      -7.930  -8.507  15.626  0.00  0.00    +0.149 HD
BRANCH  22  26
ATOM     12  N   UNL     1      -5.846 -10.532  18.156  0.00  0.00    -0.247 NA
ATOM     13  N   UNL     1      -4.652 -10.211  15.638  0.00  0.00    -0.259 NA
ATOM     26  C   UNL     1      -6.514 -10.066  17.093  0.00  0.00    +0.143 A 
ATOM     30  C   UNL     1      -5.946  -9.903  15.860  0.00  0.00    +0.143 A 
ATOM     35  C   UNL     1      -4.552 -10.839  17.935  0.00  0.00    +0.131 A 
ATOM     36  C   UNL     1      -3.966 -10.682  16.698  0.00  0.00    +0.130 A 
ENDBRANCH  22  26
ENDBRANCH  14   8
TORSDOF 8
ENDMDL
MODEL 10
REMARK VINA RESULT:      -6.2     28.382     31.222
REMARK  Name = 11882471
REMARK  9 active torsions:
REMARK  status: ('A' for Active; 'I' for Inactive)
REMARK    1  A    between atoms: N_8  and  C_14
REMARK    2  A    between atoms: N_9  and  C_21
REMARK    3  A    between atoms: C_15  and  C_19
REMARK    4  A    between atoms: C_20  and  C_23
REMARK    5  A    between atoms: C_21  and  C_24
REMARK    6  A    between atoms: C_21  and  C_25
REMARK    7  A    between atoms: C_22  and  C_26
REMARK    8  A    between atoms: C_24  and  C_28
REMARK    9  A    between atoms: C_29  and  C_32
REMARK                            x       y       z     vdW  Elec       q    Type
REMARK                         _______ _______ _______ _____ _____    ______ ____
ROOT
ATOM      4  O   UNL     1      -8.823  -7.641   8.087  0.00  0.00    -0.268 OA
ATOM      7  N   UNL     1      -7.860  -9.163   9.552  0.00  0.00    -0.285 N 
ATOM     14  C   UNL     1      -5.718 -10.188  11.261  0.00  0.00    +0.077 C 
ATOM     15  C   UNL     1      -6.534  -8.535   9.495  0.00  0.00    +0.164 C 
ATOM     16  C   UNL     1      -5.697  -8.744  10.756  0.00  0.00    +0.054 C 
ATOM     17  C   UNL     1      -7.159 -10.667  11.407  0.00  0.00    +0.041 C 
ATOM     18  C   UNL     1      -7.923 -10.532  10.094  0.00  0.00    +0.111 C 
ATOM     20  C   UNL     1      -8.958  -8.485   8.975  0.00  0.00    +0.266 C 
ENDROOT
BRANCH  20  23
ATOM      1  S   UNL     1     -12.393  -8.956  10.873  0.00  0.00    -0.080 S 
ATOM     10  N   UNL     1     -11.113  -9.649   8.737  0.00  0.00    -0.240 NA
ATOM     23  C   UNL     1     -10.291  -8.816   9.468  0.00  0.00    +0.133 A 
ATOM     27  C   UNL     1     -10.808  -8.340  10.652  0.00  0.00    +0.080 A 
ATOM     29  C   UNL     1     -12.248  -9.793   9.384  0.00  0.00    +0.076 A 
ATOM     32  C   UNL     1     -13.381 -10.618   8.910  0.00  0.00    +0.073 C 
ENDBRANCH  20  23
BRANCH  15  19
ATOM      3  O   UNL     1      -4.682  -9.424   8.276  0.00  0.00    -0.274 OA
ATOM      9  N   UNL     1      -6.708  -9.106   7.174  0.00  0.00    -0.302 N 
ATOM     19  C   UNL     1      -5.860  -9.077   8.269  0.00  0.00    +0.234 C 
ATOM     38  H   UNL     1      -7.672  -8.807   7.278  0.00  0.00    +0.150 HD
BRANCH   9  21
ATOM     21  C   UNL     1      -6.296  -9.563   5.867  0.00  0.00    +0.163 C 
BRANCH  21  25
ATOM      6  O   UNL     1      -7.593  -9.359   3.822  0.00  0.00    -0.274 OA
ATOM     11  N   UNL     1      -7.444  -7.538   5.215  0.00  0.00    -0.328 N 
ATOM     25  C   UNL     1      -7.158  -8.835   4.845  0.00  0.00    +0.231 C 
ATOM     39  H   UNL     1      -7.087  -7.121   6.069  0.00  0.00    +0.145 HD
ATOM     40  H   UNL     1      -8.023  -6.947   4.628  0.00  0.00    +0.145 HD
ENDBRANCH  21  25
BRANCH  21  24
ATOM     24  C   UNL     1      -6.444 -11.081   5.708  0.00  0.00    +0.074 C 
BRANCH  24  28
ATOM      2  S   UNL     1      -5.311 -12.347   3.534  0.00  0.00    -0.102 S 
ATOM     28  C   UNL     1      -5.214 -11.718   5.108  0.00  0.00    -0.008 A 
ATOM     31  C   UNL     1      -3.993 -11.862   5.686  0.00  0.00    +0.011 A 
ATOM     33  C   UNL     1      -3.084 -12.517   4.806  0.00  0.00    +0.008 A 
ATOM     34  C   UNL     1      -3.671 -12.836   3.601  0.00  0.00    +0.045 A 
ENDBRANCH  24  28
ENDBRANCH  21  24
ENDBRANCH   9  21
ENDBRANCH  15  19
BRANCH  14   8
ATOM      5  O   UNL     1      -2.971 -10.757  11.561  0.00  0.00    -0.268 OA
ATOM      8  N   UNL     1      -5.010 -10.300  12.515  0.00  0.00    -0.307 N 
ATOM     22  C   UNL     1      -3.648 -10.585  12.578  0.00  0.00    +0.264 C 
ATOM     37  H   UNL     1      -5.517 -10.112  13.377  0.00  0.00    +0.149 HD
BRANCH  22  26
ATOM     12  N   UNL     1      -3.897 -11.004  14.909  0.00  0.00    -0.247 NA
ATOM     13  N   UNL     1      -1.206 -10.358  15.364  0.00  0.00    -0.259 NA
ATOM     26  C   UNL     1      -3.065 -10.635  13.926  0.00  0.00    +0.143 A 
ATOM     30  C   UNL     1      -1.751 -10.317  14.132  0.00  0.00    +0.143 A 
ATOM     35  C   UNL     1      -3.351 -11.045  16.141  0.00  0.00    +0.131 A 
ATOM     36  C   UNL     1      -2.030 -10.728  16.365  0.00  0.00    +0.130 A 
ENDBRANCH  22  26
ENDBRANCH  14   8
TORSDOF 8
ENDMDL
