MODEL 1
REMARK VINA RESULT:      -7.2      0.000      0.000
REMARK  Name = 7134477
REMARK  11 active torsions:
REMARK  status: ('A' for Active; 'I' for Inactive)
REMARK    1  A    between atoms: O_4  and  C_15
REMARK    2  A    between atoms: O_5  and  C_18
REMARK    3  A    between atoms: O_6  and  C_20
REMARK    4  A    between atoms: O_10  and  C_31
REMARK    5  A    between atoms: O_10  and  C_32
REMARK    6  A    between atoms: N_11  and  C_16
REMARK    7  A    between atoms: N_12  and  C_23
REMARK    8  A    between atoms: N_13  and  C_26
REMARK    9  A    between atoms: C_15  and  C_21
REMARK   10  A    between atoms: C_23  and  C_24
REMARK   11  A    between atoms: C_23  and  C_25
REMARK                            x       y       z     vdW  Elec       q    Type
REMARK                         _______ _______ _______ _____ _____    ______ ____
ROOT
ATOM     15  C   UNL     1      11.721   8.266  20.571  0.00  0.00    +0.146 C 
ATOM     16  C   UNL     1      13.884   7.629  19.398  0.00  0.00    +0.109 C 
ATOM     17  C   UNL     1      13.250   8.308  20.617  0.00  0.00    +0.069 C 
ATOM     18  C   UNL     1      13.336   8.195  18.081  0.00  0.00    +0.163 C 
ATOM     19  C   UNL     1      11.189   8.849  19.263  0.00  0.00    +0.078 C 
ATOM     20  C   UNL     1      11.807   8.173  18.038  0.00  0.00    +0.148 C 
ENDROOT
BRANCH  16  11
ATOM      8  O   UNL     1      15.710   5.964  20.843  0.00  0.00    -0.252 OA
ATOM     11  N   UNL     1      15.322   7.769  19.455  0.00  0.00    -0.294 N 
ATOM     13  N   UNL     1      17.482   7.287  20.054  0.00  0.00    -0.269 N 
ATOM     22  C   UNL     1      16.143   6.909  20.187  0.00  0.00    +0.304 C 
ATOM     33  H   UNL     1      15.747   8.572  19.000  0.00  0.00    +0.151 HD
ATOM     38  H   UNL     1      17.671   8.097  19.470  0.00  0.00    +0.156 HD
BRANCH  13  26
ATOM     26  C   UNL     1      18.618   6.678  20.635  0.00  0.00    +0.035 A 
ATOM     27  C   UNL     1      19.190   5.555  20.038  0.00  0.00    +0.027 A 
ATOM     28  C   UNL     1      19.168   7.202  21.806  0.00  0.00    +0.027 A 
ATOM     29  C   UNL     1      20.312   4.955  20.611  0.00  0.00    +0.048 A 
ATOM     30  C   UNL     1      20.289   6.601  22.379  0.00  0.00    +0.048 A 
ATOM     31  C   UNL     1      20.861   5.478  21.782  0.00  0.00    +0.130 A 
BRANCH  31  10
ATOM     10  O   UNL     1      21.956   4.894  22.339  0.00  0.00    -0.406 OA
BRANCH  10  32
ATOM      1  F   UNL     1      23.442   4.076  20.850  0.00  0.00    -0.133 F 
ATOM      2  F   UNL     1      23.235   6.246  21.009  0.00  0.00    -0.133 F 
ATOM      3  F   UNL     1      24.218   5.095  22.621  0.00  0.00    -0.133 F 
ATOM     32  C   UNL     1      23.218   5.094  21.713  0.00  0.00    +0.575 C 
ENDBRANCH  10  32
ENDBRANCH  31  10
ENDBRANCH  13  26
ENDBRANCH  16  11
BRANCH  15  21
ATOM      7  O   UNL     1      10.447   8.432  22.584  0.00  0.00    -0.273 OA
ATOM     12  N   UNL     1      11.449  10.348  21.723  0.00  0.00    -0.302 N 
ATOM     21  C   UNL     1      11.136   9.000  21.741  0.00  0.00    +0.245 C 
ATOM     37  H   UNL     1      11.995  10.732  20.959  0.00  0.00    +0.150 HD
BRANCH  12  23
ATOM     23  C   UNL     1      10.988  11.280  22.727  0.00  0.00    +0.156 C 
ATOM     24  C   UNL     1      10.936  12.697  22.176  0.00  0.00    +0.038 C 
BRANCH  23  25
ATOM      9  O   UNL     1      13.058  11.673  23.936  0.00  0.00    -0.274 OA
ATOM     14  N   UNL     1      11.356  10.560  25.005  0.00  0.00    -0.328 N 
ATOM     25  C   UNL     1      11.926  11.195  23.921  0.00  0.00    +0.231 C 
ATOM     39  H   UNL     1      11.871  10.447  25.872  0.00  0.00    +0.145 HD
ATOM     40  H   UNL     1      10.412  10.188  24.984  0.00  0.00    +0.145 HD
ENDBRANCH  23  25
ENDBRANCH  12  23
ENDBRANCH  15  21
BRANCH  15   4
ATOM      4  O   UNL     1      11.256   6.927  20.706  0.00  0.00    -0.379 OA
ATOM     34  H   UNL     1      10.432   6.939  21.222  0.00  0.00    +0.211 HD
ENDBRANCH  15   4
BRANCH  18   5
ATOM      5  O   UNL     1      13.810   7.391  16.996  0.00  0.00    -0.387 OA
ATOM     35  H   UNL     1      13.052   7.173  16.428  0.00  0.00    +0.210 HD
ENDBRANCH  18   5
BRANCH  20   6
ATOM      6  O   UNL     1      11.377   8.866  16.865  0.00  0.00    -0.389 OA
ATOM     36  H   UNL     1      11.480   9.818  17.033  0.00  0.00    +0.210 HD
ENDBRANCH  20   6
TORSDOF 10
ENDMDL
MODEL 2
REMARK VINA RESULT:      -6.8     16.294     19.288
REMARK  Name = 7134477
REMARK  11 active torsions:
REMARK  status: ('A' for Active; 'I' for Inactive)
REMARK    1  A    between atoms: O_4  and  C_15
REMARK    2  A    between atoms: O_5  and  C_18
REMARK    3  A    between atoms: O_6  and  C_20
REMARK    4  A    between atoms: O_10  and  C_31
REMARK    5  A    between atoms: O_10  and  C_32
REMARK    6  A    between atoms: N_11  and  C_16
REMARK    7  A    between atoms: N_12  and  C_23
REMARK    8  A    between atoms: N_13  and  C_26
REMARK    9  A    between atoms: C_15  and  C_21
REMARK   10  A    between atoms: C_23  and  C_24
REMARK   11  A    between atoms: C_23  and  C_25
REMARK                            x       y       z     vdW  Elec       q    Type
REMARK                         _______ _______ _______ _____ _____    ______ ____
ROOT
ATOM     15  C   UNL     1       9.700   7.995   7.106  0.00  0.00    +0.146 C 
ATOM     16  C   UNL     1      10.397   5.664   6.370  0.00  0.00    +0.109 C 
ATOM     17  C   UNL     1       9.802   7.009   5.940  0.00  0.00    +0.069 C 
ATOM     18  C   UNL     1       9.642   5.062   7.563  0.00  0.00    +0.163 C 
ATOM     19  C   UNL     1       8.931   7.389   8.279  0.00  0.00    +0.078 C 
ATOM     20  C   UNL     1       9.520   6.051   8.724  0.00  0.00    +0.148 C 
ENDROOT
BRANCH  16  11
ATOM      8  O   UNL     1      11.613   6.085   3.812  0.00  0.00    -0.252 OA
ATOM     11  N   UNL     1      10.394   4.749   5.250  0.00  0.00    -0.294 N 
ATOM     13  N   UNL     1      10.849   3.969   3.143  0.00  0.00    -0.269 N 
ATOM     22  C   UNL     1      11.015   5.034   4.032  0.00  0.00    +0.304 C 
ATOM     33  H   UNL     1       9.855   3.892   5.329  0.00  0.00    +0.151 HD
ATOM     38  H   UNL     1      10.325   3.167   3.484  0.00  0.00    +0.156 HD
BRANCH  13  26
ATOM     26  C   UNL     1      11.323   3.864   1.814  0.00  0.00    +0.035 A 
ATOM     27  C   UNL     1      12.584   3.324   1.564  0.00  0.00    +0.027 A 
ATOM     28  C   UNL     1      10.528   4.300   0.755  0.00  0.00    +0.027 A 
ATOM     29  C   UNL     1      13.051   3.220   0.254  0.00  0.00    +0.048 A 
ATOM     30  C   UNL     1      10.996   4.197  -0.556  0.00  0.00    +0.048 A 
ATOM     31  C   UNL     1      12.257   3.656  -0.807  0.00  0.00    +0.130 A 
BRANCH  31  10
ATOM     10  O   UNL     1      12.711   3.553  -2.085  0.00  0.00    -0.406 OA
BRANCH  10  32
ATOM      1  F   UNL     1      12.066   1.391  -2.161  0.00  0.00    -0.133 F 
ATOM      2  F   UNL     1      10.960   2.837  -3.371  0.00  0.00    -0.133 F 
ATOM      3  F   UNL     1      13.013   2.244  -3.937  0.00  0.00    -0.133 F 
ATOM     32  C   UNL     1      12.186   2.515  -2.904  0.00  0.00    +0.575 C 
ENDBRANCH  10  32
ENDBRANCH  31  10
ENDBRANCH  13  26
ENDBRANCH  16  11
BRANCH  15  21
ATOM      7  O   UNL     1       9.067  10.283   7.362  0.00  0.00    -0.273 OA
ATOM     12  N   UNL     1       8.437   9.148   5.429  0.00  0.00    -0.302 N 
ATOM     21  C   UNL     1       9.050   9.273   6.664  0.00  0.00    +0.245 C 
ATOM     37  H   UNL     1       8.446   8.256   4.946  0.00  0.00    +0.150 HD
BRANCH  12  23
ATOM     23  C   UNL     1       7.721  10.229   4.790  0.00  0.00    +0.156 C 
ATOM     24  C   UNL     1       6.657   9.695   3.844  0.00  0.00    +0.038 C 
BRANCH  23  25
ATOM      9  O   UNL     1       9.018  12.240   4.374  0.00  0.00    -0.274 OA
ATOM     14  N   UNL     1       9.315  10.434   2.985  0.00  0.00    -0.328 N 
ATOM     25  C   UNL     1       8.728  11.092   4.045  0.00  0.00    +0.231 C 
ATOM     39  H   UNL     1      10.016  10.893   2.411  0.00  0.00    +0.145 HD
ATOM     40  H   UNL     1       9.080   9.478   2.738  0.00  0.00    +0.145 HD
ENDBRANCH  23  25
ENDBRANCH  12  23
ENDBRANCH  15  21
BRANCH  15   4
ATOM      4  O   UNL     1      10.998   8.376   7.549  0.00  0.00    -0.379 OA
ATOM     34  H   UNL     1      11.107   9.331   7.396  0.00  0.00    +0.211 HD
ENDBRANCH  15   4
BRANCH  18   5
ATOM      5  O   UNL     1      10.361   3.920   8.041  0.00  0.00    -0.387 OA
ATOM     35  H   UNL     1      10.200   3.840   8.996  0.00  0.00    +0.210 HD
ENDBRANCH  18   5
BRANCH  20   6
ATOM      6  O   UNL     1       8.667   5.479   9.717  0.00  0.00    -0.389 OA
ATOM     36  H   UNL     1       7.749   5.654   9.449  0.00  0.00    +0.210 HD
ENDBRANCH  20   6
TORSDOF 10
ENDMDL
MODEL 3
REMARK VINA RESULT:      -6.8     28.122     31.319
REMARK  Name = 7134477
REMARK  11 active torsions:
REMARK  status: ('A' for Active; 'I' for Inactive)
REMARK    1  A    between atoms: O_4  and  C_15
REMARK    2  A    between atoms: O_5  and  C_18
REMARK    3  A    between atoms: O_6  and  C_20
REMARK    4  A    between atoms: O_10  and  C_31
REMARK    5  A    between atoms: O_10  and  C_32
REMARK    6  A    between atoms: N_11  and  C_16
REMARK    7  A    between atoms: N_12  and  C_23
REMARK    8  A    between atoms: N_13  and  C_26
REMARK    9  A    between atoms: C_15  and  C_21
REMARK   10  A    between atoms: C_23  and  C_24
REMARK   11  A    between atoms: C_23  and  C_25
REMARK                            x       y       z     vdW  Elec       q    Type
REMARK                         _______ _______ _______ _____ _____    ______ ____
ROOT
ATOM     15  C   UNL     1      -5.104 -11.142  16.721  0.00  0.00    +0.146 C 
ATOM     16  C   UNL     1      -7.215 -10.135  17.717  0.00  0.00    +0.109 C 
ATOM     17  C   UNL     1      -6.100  -9.981  16.677  0.00  0.00    +0.069 C 
ATOM     18  C   UNL     1      -6.653 -10.353  19.128  0.00  0.00    +0.163 C 
ATOM     19  C   UNL     1      -4.539 -11.335  18.127  0.00  0.00    +0.078 C 
ATOM     20  C   UNL     1      -5.642 -11.501  19.173  0.00  0.00    +0.148 C 
ENDROOT
BRANCH  16  11
ATOM      8  O   UNL     1      -9.482  -9.734  16.014  0.00  0.00    -0.252 OA
ATOM     11  N   UNL     1      -8.077  -8.975  17.684  0.00  0.00    -0.294 N 
ATOM     13  N   UNL     1      -9.812  -7.635  17.013  0.00  0.00    -0.269 N 
ATOM     22  C   UNL     1      -9.167  -8.860  16.818  0.00  0.00    +0.304 C 
ATOM     33  H   UNL     1      -7.836  -8.178  18.266  0.00  0.00    +0.151 HD
ATOM     38  H   UNL     1      -9.422  -7.022  17.724  0.00  0.00    +0.156 HD
BRANCH  13  26
ATOM     26  C   UNL     1     -10.951  -7.136  16.338  0.00  0.00    +0.035 A 
ATOM     27  C   UNL     1     -12.205  -7.697  16.578  0.00  0.00    +0.027 A 
ATOM     28  C   UNL     1     -10.819  -6.083  15.434  0.00  0.00    +0.027 A 
ATOM     29  C   UNL     1     -13.328  -7.205  15.913  0.00  0.00    +0.048 A 
ATOM     30  C   UNL     1     -11.943  -5.591  14.769  0.00  0.00    +0.048 A 
ATOM     31  C   UNL     1     -13.197  -6.151  15.008  0.00  0.00    +0.130 A 
BRANCH  31  10
ATOM     10  O   UNL     1     -14.293  -5.670  14.361  0.00  0.00    -0.406 OA
BRANCH  10  32
ATOM      1  F   UNL     1     -15.772  -5.985  12.685  0.00  0.00    -0.133 F 
ATOM      2  F   UNL     1     -13.853  -5.057  12.201  0.00  0.00    -0.133 F 
ATOM      3  F   UNL     1     -13.960  -7.208  12.700  0.00  0.00    -0.133 F 
ATOM     32  C   UNL     1     -14.452  -5.982  12.982  0.00  0.00    +0.575 C 
ENDBRANCH  10  32
ENDBRANCH  31  10
ENDBRANCH  13  26
ENDBRANCH  16  11
BRANCH  15  21
ATOM      7  O   UNL     1      -4.189 -10.425  14.634  0.00  0.00    -0.273 OA
ATOM     12  N   UNL     1      -2.770 -11.356  16.228  0.00  0.00    -0.302 N 
ATOM     21  C   UNL     1      -3.990 -10.921  15.740  0.00  0.00    +0.245 C 
ATOM     37  H   UNL     1      -2.715 -11.789  17.144  0.00  0.00    +0.150 HD
BRANCH  12  23
ATOM     23  C   UNL     1      -1.542 -11.276  15.470  0.00  0.00    +0.156 C 
ATOM     24  C   UNL     1      -1.196  -9.832  15.142  0.00  0.00    +0.038 C 
BRANCH  23  25
ATOM      9  O   UNL     1      -1.820 -13.321  14.188  0.00  0.00    -0.274 OA
ATOM     14  N   UNL     1      -1.775 -11.317  13.064  0.00  0.00    -0.328 N 
ATOM     25  C   UNL     1      -1.712 -12.097  14.200  0.00  0.00    +0.231 C 
ATOM     39  H   UNL     1      -1.900 -11.740  12.150  0.00  0.00    +0.145 HD
ATOM     40  H   UNL     1      -1.704 -10.305  13.092  0.00  0.00    +0.145 HD
ENDBRANCH  23  25
ENDBRANCH  12  23
ENDBRANCH  15  21
BRANCH  15   4
ATOM      4  O   UNL     1      -5.730 -12.349  16.302  0.00  0.00    -0.379 OA
ATOM     34  H   UNL     1      -5.154 -12.785  15.650  0.00  0.00    +0.211 HD
ENDBRANCH  15   4
BRANCH  18   5
ATOM      5  O   UNL     1      -7.728 -10.690  20.011  0.00  0.00    -0.387 OA
ATOM     35  H   UNL     1      -7.669 -11.639  20.210  0.00  0.00    +0.210 HD
ENDBRANCH  18   5
BRANCH  20   6
ATOM      6  O   UNL     1      -5.045 -11.527  20.471  0.00  0.00    -0.389 OA
ATOM     36  H   UNL     1      -5.683 -11.943  21.076  0.00  0.00    +0.210 HD
ENDBRANCH  20   6
TORSDOF 10
ENDMDL
MODEL 4
REMARK VINA RESULT:      -6.6     28.616     31.326
REMARK  Name = 7134477
REMARK  11 active torsions:
REMARK  status: ('A' for Active; 'I' for Inactive)
REMARK    1  A    between atoms: O_4  and  C_15
REMARK    2  A    between atoms: O_5  and  C_18
REMARK    3  A    between atoms: O_6  and  C_20
REMARK    4  A    between atoms: O_10  and  C_31
REMARK    5  A    between atoms: O_10  and  C_32
REMARK    6  A    between atoms: N_11  and  C_16
REMARK    7  A    between atoms: N_12  and  C_23
REMARK    8  A    between atoms: N_13  and  C_26
REMARK    9  A    between atoms: C_15  and  C_21
REMARK   10  A    between atoms: C_23  and  C_24
REMARK   11  A    between atoms: C_23  and  C_25
REMARK                            x       y       z     vdW  Elec       q    Type
REMARK                         _______ _______ _______ _____ _____    ______ ____
ROOT
ATOM     15  C   UNL     1      -4.474 -11.290  16.371  0.00  0.00    +0.146 C 
ATOM     16  C   UNL     1      -6.494 -10.607  17.753  0.00  0.00    +0.109 C 
ATOM     17  C   UNL     1      -5.580 -10.252  16.576  0.00  0.00    +0.069 C 
ATOM     18  C   UNL     1      -5.698 -10.856  19.041  0.00  0.00    +0.163 C 
ATOM     19  C   UNL     1      -3.677 -11.513  17.654  0.00  0.00    +0.078 C 
ATOM     20  C   UNL     1      -4.578 -11.878  18.835  0.00  0.00    +0.148 C 
ENDROOT
BRANCH  16  11
ATOM      8  O   UNL     1      -8.856 -10.146  16.201  0.00  0.00    -0.252 OA
ATOM     11  N   UNL     1      -7.467  -9.555  17.950  0.00  0.00    -0.294 N 
ATOM     13  N   UNL     1      -9.350  -8.304  17.570  0.00  0.00    -0.269 N 
ATOM     22  C   UNL     1      -8.597  -9.401  17.143  0.00  0.00    +0.304 C 
ATOM     33  H   UNL     1      -7.282  -8.854  18.662  0.00  0.00    +0.151 HD
ATOM     38  H   UNL     1      -8.994  -7.791  18.372  0.00  0.00    +0.156 HD
BRANCH  13  26
ATOM     26  C   UNL     1     -10.559  -7.814  17.022  0.00  0.00    +0.035 A 
ATOM     27  C   UNL     1     -10.577  -6.586  16.362  0.00  0.00    +0.027 A 
ATOM     28  C   UNL     1     -11.731  -8.561  17.140  0.00  0.00    +0.027 A 
ATOM     29  C   UNL     1     -11.768  -6.103  15.820  0.00  0.00    +0.048 A 
ATOM     30  C   UNL     1     -12.922  -8.077  16.599  0.00  0.00    +0.048 A 
ATOM     31  C   UNL     1     -12.941  -6.849  15.939  0.00  0.00    +0.130 A 
BRANCH  31  10
ATOM     10  O   UNL     1     -14.103  -6.379  15.408  0.00  0.00    -0.406 OA
BRANCH  10  32
ATOM      1  F   UNL     1     -13.854  -5.237  13.477  0.00  0.00    -0.133 F 
ATOM      2  F   UNL     1     -13.508  -7.395  13.447  0.00  0.00    -0.133 F 
ATOM      3  F   UNL     1     -15.558  -6.595  13.656  0.00  0.00    -0.133 F 
ATOM     32  C   UNL     1     -14.263  -6.419  13.995  0.00  0.00    +0.575 C 
ENDBRANCH  10  32
ENDBRANCH  31  10
ENDBRANCH  13  26
ENDBRANCH  16  11
BRANCH  15  21
ATOM      7  O   UNL     1      -2.403 -10.511  15.471  0.00  0.00    -0.273 OA
ATOM     12  N   UNL     1      -4.176 -10.931  14.021  0.00  0.00    -0.302 N 
ATOM     21  C   UNL     1      -3.557 -10.873  15.258  0.00  0.00    +0.245 C 
ATOM     37  H   UNL     1      -5.149 -11.208  13.953  0.00  0.00    +0.150 HD
BRANCH  12  23
ATOM     23  C   UNL     1      -3.516 -10.560  12.790  0.00  0.00    +0.156 C 
ATOM     24  C   UNL     1      -4.492  -9.912  11.820  0.00  0.00    +0.038 C 
BRANCH  23  25
ATOM      9  O   UNL     1      -3.447 -12.498  11.326  0.00  0.00    -0.274 OA
ATOM     14  N   UNL     1      -1.635 -12.073  12.673  0.00  0.00    -0.328 N 
ATOM     25  C   UNL     1      -2.898 -11.812  12.185  0.00  0.00    +0.231 C 
ATOM     39  H   UNL     1      -1.105 -12.874  12.343  0.00  0.00    +0.145 HD
ATOM     40  H   UNL     1      -1.186 -11.486  13.369  0.00  0.00    +0.145 HD
ENDBRANCH  23  25
ENDBRANCH  12  23
ENDBRANCH  15  21
BRANCH  15   4
ATOM      4  O   UNL     1      -5.029 -12.530  15.946  0.00  0.00    -0.379 OA
ATOM     34  H   UNL     1      -4.319 -13.194  15.926  0.00  0.00    +0.211 HD
ENDBRANCH  15   4
BRANCH  18   5
ATOM      5  O   UNL     1      -6.579 -11.375  20.041  0.00  0.00    -0.387 OA
ATOM     35  H   UNL     1      -6.505 -10.813  20.831  0.00  0.00    +0.210 HD
ENDBRANCH  18   5
BRANCH  20   6
ATOM      6  O   UNL     1      -3.785 -11.926  20.022  0.00  0.00    -0.389 OA
ATOM     36  H   UNL     1      -2.915 -11.548  19.807  0.00  0.00    +0.210 HD
ENDBRANCH  20   6
TORSDOF 10
ENDMDL
MODEL 5
REMARK VINA RESULT:      -6.6      2.890      4.876
REMARK  Name = 7134477
REMARK  11 active torsions:
REMARK  status: ('A' for Active; 'I' for Inactive)
REMARK    1  A    between atoms: O_4  and  C_15
REMARK    2  A    between atoms: O_5  and  C_18
REMARK    3  A    between atoms: O_6  and  C_20
REMARK    4  A    between atoms: O_10  and  C_31
REMARK    5  A    between atoms: O_10  and  C_32
REMARK    6  A    between atoms: N_11  and  C_16
REMARK    7  A    between atoms: N_12  and  C_23
REMARK    8  A    between atoms: N_13  and  C_26
REMARK    9  A    between atoms: C_15  and  C_21
REMARK   10  A    between atoms: C_23  and  C_24
REMARK   11  A    between atoms: C_23  and  C_25
REMARK                            x       y       z     vdW  Elec       q    Type
REMARK                         _______ _______ _______ _____ _____    ______ ____
ROOT
ATOM     15  C   UNL     1      13.703   8.852  17.935  0.00  0.00    +0.146 C 
ATOM     16  C   UNL     1      14.644   8.385  20.249  0.00  0.00    +0.109 C 
ATOM     17  C   UNL     1      14.962   8.766  18.799  0.00  0.00    +0.069 C 
ATOM     18  C   UNL     1      13.806   7.102  20.331  0.00  0.00    +0.163 C 
ATOM     19  C   UNL     1      12.889   7.562  18.010  0.00  0.00    +0.078 C 
ATOM     20  C   UNL     1      12.555   7.175  19.452  0.00  0.00    +0.148 C 
ENDROOT
BRANCH  16  11
ATOM      8  O   UNL     1      16.838   6.656  19.620  0.00  0.00    -0.252 OA
ATOM     11  N   UNL     1      15.872   8.240  20.997  0.00  0.00    -0.294 N 
ATOM     13  N   UNL     1      17.956   7.444  21.528  0.00  0.00    -0.269 N 
ATOM     22  C   UNL     1      16.897   7.370  20.618  0.00  0.00    +0.304 C 
ATOM     33  H   UNL     1      15.963   8.740  21.877  0.00  0.00    +0.151 HD
ATOM     38  H   UNL     1      17.845   8.090  22.305  0.00  0.00    +0.156 HD
BRANCH  13  26
ATOM     26  C   UNL     1      19.174   6.726  21.503  0.00  0.00    +0.035 A 
ATOM     27  C   UNL     1      20.143   6.962  22.477  0.00  0.00    +0.027 A 
ATOM     28  C   UNL     1      19.406   5.781  20.503  0.00  0.00    +0.027 A 
ATOM     29  C   UNL     1      21.344   6.253  22.453  0.00  0.00    +0.048 A 
ATOM     30  C   UNL     1      20.607   5.072  20.479  0.00  0.00    +0.048 A 
ATOM     31  C   UNL     1      21.577   5.308  21.453  0.00  0.00    +0.130 A 
BRANCH  31  10
ATOM     10  O   UNL     1      22.747   4.615  21.430  0.00  0.00    -0.406 OA
BRANCH  10  32
ATOM      1  F   UNL     1      23.649   2.572  21.763  0.00  0.00    -0.133 F 
ATOM      2  F   UNL     1      23.575   3.952  23.457  0.00  0.00    -0.133 F 
ATOM      3  F   UNL     1      21.723   3.011  22.700  0.00  0.00    -0.133 F 
ATOM     32  C   UNL     1      22.914   3.544  22.352  0.00  0.00    +0.575 C 
ENDBRANCH  10  32
ENDBRANCH  31  10
ENDBRANCH  13  26
ENDBRANCH  16  11
BRANCH  15  21
ATOM      7  O   UNL     1      13.834   8.361  15.601  0.00  0.00    -0.273 OA
ATOM     12  N   UNL     1      14.670  10.391  16.374  0.00  0.00    -0.302 N 
ATOM     21  C   UNL     1      14.059   9.156  16.509  0.00  0.00    +0.245 C 
ATOM     37  H   UNL     1      14.847  10.961  17.194  0.00  0.00    +0.150 HD
BRANCH  12  23
ATOM     23  C   UNL     1      15.130  10.911  15.107  0.00  0.00    +0.156 C 
ATOM     24  C   UNL     1      16.407  11.718  15.278  0.00  0.00    +0.038 C 
BRANCH  23  25
ATOM      9  O   UNL     1      12.960  11.311  14.091  0.00  0.00    -0.274 OA
ATOM     14  N   UNL     1      14.315  13.113  14.535  0.00  0.00    -0.328 N 
ATOM     25  C   UNL     1      14.021  11.766  14.512  0.00  0.00    +0.231 C 
ATOM     39  H   UNL     1      13.653  13.795  14.179  0.00  0.00    +0.145 HD
ATOM     40  H   UNL     1      15.188  13.475  14.905  0.00  0.00    +0.145 HD
ENDBRANCH  23  25
ENDBRANCH  12  23
ENDBRANCH  15  21
BRANCH  15   4
ATOM      4  O   UNL     1      12.887   9.941  18.351  0.00  0.00    -0.379 OA
ATOM     34  H   UNL     1      13.185  10.743  17.889  0.00  0.00    +0.211 HD
ENDBRANCH  15   4
BRANCH  18   5
ATOM      5  O   UNL     1      13.374   6.913  21.682  0.00  0.00    -0.387 OA
ATOM     35  H   UNL     1      12.976   6.028  21.751  0.00  0.00    +0.210 HD
ENDBRANCH  18   5
BRANCH  20   6
ATOM      6  O   UNL     1      11.927   5.892  19.451  0.00  0.00    -0.389 OA
ATOM     36  H   UNL     1      11.240   5.903  20.139  0.00  0.00    +0.210 HD
ENDBRANCH  20   6
TORSDOF 10
ENDMDL
MODEL 6
REMARK VINA RESULT:      -6.4      6.296      8.749
REMARK  Name = 7134477
REMARK  11 active torsions:
REMARK  status: ('A' for Active; 'I' for Inactive)
REMARK    1  A    between atoms: O_4  and  C_15
REMARK    2  A    between atoms: O_5  and  C_18
REMARK    3  A    between atoms: O_6  and  C_20
REMARK    4  A    between atoms: O_10  and  C_31
REMARK    5  A    between atoms: O_10  and  C_32
REMARK    6  A    between atoms: N_11  and  C_16
REMARK    7  A    between atoms: N_12  and  C_23
REMARK    8  A    between atoms: N_13  and  C_26
REMARK    9  A    between atoms: C_15  and  C_21
REMARK   10  A    between atoms: C_23  and  C_24
REMARK   11  A    between atoms: C_23  and  C_25
REMARK                            x       y       z     vdW  Elec       q    Type
REMARK                         _______ _______ _______ _____ _____    ______ ____
ROOT
ATOM     15  C   UNL     1      13.522   7.600  18.114  0.00  0.00    +0.146 C 
ATOM     16  C   UNL     1      13.421   9.298  16.225  0.00  0.00    +0.109 C 
ATOM     17  C   UNL     1      14.190   8.810  17.457  0.00  0.00    +0.069 C 
ATOM     18  C   UNL     1      11.943   9.564  16.544  0.00  0.00    +0.163 C 
ATOM     19  C   UNL     1      12.058   7.886  18.443  0.00  0.00    +0.078 C 
ATOM     20  C   UNL     1      11.276   8.364  17.219  0.00  0.00    +0.148 C 
ENDROOT
BRANCH  16  11
ATOM      8  O   UNL     1      15.412   9.409  14.171  0.00  0.00    -0.252 OA
ATOM     11  N   UNL     1      14.051  10.487  15.695  0.00  0.00    -0.294 N 
ATOM     13  N   UNL     1      15.443  11.747  14.380  0.00  0.00    -0.269 N 
ATOM     22  C   UNL     1      15.018  10.452  14.688  0.00  0.00    +0.304 C 
ATOM     33  H   UNL     1      13.833  11.381  16.126  0.00  0.00    +0.151 HD
ATOM     38  H   UNL     1      15.013  12.504  14.904  0.00  0.00    +0.156 HD
BRANCH  13  26
ATOM     26  C   UNL     1      16.407  12.140  13.422  0.00  0.00    +0.035 A 
ATOM     27  C   UNL     1      16.086  12.127  12.066  0.00  0.00    +0.027 A 
ATOM     28  C   UNL     1      17.677  12.542  13.836  0.00  0.00    +0.027 A 
ATOM     29  C   UNL     1      17.037  12.515  11.120  0.00  0.00    +0.048 A 
ATOM     30  C   UNL     1      18.627  12.931  12.891  0.00  0.00    +0.048 A 
ATOM     31  C   UNL     1      18.307  12.917  11.533  0.00  0.00    +0.130 A 
BRANCH  31  10
ATOM     10  O   UNL     1      19.233  13.298  10.612  0.00  0.00    -0.406 OA
BRANCH  10  32
ATOM      1  F   UNL     1      20.680  12.612   9.021  0.00  0.00    -0.133 F 
ATOM      2  F   UNL     1      21.347  12.574  11.102  0.00  0.00    -0.133 F 
ATOM      3  F   UNL     1      19.857  11.110  10.379  0.00  0.00    -0.133 F 
ATOM     32  C   UNL     1      20.280  12.389  10.294  0.00  0.00    +0.575 C 
ENDBRANCH  10  32
ENDBRANCH  31  10
ENDBRANCH  13  26
ENDBRANCH  16  11
BRANCH  15  21
ATOM      7  O   UNL     1      13.686   7.024  20.426  0.00  0.00    -0.273 OA
ATOM     12  N   UNL     1      15.623   7.072  19.136  0.00  0.00    -0.302 N 
ATOM     21  C   UNL     1      14.262   7.195  19.355  0.00  0.00    +0.245 C 
ATOM     37  H   UNL     1      16.010   7.273  18.220  0.00  0.00    +0.150 HD
BRANCH  12  23
ATOM     23  C   UNL     1      16.562   6.714  20.175  0.00  0.00    +0.156 C 
ATOM     24  C   UNL     1      17.048   7.947  20.921  0.00  0.00    +0.038 C 
BRANCH  23  25
ATOM      9  O   UNL     1      18.854   5.928  20.012  0.00  0.00    -0.274 OA
ATOM     14  N   UNL     1      17.363   5.317  18.374  0.00  0.00    -0.328 N 
ATOM     25  C   UNL     1      17.724   5.972  19.532  0.00  0.00    +0.231 C 
ATOM     39  H   UNL     1      18.042   4.773  17.851  0.00  0.00    +0.145 HD
ATOM     40  H   UNL     1      16.420   5.347  18.001  0.00  0.00    +0.145 HD
ENDBRANCH  23  25
ENDBRANCH  12  23
ENDBRANCH  15  21
BRANCH  15   4
ATOM      4  O   UNL     1      13.593   6.467  17.256  0.00  0.00    -0.379 OA
ATOM     34  H   UNL     1      12.915   6.560  16.566  0.00  0.00    +0.211 HD
ENDBRANCH  15   4
BRANCH  18   5
ATOM      5  O   UNL     1      11.242   9.819  15.323  0.00  0.00    -0.387 OA
ATOM     35  H   UNL     1      11.045  10.770  15.281  0.00  0.00    +0.210 HD
ENDBRANCH  18   5
BRANCH  20   6
ATOM      6  O   UNL     1       9.964   8.750  17.633  0.00  0.00    -0.389 OA
ATOM     36  H   UNL     1      10.038   9.619  18.063  0.00  0.00    +0.210 HD
ENDBRANCH  20   6
TORSDOF 10
ENDMDL
MODEL 7
REMARK VINA RESULT:      -6.4     27.827     30.301
REMARK  Name = 7134477
REMARK  11 active torsions:
REMARK  status: ('A' for Active; 'I' for Inactive)
REMARK    1  A    between atoms: O_4  and  C_15
REMARK    2  A    between atoms: O_5  and  C_18
REMARK    3  A    between atoms: O_6  and  C_20
REMARK    4  A    between atoms: O_10  and  C_31
REMARK    5  A    between atoms: O_10  and  C_32
REMARK    6  A    between atoms: N_11  and  C_16
REMARK    7  A    between atoms: N_12  and  C_23
REMARK    8  A    between atoms: N_13  and  C_26
REMARK    9  A    between atoms: C_15  and  C_21
REMARK   10  A    between atoms: C_23  and  C_24
REMARK   11  A    between atoms: C_23  and  C_25
REMARK                            x       y       z     vdW  Elec       q    Type
REMARK                         _______ _______ _______ _____ _____    ______ ____
ROOT
ATOM     15  C   UNL     1     -10.461  -7.381   7.123  0.00  0.00    +0.146 C 
ATOM     16  C   UNL     1      -8.045  -8.084   7.479  0.00  0.00    +0.109 C 
ATOM     17  C   UNL     1      -9.240  -7.308   8.042  0.00  0.00    +0.069 C 
ATOM     18  C   UNL     1      -7.708  -7.651   6.046  0.00  0.00    +0.163 C 
ATOM     19  C   UNL     1     -10.116  -6.930   5.705  0.00  0.00    +0.078 C 
ATOM     20  C   UNL     1      -8.930  -7.704   5.127  0.00  0.00    +0.148 C 
ENDROOT
BRANCH  16  11
ATOM      8  O   UNL     1      -6.892 -10.061   9.200  0.00  0.00    -0.252 OA
ATOM     11  N   UNL     1      -6.900  -7.914   8.346  0.00  0.00    -0.294 N 
ATOM     13  N   UNL     1      -5.293  -8.482   9.880  0.00  0.00    -0.269 N 
ATOM     22  C   UNL     1      -6.400  -8.936   9.157  0.00  0.00    +0.304 C 
ATOM     33  H   UNL     1      -6.486  -6.989   8.423  0.00  0.00    +0.151 HD
ATOM     38  H   UNL     1      -5.013  -7.517   9.727  0.00  0.00    +0.156 HD
BRANCH  13  26
ATOM     26  C   UNL     1      -4.506  -9.204  10.807  0.00  0.00    +0.035 A 
ATOM     27  C   UNL     1      -5.081  -9.688  11.981  0.00  0.00    +0.027 A 
ATOM     28  C   UNL     1      -3.155  -9.432  10.546  0.00  0.00    +0.027 A 
ATOM     29  C   UNL     1      -4.305 -10.401  12.896  0.00  0.00    +0.048 A 
ATOM     30  C   UNL     1      -2.379 -10.145  11.461  0.00  0.00    +0.048 A 
ATOM     31  C   UNL     1      -2.954 -10.629  12.635  0.00  0.00    +0.130 A 
BRANCH  31  10
ATOM     10  O   UNL     1      -2.197 -11.326  13.526  0.00  0.00    -0.406 OA
BRANCH  10  32
ATOM      1  F   UNL     1      -1.187  -9.483  14.348  0.00  0.00    -0.133 F 
ATOM      2  F   UNL     1      -2.791 -10.387  15.526  0.00  0.00    -0.133 F 
ATOM      3  F   UNL     1      -0.827 -11.388  15.357  0.00  0.00    -0.133 F 
ATOM     32  C   UNL     1      -1.756 -10.659  14.702  0.00  0.00    +0.575 C 
ENDBRANCH  10  32
ENDBRANCH  31  10
ENDBRANCH  13  26
ENDBRANCH  16  11
BRANCH  15  21
ATOM      7  O   UNL     1     -12.755  -6.759   7.354  0.00  0.00    -0.273 OA
ATOM     12  N   UNL     1     -11.138  -5.559   8.522  0.00  0.00    -0.302 N 
ATOM     21  C   UNL     1     -11.586  -6.553   7.671  0.00  0.00    +0.245 C 
ATOM     37  H   UNL     1     -10.145  -5.445   8.691  0.00  0.00    +0.150 HD
BRANCH  12  23
ATOM     23  C   UNL     1     -12.021  -4.612   9.165  0.00  0.00    +0.156 C 
ATOM     24  C   UNL     1     -11.275  -3.344   9.549  0.00  0.00    +0.038 C 
BRANCH  23  25
ATOM      9  O   UNL     1     -12.049  -5.374  11.471  0.00  0.00    -0.274 OA
ATOM     14  N   UNL     1     -13.910  -5.734  10.172  0.00  0.00    -0.328 N 
ATOM     25  C   UNL     1     -12.626  -5.280  10.390  0.00  0.00    +0.231 C 
ATOM     39  H   UNL     1     -14.434  -6.189  10.912  0.00  0.00    +0.145 HD
ATOM     40  H   UNL     1     -14.380  -5.631   9.278  0.00  0.00    +0.145 HD
ENDBRANCH  23  25
ENDBRANCH  12  23
ENDBRANCH  15  21
BRANCH  15   4
ATOM      4  O   UNL     1     -10.970  -8.710   7.077  0.00  0.00    -0.379 OA
ATOM     34  H   UNL     1     -11.899  -8.674   6.792  0.00  0.00    +0.211 HD
ENDBRANCH  15   4
BRANCH  18   5
ATOM      5  O   UNL     1      -6.725  -8.542   5.509  0.00  0.00    -0.387 OA
ATOM     35  H   UNL     1      -5.856  -8.280   5.859  0.00  0.00    +0.210 HD
ENDBRANCH  18   5
BRANCH  20   6
ATOM      6  O   UNL     1      -8.575  -7.129   3.868  0.00  0.00    -0.389 OA
ATOM     36  H   UNL     1      -8.796  -7.778   3.179  0.00  0.00    +0.210 HD
ENDBRANCH  20   6
TORSDOF 10
ENDMDL
MODEL 8
REMARK VINA RESULT:      -6.4      6.232      7.913
REMARK  Name = 7134477
REMARK  11 active torsions:
REMARK  status: ('A' for Active; 'I' for Inactive)
REMARK    1  A    between atoms: O_4  and  C_15
REMARK    2  A    between atoms: O_5  and  C_18
REMARK    3  A    between atoms: O_6  and  C_20
REMARK    4  A    between atoms: O_10  and  C_31
REMARK    5  A    between atoms: O_10  and  C_32
REMARK    6  A    between atoms: N_11  and  C_16
REMARK    7  A    between atoms: N_12  and  C_23
REMARK    8  A    between atoms: N_13  and  C_26
REMARK    9  A    between atoms: C_15  and  C_21
REMARK   10  A    between atoms: C_23  and  C_24
REMARK   11  A    between atoms: C_23  and  C_25
REMARK                            x       y       z     vdW  Elec       q    Type
REMARK                         _______ _______ _______ _____ _____    ______ ____
ROOT
ATOM     15  C   UNL     1      12.833   8.695  19.197  0.00  0.00    +0.146 C 
ATOM     16  C   UNL     1      13.624   9.570  16.946  0.00  0.00    +0.109 C 
ATOM     17  C   UNL     1      13.594   9.800  18.461  0.00  0.00    +0.069 C 
ATOM     18  C   UNL     1      12.216   9.365  16.371  0.00  0.00    +0.163 C 
ATOM     19  C   UNL     1      11.427   8.515  18.628  0.00  0.00    +0.078 C 
ATOM     20  C   UNL     1      11.444   8.275  17.118  0.00  0.00    +0.148 C 
ENDROOT
BRANCH  16  11
ATOM      8  O   UNL     1      15.205   9.466  14.561  0.00  0.00    -0.252 OA
ATOM     11  N   UNL     1      14.283  10.682  16.297  0.00  0.00    -0.294 N 
ATOM     13  N   UNL     1      15.552  11.782  14.735  0.00  0.00    -0.269 N 
ATOM     22  C   UNL     1      15.039  10.543  15.130  0.00  0.00    +0.304 C 
ATOM     33  H   UNL     1      14.256  11.591  16.750  0.00  0.00    +0.151 HD
ATOM     38  H   UNL     1      15.318  12.579  15.321  0.00  0.00    +0.156 HD
BRANCH  13  26
ATOM     26  C   UNL     1      16.364  12.068  13.613  0.00  0.00    +0.035 A 
ATOM     27  C   UNL     1      17.674  12.509  13.795  0.00  0.00    +0.027 A 
ATOM     28  C   UNL     1      15.853  11.909  12.325  0.00  0.00    +0.027 A 
ATOM     29  C   UNL     1      18.475  12.791  12.688  0.00  0.00    +0.048 A 
ATOM     30  C   UNL     1      16.654  12.191  11.218  0.00  0.00    +0.048 A 
ATOM     31  C   UNL     1      17.965  12.632  11.399  0.00  0.00    +0.130 A 
BRANCH  31  10
ATOM     10  O   UNL     1      18.747  12.904  10.320  0.00  0.00    -0.406 OA
BRANCH  10  32
ATOM      1  F   UNL     1      20.045  11.938   8.746  0.00  0.00    -0.133 F 
ATOM      2  F   UNL     1      21.003  12.634  10.584  0.00  0.00    -0.133 F 
ATOM      3  F   UNL     1      19.703  10.846  10.609  0.00  0.00    -0.133 F 
ATOM     32  C   UNL     1      19.879  12.077  10.082  0.00  0.00    +0.575 C 
ENDBRANCH  10  32
ENDBRANCH  31  10
ENDBRANCH  13  26
ENDBRANCH  16  11
BRANCH  15  21
ATOM      7  O   UNL     1      13.367   8.311  21.493  0.00  0.00    -0.273 OA
ATOM     12  N   UNL     1      11.941  10.068  20.945  0.00  0.00    -0.302 N 
ATOM     21  C   UNL     1      12.762   8.990  20.667  0.00  0.00    +0.245 C 
ATOM     37  H   UNL     1      11.453  10.542  20.193  0.00  0.00    +0.150 HD
BRANCH  12  23
ATOM     23  C   UNL     1      11.687  10.542  22.287  0.00  0.00    +0.156 C 
ATOM     24  C   UNL     1      10.666   9.664  22.993  0.00  0.00    +0.038 C 
BRANCH  23  25
ATOM      9  O   UNL     1      11.381  12.704  21.222  0.00  0.00    -0.274 OA
ATOM     14  N   UNL     1      10.496  12.376  23.317  0.00  0.00    -0.328 N 
ATOM     25  C   UNL     1      11.201  11.981  22.199  0.00  0.00    +0.231 C 
ATOM     39  H   UNL     1      10.104  13.310  23.382  0.00  0.00    +0.145 HD
ATOM     40  H   UNL     1      10.338  11.760  24.108  0.00  0.00    +0.145 HD
ENDBRANCH  23  25
ENDBRANCH  12  23
ENDBRANCH  15  21
BRANCH  15   4
ATOM      4  O   UNL     1      13.534   7.460  19.102  0.00  0.00    -0.379 OA
ATOM     34  H   UNL     1      14.284   7.484  19.721  0.00  0.00    +0.211 HD
ENDBRANCH  15   4
BRANCH  18   5
ATOM      5  O   UNL     1      12.326   8.959  15.003  0.00  0.00    -0.387 OA
ATOM     35  H   UNL     1      12.068   8.023  14.945  0.00  0.00    +0.210 HD
ENDBRANCH  18   5
BRANCH  20   6
ATOM      6  O   UNL     1      10.098   8.265  16.637  0.00  0.00    -0.389 OA
ATOM     36  H   UNL     1       9.818   7.336  16.574  0.00  0.00    +0.210 HD
ENDBRANCH  20   6
TORSDOF 10
ENDMDL
MODEL 9
REMARK VINA RESULT:      -6.4     27.493     30.177
REMARK  Name = 7134477
REMARK  11 active torsions:
REMARK  status: ('A' for Active; 'I' for Inactive)
REMARK    1  A    between atoms: O_4  and  C_15
REMARK    2  A    between atoms: O_5  and  C_18
REMARK    3  A    between atoms: O_6  and  C_20
REMARK    4  A    between atoms: O_10  and  C_31
REMARK    5  A    between atoms: O_10  and  C_32
REMARK    6  A    between atoms: N_11  and  C_16
REMARK    7  A    between atoms: N_12  and  C_23
REMARK    8  A    between atoms: N_13  and  C_26
REMARK    9  A    between atoms: C_15  and  C_21
REMARK   10  A    between atoms: C_23  and  C_24
REMARK   11  A    between atoms: C_23  and  C_25
REMARK                            x       y       z     vdW  Elec       q    Type
REMARK                         _______ _______ _______ _____ _____    ______ ____
ROOT
ATOM     15  C   UNL     1      -4.042 -10.836  16.367  0.00  0.00    +0.146 C 
ATOM     16  C   UNL     1      -3.614 -10.600  13.873  0.00  0.00    +0.109 C 
ATOM     17  C   UNL     1      -4.429 -11.303  14.963  0.00  0.00    +0.069 C 
ATOM     18  C   UNL     1      -2.105 -10.723  14.120  0.00  0.00    +0.163 C 
ATOM     19  C   UNL     1      -2.540 -10.983  16.606  0.00  0.00    +0.078 C 
ATOM     20  C   UNL     1      -1.715 -10.276  15.531  0.00  0.00    +0.148 C 
ENDROOT
BRANCH  16  11
ATOM      8  O   UNL     1      -5.110  -9.279  11.820  0.00  0.00    -0.252 OA
ATOM     11  N   UNL     1      -3.965 -11.137  12.577  0.00  0.00    -0.294 N 
ATOM     13  N   UNL     1      -4.885 -11.191  10.478  0.00  0.00    -0.269 N 
ATOM     22  C   UNL     1      -4.701 -10.421  11.630  0.00  0.00    +0.304 C 
ATOM     33  H   UNL     1      -3.728 -12.104  12.376  0.00  0.00    +0.151 HD
ATOM     38  H   UNL     1      -4.478 -12.123  10.482  0.00  0.00    +0.156 HD
BRANCH  13  26
ATOM     26  C   UNL     1      -5.573 -10.834   9.295  0.00  0.00    +0.035 A 
ATOM     27  C   UNL     1      -6.965 -10.884   9.256  0.00  0.00    +0.027 A 
ATOM     28  C   UNL     1      -4.857 -10.430   8.168  0.00  0.00    +0.027 A 
ATOM     29  C   UNL     1      -7.644 -10.530   8.089  0.00  0.00    +0.048 A 
ATOM     30  C   UNL     1      -5.536 -10.077   7.001  0.00  0.00    +0.048 A 
ATOM     31  C   UNL     1      -6.929 -10.126   6.962  0.00  0.00    +0.130 A 
BRANCH  31  10
ATOM     10  O   UNL     1      -7.590  -9.780   5.825  0.00  0.00    -0.406 OA
BRANCH  10  32
ATOM      1  F   UNL     1      -7.686  -7.687   6.667  0.00  0.00    -0.133 F 
ATOM      2  F   UNL     1      -6.695  -7.975   4.740  0.00  0.00    -0.133 F 
ATOM      3  F   UNL     1      -8.893  -8.141   4.902  0.00  0.00    -0.133 F 
ATOM     32  C   UNL     1      -7.718  -8.397   5.515  0.00  0.00    +0.575 C 
ENDBRANCH  10  32
ENDBRANCH  31  10
ENDBRANCH  13  26
ENDBRANCH  16  11
BRANCH  15  21
ATOM      7  O   UNL     1      -4.249 -12.345  18.207  0.00  0.00    -0.273 OA
ATOM     12  N   UNL     1      -6.170 -11.364  17.331  0.00  0.00    -0.302 N 
ATOM     21  C   UNL     1      -4.808 -11.596  17.409  0.00  0.00    +0.245 C 
ATOM     37  H   UNL     1      -6.540 -10.756  16.608  0.00  0.00    +0.150 HD
BRANCH  12  23
ATOM     23  C   UNL     1      -7.131 -11.993  18.208  0.00  0.00    +0.156 C 
ATOM     24  C   UNL     1      -8.420 -12.313  17.467  0.00  0.00    +0.038 C 
BRANCH  23  25
ATOM      9  O   UNL     1      -6.633 -10.930  20.334  0.00  0.00    -0.274 OA
ATOM     14  N   UNL     1      -8.556 -10.330  19.229  0.00  0.00    -0.328 N 
ATOM     25  C   UNL     1      -7.393 -11.056  19.377  0.00  0.00    +0.231 C 
ATOM     39  H   UNL     1      -8.843  -9.657  19.933  0.00  0.00    +0.145 HD
ATOM     40  H   UNL     1      -9.164 -10.431  18.422  0.00  0.00    +0.145 HD
ENDBRANCH  23  25
ENDBRANCH  12  23
ENDBRANCH  15  21
BRANCH  15   4
ATOM      4  O   UNL     1      -4.412  -9.475  16.558  0.00  0.00    -0.379 OA
ATOM     34  H   UNL     1      -3.665  -8.912  16.289  0.00  0.00    +0.211 HD
ENDBRANCH  15   4
BRANCH  18   5
ATOM      5  O   UNL     1      -1.410  -9.884  13.192  0.00  0.00    -0.387 OA
ATOM     35  H   UNL     1      -1.679 -10.140  12.294  0.00  0.00    +0.210 HD
ENDBRANCH  18   5
BRANCH  20   6
ATOM      6  O   UNL     1      -0.334 -10.579  15.736  0.00  0.00    -0.389 OA
ATOM     36  H   UNL     1       0.186  -9.876  15.311  0.00  0.00    +0.210 HD
ENDBRANCH  20   6
TORSDOF 10
ENDMDL
MODEL 10
REMARK VINA RESULT:      -6.2     28.028     31.620
REMARK  Name = 7134477
REMARK  11 active torsions:
REMARK  status: ('A' for Active; 'I' for Inactive)
REMARK    1  A    between atoms: O_4  and  C_15
REMARK    2  A    between atoms: O_5  and  C_18
REMARK    3  A    between atoms: O_6  and  C_20
REMARK    4  A    between atoms: O_10  and  C_31
REMARK    5  A    between atoms: O_10  and  C_32
REMARK    6  A    between atoms: N_11  and  C_16
REMARK    7  A    between atoms: N_12  and  C_23
REMARK    8  A    between atoms: N_13  and  C_26
REMARK    9  A    between atoms: C_15  and  C_21
REMARK   10  A    between atoms: C_23  and  C_24
REMARK   11  A    between atoms: C_23  and  C_25
REMARK                            x       y       z     vdW  Elec       q    Type
REMARK                         _______ _______ _______ _____ _____    ______ ____
ROOT
ATOM     15  C   UNL     1     -13.845   7.329  20.557  0.00  0.00    +0.146 C 
ATOM     16  C   UNL     1     -15.512   5.749  21.643  0.00  0.00    +0.109 C 
ATOM     17  C   UNL     1     -14.038   6.022  21.328  0.00  0.00    +0.069 C 
ATOM     18  C   UNL     1     -16.385   5.803  20.382  0.00  0.00    +0.163 C 
ATOM     19  C   UNL     1     -14.704   7.361  19.294  0.00  0.00    +0.078 C 
ATOM     20  C   UNL     1     -16.180   7.101  19.597  0.00  0.00    +0.148 C 
ENDROOT
BRANCH  16  11
ATOM      8  O   UNL     1     -16.058   5.293  24.417  0.00  0.00    -0.252 OA
ATOM     11  N   UNL     1     -15.643   4.467  22.299  0.00  0.00    -0.294 N 
ATOM     13  N   UNL     1     -15.982   2.981  24.012  0.00  0.00    -0.269 N 
ATOM     22  C   UNL     1     -15.911   4.333  23.664  0.00  0.00    +0.304 C 
ATOM     33  H   UNL     1     -15.458   3.627  21.758  0.00  0.00    +0.151 HD
ATOM     38  H   UNL     1     -15.836   2.309  23.264  0.00  0.00    +0.156 HD
BRANCH  13  26
ATOM     26  C   UNL     1     -16.233   2.426  25.289  0.00  0.00    +0.035 A 
ATOM     27  C   UNL     1     -15.922   3.151  26.438  0.00  0.00    +0.027 A 
ATOM     28  C   UNL     1     -16.792   1.153  25.396  0.00  0.00    +0.027 A 
ATOM     29  C   UNL     1     -16.170   2.603  27.697  0.00  0.00    +0.048 A 
ATOM     30  C   UNL     1     -17.040   0.605  26.656  0.00  0.00    +0.048 A 
ATOM     31  C   UNL     1     -16.729   1.330  27.806  0.00  0.00    +0.130 A 
BRANCH  31  10
ATOM     10  O   UNL     1     -16.973   0.797  29.033  0.00  0.00    -0.406 OA
BRANCH  10  32
ATOM      1  F   UNL     1     -15.507   1.476  30.610  0.00  0.00    -0.133 F 
ATOM      2  F   UNL     1     -16.177  -0.604  30.657  0.00  0.00    -0.133 F 
ATOM      3  F   UNL     1     -14.797   0.090  29.075  0.00  0.00    -0.133 F 
ATOM     32  C   UNL     1     -15.861   0.422  29.838  0.00  0.00    +0.575 C 
ENDBRANCH  10  32
ENDBRANCH  31  10
ENDBRANCH  13  26
ENDBRANCH  16  11
BRANCH  15  21
ATOM      7  O   UNL     1     -11.496   7.205  20.971  0.00  0.00    -0.273 OA
ATOM     12  N   UNL     1     -12.240   8.117  18.962  0.00  0.00    -0.302 N 
ATOM     21  C   UNL     1     -12.399   7.527  20.204  0.00  0.00    +0.245 C 
ATOM     37  H   UNL     1     -13.053   8.382  18.418  0.00  0.00    +0.150 HD
BRANCH  12  23
ATOM     23  C   UNL     1     -10.947   8.435  18.399  0.00  0.00    +0.156 C 
ATOM     24  C   UNL     1     -10.444   9.776  18.907  0.00  0.00    +0.038 C 
BRANCH  23  25
ATOM      9  O   UNL     1     -11.826   9.194  16.265  0.00  0.00    -0.274 OA
ATOM     14  N   UNL     1     -10.233   7.539  16.271  0.00  0.00    -0.328 N 
ATOM     25  C   UNL     1     -11.077   8.441  16.883  0.00  0.00    +0.231 C 
ATOM     39  H   UNL     1     -10.210   7.451  15.260  0.00  0.00    +0.145 HD
ATOM     40  H   UNL     1      -9.605   6.937  16.794  0.00  0.00    +0.145 HD
ENDBRANCH  23  25
ENDBRANCH  12  23
ENDBRANCH  15  21
BRANCH  15   4
ATOM      4  O   UNL     1     -14.180   8.444  21.376  0.00  0.00    -0.379 OA
ATOM     34  H   UNL     1     -14.216   8.146  22.301  0.00  0.00    +0.211 HD
ENDBRANCH  15   4
BRANCH  18   5
ATOM      5  O   UNL     1     -17.763   5.743  20.766  0.00  0.00    -0.387 OA
ATOM     35  H   UNL     1     -18.303   5.952  19.985  0.00  0.00    +0.210 HD
ENDBRANCH  18   5
BRANCH  20   6
ATOM      6  O   UNL     1     -16.893   6.999  18.362  0.00  0.00    -0.389 OA
ATOM     36  H   UNL     1     -17.800   6.718  18.571  0.00  0.00    +0.210 HD
ENDBRANCH  20   6
TORSDOF 10
ENDMDL
