MODEL 1
REMARK VINA RESULT:      -6.2      0.000      0.000
REMARK  Name = 25390274
REMARK  11 active torsions:
REMARK  status: ('A' for Active; 'I' for Inactive)
REMARK    1  A    between atoms: S_1  and  N_8
REMARK    2  A    between atoms: S_1  and  C_17
REMARK    3  A    between atoms: O_3  and  C_11
REMARK    4  A    between atoms: O_4  and  C_12
REMARK    5  A    between atoms: N_8  and  C_14
REMARK    6  A    between atoms: N_9  and  C_20
REMARK    7  A    between atoms: C_10  and  C_14
REMARK    8  A    between atoms: C_13  and  C_15
REMARK    9  A    between atoms: C_15  and  C_16
REMARK   10  A    between atoms: C_20  and  C_25
REMARK   11  A    between atoms: C_23  and  C_24
REMARK                            x       y       z     vdW  Elec       q    Type
REMARK                         _______ _______ _______ _____ _____    ______ ____
ROOT
ATOM      2  O   UNL     1      11.398   8.580  20.318  0.00  0.00    -0.366 OA
ATOM     10  C   UNL     1      10.886   8.817  21.649  0.00  0.00    +0.165 C 
ATOM     11  C   UNL     1      10.726   7.448  22.299  0.00  0.00    +0.175 C 
ATOM     12  C   UNL     1      11.795   6.637  21.594  0.00  0.00    +0.175 C 
ATOM     13  C   UNL     1      11.704   7.181  20.179  0.00  0.00    +0.158 C 
ENDROOT
BRANCH  11   3
ATOM      3  O   UNL     1       9.430   6.950  21.970  0.00  0.00    -0.387 OA
ATOM     28  H   UNL     1       9.182   6.308  22.657  0.00  0.00    +0.210 HD
ENDBRANCH  11   3
BRANCH  12   4
ATOM      4  O   UNL     1      11.565   5.246  21.644  0.00  0.00    -0.387 OA
ATOM     29  H   UNL     1      10.809   5.055  21.063  0.00  0.00    +0.210 HD
ENDBRANCH  12   4
BRANCH  10  14
ATOM     14  C   UNL     1      11.881   9.710  22.378  0.00  0.00    +0.140 C 
BRANCH  14   8
ATOM      8  N   UNL     1      12.984  10.064  21.464  0.00  0.00    -0.187 NA
ATOM     27  H   UNL     1      13.027   9.527  20.589  0.00  0.00    +0.148 HD
BRANCH   8   1
ATOM      1  S   UNL     1      14.429  10.717  22.082  0.00  0.00    +0.058 S 
ATOM      6  O   UNL     1      14.338  10.799  23.527  0.00  0.00    -0.153 OA
ATOM      7  O   UNL     1      14.788  11.889  21.306  0.00  0.00    -0.153 OA
BRANCH   1  17
ATOM     17  C   UNL     1      15.598   9.454  21.680  0.00  0.00    +0.105 A 
ATOM     18  C   UNL     1      15.222   8.112  21.741  0.00  0.00    +0.029 A 
ATOM     19  C   UNL     1      16.896   9.799  21.303  0.00  0.00    +0.029 A 
ATOM     21  C   UNL     1      16.145   7.115  21.425  0.00  0.00    +0.005 A 
ATOM     22  C   UNL     1      17.819   8.802  20.988  0.00  0.00    +0.005 A 
ATOM     23  C   UNL     1      17.444   7.459  21.049  0.00  0.00    -0.050 A 
ATOM     24  C   UNL     1      18.430   6.393  20.711  0.00  0.00    +0.044 C 
ENDBRANCH   1  17
ENDBRANCH   8   1
ENDBRANCH  14   8
ENDBRANCH  10  14
BRANCH  13  15
ATOM     15  C   UNL     1      12.990   7.016  19.387  0.00  0.00    +0.130 C 
BRANCH  15  16
ATOM      5  O   UNL     1      12.767   7.548  17.037  0.00  0.00    -0.276 OA
ATOM      9  N   UNL     1      13.450   9.206  18.515  0.00  0.00    -0.304 N 
ATOM     16  C   UNL     1      13.047   7.925  18.172  0.00  0.00    +0.216 C 
ATOM     30  H   UNL     1      13.645   9.421  19.489  0.00  0.00    +0.150 HD
BRANCH   9  20
ATOM     20  C   UNL     1      13.592  10.273  17.551  0.00  0.00    +0.193 C 
BRANCH  20  25
ATOM     25  C   UNL     1      14.762  11.099  17.846  0.00  0.00    -0.087 C 
ATOM     26  C   UNL     1      15.722  11.779  18.087  0.00  0.00    +0.005 C 
ENDBRANCH  20  25
ENDBRANCH   9  20
ENDBRANCH  15  16
ENDBRANCH  13  15
TORSDOF 10
ENDMDL
MODEL 2
REMARK VINA RESULT:      -6.1      2.151      4.099
REMARK  Name = 25390274
REMARK  11 active torsions:
REMARK  status: ('A' for Active; 'I' for Inactive)
REMARK    1  A    between atoms: S_1  and  N_8
REMARK    2  A    between atoms: S_1  and  C_17
REMARK    3  A    between atoms: O_3  and  C_11
REMARK    4  A    between atoms: O_4  and  C_12
REMARK    5  A    between atoms: N_8  and  C_14
REMARK    6  A    between atoms: N_9  and  C_20
REMARK    7  A    between atoms: C_10  and  C_14
REMARK    8  A    between atoms: C_13  and  C_15
REMARK    9  A    between atoms: C_15  and  C_16
REMARK   10  A    between atoms: C_20  and  C_25
REMARK   11  A    between atoms: C_23  and  C_24
REMARK                            x       y       z     vdW  Elec       q    Type
REMARK                         _______ _______ _______ _____ _____    ______ ____
ROOT
ATOM      2  O   UNL     1      12.785  10.188  21.732  0.00  0.00    -0.366 OA
ATOM     10  C   UNL     1      11.712   9.350  22.221  0.00  0.00    +0.165 C 
ATOM     11  C   UNL     1      10.778  10.263  23.007  0.00  0.00    +0.175 C 
ATOM     12  C   UNL     1      10.987  11.596  22.319  0.00  0.00    +0.175 C 
ATOM     13  C   UNL     1      12.478  11.560  22.033  0.00  0.00    +0.158 C 
ENDROOT
BRANCH  11   3
ATOM      3  O   UNL     1      11.247  10.323  24.354  0.00  0.00    -0.387 OA
ATOM     28  H   UNL     1      10.707   9.707  24.878  0.00  0.00    +0.210 HD
ENDBRANCH  11   3
BRANCH  12   4
ATOM      4  O   UNL     1      10.627  12.701  23.118  0.00  0.00    -0.387 OA
ATOM     29  H   UNL     1      10.968  12.537  24.014  0.00  0.00    +0.210 HD
ENDBRANCH  12   4
BRANCH  10  14
ATOM     14  C   UNL     1      11.040   8.704  21.018  0.00  0.00    +0.140 C 
BRANCH  14   8
ATOM      8  N   UNL     1      12.007   8.609  19.908  0.00  0.00    -0.187 NA
ATOM     27  H   UNL     1      12.050   9.423  19.284  0.00  0.00    +0.148 HD
BRANCH   8   1
ATOM      1  S   UNL     1      12.439   7.086  19.279  0.00  0.00    +0.058 S 
ATOM      6  O   UNL     1      12.402   7.139  17.831  0.00  0.00    -0.153 OA
ATOM      7  O   UNL     1      11.707   6.056  19.991  0.00  0.00    -0.153 OA
BRANCH   1  17
ATOM     17  C   UNL     1      14.130   6.957  19.778  0.00  0.00    +0.105 A 
ATOM     18  C   UNL     1      15.118   6.699  18.828  0.00  0.00    +0.029 A 
ATOM     19  C   UNL     1      14.474   7.109  21.121  0.00  0.00    +0.029 A 
ATOM     21  C   UNL     1      16.452   6.594  19.222  0.00  0.00    +0.005 A 
ATOM     22  C   UNL     1      15.809   7.004  21.514  0.00  0.00    +0.005 A 
ATOM     23  C   UNL     1      16.798   6.747  20.565  0.00  0.00    -0.050 A 
ATOM     24  C   UNL     1      18.225   6.635  20.985  0.00  0.00    +0.044 C 
ENDBRANCH   1  17
ENDBRANCH   8   1
ENDBRANCH  14   8
ENDBRANCH  10  14
BRANCH  13  15
ATOM     15  C   UNL     1      12.890  12.444  20.868  0.00  0.00    +0.130 C 
BRANCH  15  16
ATOM      5  O   UNL     1      15.272  12.344  20.455  0.00  0.00    -0.276 OA
ATOM      9  N   UNL     1      13.847  11.001  19.203  0.00  0.00    -0.304 N 
ATOM     16  C   UNL     1      14.145  11.945  20.174  0.00  0.00    +0.216 C 
ATOM     30  H   UNL     1      12.880  10.727  19.058  0.00  0.00    +0.150 HD
BRANCH   9  20
ATOM     20  C   UNL     1      14.855  10.363  18.388  0.00  0.00    +0.193 C 
BRANCH  20  25
ATOM     25  C   UNL     1      14.328  10.022  17.067  0.00  0.00    -0.087 C 
ATOM     26  C   UNL     1      13.895   9.739  15.983  0.00  0.00    +0.005 C 
ENDBRANCH  20  25
ENDBRANCH   9  20
ENDBRANCH  15  16
ENDBRANCH  13  15
TORSDOF 10
ENDMDL
MODEL 3
REMARK VINA RESULT:      -5.6     25.996     28.137
REMARK  Name = 25390274
REMARK  11 active torsions:
REMARK  status: ('A' for Active; 'I' for Inactive)
REMARK    1  A    between atoms: S_1  and  N_8
REMARK    2  A    between atoms: S_1  and  C_17
REMARK    3  A    between atoms: O_3  and  C_11
REMARK    4  A    between atoms: O_4  and  C_12
REMARK    5  A    between atoms: N_8  and  C_14
REMARK    6  A    between atoms: N_9  and  C_20
REMARK    7  A    between atoms: C_10  and  C_14
REMARK    8  A    between atoms: C_13  and  C_15
REMARK    9  A    between atoms: C_15  and  C_16
REMARK   10  A    between atoms: C_20  and  C_25
REMARK   11  A    between atoms: C_23  and  C_24
REMARK                            x       y       z     vdW  Elec       q    Type
REMARK                         _______ _______ _______ _____ _____    ______ ____
ROOT
ATOM      2  O   UNL     1      -4.786 -10.978  18.867  0.00  0.00    -0.366 OA
ATOM     10  C   UNL     1      -4.041 -11.618  17.805  0.00  0.00    +0.165 C 
ATOM     11  C   UNL     1      -4.791 -12.901  17.467  0.00  0.00    +0.175 C 
ATOM     12  C   UNL     1      -6.217 -12.538  17.828  0.00  0.00    +0.175 C 
ATOM     13  C   UNL     1      -6.010 -11.703  19.080  0.00  0.00    +0.158 C 
ENDROOT
BRANCH  11   3
ATOM      3  O   UNL     1      -4.310 -13.934  18.327  0.00  0.00    -0.387 OA
ATOM     28  H   UNL     1      -4.329 -13.588  19.235  0.00  0.00    +0.210 HD
ENDBRANCH  11   3
BRANCH  12   4
ATOM      4  O   UNL     1      -7.035 -13.661  18.070  0.00  0.00    -0.387 OA
ATOM     29  H   UNL     1      -7.960 -13.371  17.988  0.00  0.00    +0.210 HD
ENDBRANCH  12   4
BRANCH  10  14
ATOM     14  C   UNL     1      -3.968 -10.645  16.636  0.00  0.00    +0.140 C 
BRANCH  14   8
ATOM      8  N   UNL     1      -3.683 -11.390  15.395  0.00  0.00    -0.187 NA
ATOM     27  H   UNL     1      -4.154 -12.299  15.303  0.00  0.00    +0.148 HD
BRANCH   8   1
ATOM      1  S   UNL     1      -2.206 -11.160  14.581  0.00  0.00    +0.058 S 
ATOM      6  O   UNL     1      -1.586 -12.449  14.340  0.00  0.00    -0.153 OA
ATOM      7  O   UNL     1      -1.462 -10.104  15.241  0.00  0.00    -0.153 OA
BRANCH   1  17
ATOM     17  C   UNL     1      -2.747 -10.516  13.026  0.00  0.00    +0.105 A 
ATOM     18  C   UNL     1      -1.810 -10.117  12.073  0.00  0.00    +0.029 A 
ATOM     19  C   UNL     1      -4.110 -10.405  12.754  0.00  0.00    +0.029 A 
ATOM     21  C   UNL     1      -2.237  -9.607  10.848  0.00  0.00    +0.005 A 
ATOM     22  C   UNL     1      -4.537  -9.895  11.528  0.00  0.00    +0.005 A 
ATOM     23  C   UNL     1      -3.601  -9.495  10.575  0.00  0.00    -0.050 A 
ATOM     24  C   UNL     1      -4.057  -8.950   9.263  0.00  0.00    +0.044 C 
ENDBRANCH   1  17
ENDBRANCH   8   1
ENDBRANCH  14   8
ENDBRANCH  10  14
BRANCH  13  15
ATOM     15  C   UNL     1      -7.142 -10.726  19.346  0.00  0.00    +0.130 C 
BRANCH  15  16
ATOM      5  O   UNL     1      -7.036  -9.401  17.325  0.00  0.00    -0.276 OA
ATOM      9  N   UNL     1      -9.024 -10.471  17.876  0.00  0.00    -0.304 N 
ATOM     16  C   UNL     1      -7.697 -10.117  18.072  0.00  0.00    +0.216 C 
ATOM     30  H   UNL     1      -9.478 -11.083  18.547  0.00  0.00    +0.150 HD
BRANCH   9  20
ATOM     20  C   UNL     1      -9.799 -10.027  16.740  0.00  0.00    +0.193 C 
BRANCH  20  25
ATOM     25  C   UNL     1     -10.264  -8.652  16.925  0.00  0.00    -0.087 C 
ATOM     26  C   UNL     1     -10.646  -7.523  17.073  0.00  0.00    +0.005 C 
ENDBRANCH  20  25
ENDBRANCH   9  20
ENDBRANCH  15  16
ENDBRANCH  13  15
TORSDOF 10
ENDMDL
MODEL 4
REMARK VINA RESULT:      -5.5     14.037     17.259
REMARK  Name = 25390274
REMARK  11 active torsions:
REMARK  status: ('A' for Active; 'I' for Inactive)
REMARK    1  A    between atoms: S_1  and  N_8
REMARK    2  A    between atoms: S_1  and  C_17
REMARK    3  A    between atoms: O_3  and  C_11
REMARK    4  A    between atoms: O_4  and  C_12
REMARK    5  A    between atoms: N_8  and  C_14
REMARK    6  A    between atoms: N_9  and  C_20
REMARK    7  A    between atoms: C_10  and  C_14
REMARK    8  A    between atoms: C_13  and  C_15
REMARK    9  A    between atoms: C_15  and  C_16
REMARK   10  A    between atoms: C_20  and  C_25
REMARK   11  A    between atoms: C_23  and  C_24
REMARK                            x       y       z     vdW  Elec       q    Type
REMARK                         _______ _______ _______ _____ _____    ______ ____
ROOT
ATOM      2  O   UNL     1      10.726   8.719   5.769  0.00  0.00    -0.366 OA
ATOM     10  C   UNL     1      12.028   8.389   5.234  0.00  0.00    +0.165 C 
ATOM     11  C   UNL     1      13.035   9.248   5.992  0.00  0.00    +0.175 C 
ATOM     12  C   UNL     1      12.343   9.441   7.326  0.00  0.00    +0.175 C 
ATOM     13  C   UNL     1      10.894   9.595   6.898  0.00  0.00    +0.158 C 
ENDROOT
BRANCH  11   3
ATOM      3  O   UNL     1      13.153  10.496   5.310  0.00  0.00    -0.387 OA
ATOM     28  H   UNL     1      12.795  10.374   4.415  0.00  0.00    +0.210 HD
ENDBRANCH  11   3
BRANCH  12   4
ATOM      4  O   UNL     1      12.808  10.566   8.039  0.00  0.00    -0.387 OA
ATOM     29  H   UNL     1      13.111  10.255   8.909  0.00  0.00    +0.210 HD
ENDBRANCH  12   4
BRANCH  10  14
ATOM     14  C   UNL     1      12.249   6.896   5.434  0.00  0.00    +0.140 C 
BRANCH  14   8
ATOM      8  N   UNL     1      12.201   6.214   4.128  0.00  0.00    -0.187 NA
ATOM     27  H   UNL     1      12.838   6.579   3.410  0.00  0.00    +0.148 HD
BRANCH   8   1
ATOM      1  S   UNL     1      10.770   5.443   3.619  0.00  0.00    +0.058 S 
ATOM      6  O   UNL     1       9.762   6.445   3.334  0.00  0.00    -0.153 OA
ATOM      7  O   UNL     1      10.476   4.348   4.524  0.00  0.00    -0.153 OA
BRANCH   1  17
ATOM     17  C   UNL     1      11.273   4.724   2.085  0.00  0.00    +0.105 A 
ATOM     18  C   UNL     1      12.409   3.916   2.033  0.00  0.00    +0.029 A 
ATOM     19  C   UNL     1      10.536   4.967   0.926  0.00  0.00    +0.029 A 
ATOM     21  C   UNL     1      12.807   3.350   0.822  0.00  0.00    +0.005 A 
ATOM     22  C   UNL     1      10.935   4.401  -0.285  0.00  0.00    +0.005 A 
ATOM     23  C   UNL     1      12.070   3.592  -0.337  0.00  0.00    -0.050 A 
ATOM     24  C   UNL     1      12.497   2.987  -1.632  0.00  0.00    +0.044 C 
ENDBRANCH   1  17
ENDBRANCH   8   1
ENDBRANCH  14   8
ENDBRANCH  10  14
BRANCH  13  15
ATOM     15  C   UNL     1       9.902   9.223   7.986  0.00  0.00    +0.130 C 
BRANCH  15  16
ATOM      5  O   UNL     1       8.121   7.732   7.306  0.00  0.00    -0.276 OA
ATOM      9  N   UNL     1      10.114   6.833   8.094  0.00  0.00    -0.304 N 
ATOM     16  C   UNL     1       9.259   7.869   7.749  0.00  0.00    +0.216 C 
ATOM     30  H   UNL     1      11.044   7.052   8.438  0.00  0.00    +0.150 HD
BRANCH   9  20
ATOM     20  C   UNL     1       9.755   5.439   7.971  0.00  0.00    +0.193 C 
BRANCH  20  25
ATOM     25  C   UNL     1       9.305   4.895   9.252  0.00  0.00    -0.087 C 
ATOM     26  C   UNL     1       8.939   4.449  10.305  0.00  0.00    +0.005 C 
ENDBRANCH  20  25
ENDBRANCH   9  20
ENDBRANCH  15  16
ENDBRANCH  13  15
TORSDOF 10
ENDMDL
MODEL 5
REMARK VINA RESULT:      -5.5      2.844      5.927
REMARK  Name = 25390274
REMARK  11 active torsions:
REMARK  status: ('A' for Active; 'I' for Inactive)
REMARK    1  A    between atoms: S_1  and  N_8
REMARK    2  A    between atoms: S_1  and  C_17
REMARK    3  A    between atoms: O_3  and  C_11
REMARK    4  A    between atoms: O_4  and  C_12
REMARK    5  A    between atoms: N_8  and  C_14
REMARK    6  A    between atoms: N_9  and  C_20
REMARK    7  A    between atoms: C_10  and  C_14
REMARK    8  A    between atoms: C_13  and  C_15
REMARK    9  A    between atoms: C_15  and  C_16
REMARK   10  A    between atoms: C_20  and  C_25
REMARK   11  A    between atoms: C_23  and  C_24
REMARK                            x       y       z     vdW  Elec       q    Type
REMARK                         _______ _______ _______ _____ _____    ______ ____
ROOT
ATOM      2  O   UNL     1      16.279   8.643  20.570  0.00  0.00    -0.366 OA
ATOM     10  C   UNL     1      15.303   7.597  20.361  0.00  0.00    +0.165 C 
ATOM     11  C   UNL     1      16.091   6.314  20.123  0.00  0.00    +0.175 C 
ATOM     12  C   UNL     1      17.362   6.575  20.905  0.00  0.00    +0.175 C 
ATOM     13  C   UNL     1      17.589   8.052  20.631  0.00  0.00    +0.158 C 
ENDROOT
BRANCH  11   3
ATOM      3  O   UNL     1      16.378   6.223  18.728  0.00  0.00    -0.387 OA
ATOM     28  H   UNL     1      15.763   6.817  18.265  0.00  0.00    +0.210 HD
ENDBRANCH  11   3
BRANCH  12   4
ATOM      4  O   UNL     1      18.451   5.784  20.483  0.00  0.00    -0.387 OA
ATOM     29  H   UNL     1      18.933   5.503  21.279  0.00  0.00    +0.210 HD
ENDBRANCH  12   4
BRANCH  10  14
ATOM     14  C   UNL     1      14.418   7.532  21.598  0.00  0.00    +0.140 C 
BRANCH  14   8
ATOM      8  N   UNL     1      13.395   6.486  21.415  0.00  0.00    -0.187 NA
ATOM     27  H   UNL     1      13.751   5.529  21.304  0.00  0.00    +0.148 HD
BRANCH   8   1
ATOM      1  S   UNL     1      11.892   6.874  20.714  0.00  0.00    +0.058 S 
ATOM      6  O   UNL     1      10.858   6.054  21.314  0.00  0.00    -0.153 OA
ATOM      7  O   UNL     1      12.041   6.923  19.272  0.00  0.00    -0.153 OA
BRANCH   1  17
ATOM     17  C   UNL     1      11.656   8.537  21.264  0.00  0.00    +0.105 A 
ATOM     18  C   UNL     1      11.083   8.784  22.512  0.00  0.00    +0.029 A 
ATOM     19  C   UNL     1      12.041   9.602  20.450  0.00  0.00    +0.029 A 
ATOM     21  C   UNL     1      10.895  10.096  22.945  0.00  0.00    +0.005 A 
ATOM     22  C   UNL     1      11.852  10.915  20.883  0.00  0.00    +0.005 A 
ATOM     23  C   UNL     1      11.279  11.162  22.131  0.00  0.00    -0.050 A 
ATOM     24  C   UNL     1      11.078  12.565  22.595  0.00  0.00    +0.044 C 
ENDBRANCH   1  17
ENDBRANCH   8   1
ENDBRANCH  14   8
ENDBRANCH  10  14
BRANCH  13  15
ATOM     15  C   UNL     1      18.412   8.744  21.704  0.00  0.00    +0.130 C 
BRANCH  15  16
ATOM      5  O   UNL     1      18.821  11.061  21.141  0.00  0.00    -0.276 OA
ATOM      9  N   UNL     1      17.087  10.538  22.597  0.00  0.00    -0.304 N 
ATOM     16  C   UNL     1      18.154  10.239  21.763  0.00  0.00    +0.216 C 
ATOM     30  H   UNL     1      16.589   9.780  23.056  0.00  0.00    +0.150 HD
BRANCH   9  20
ATOM     20  C   UNL     1      16.627  11.886  22.837  0.00  0.00    +0.193 C 
BRANCH  20  25
ATOM     25  C   UNL     1      15.727  12.332  21.774  0.00  0.00    -0.087 C 
ATOM     26  C   UNL     1      14.990  12.698  20.899  0.00  0.00    +0.005 C 
ENDBRANCH  20  25
ENDBRANCH   9  20
ENDBRANCH  15  16
ENDBRANCH  13  15
TORSDOF 10
ENDMDL
MODEL 6
REMARK VINA RESULT:      -5.5     27.382     29.736
REMARK  Name = 25390274
REMARK  11 active torsions:
REMARK  status: ('A' for Active; 'I' for Inactive)
REMARK    1  A    between atoms: S_1  and  N_8
REMARK    2  A    between atoms: S_1  and  C_17
REMARK    3  A    between atoms: O_3  and  C_11
REMARK    4  A    between atoms: O_4  and  C_12
REMARK    5  A    between atoms: N_8  and  C_14
REMARK    6  A    between atoms: N_9  and  C_20
REMARK    7  A    between atoms: C_10  and  C_14
REMARK    8  A    between atoms: C_13  and  C_15
REMARK    9  A    between atoms: C_15  and  C_16
REMARK   10  A    between atoms: C_20  and  C_25
REMARK   11  A    between atoms: C_23  and  C_24
REMARK                            x       y       z     vdW  Elec       q    Type
REMARK                         _______ _______ _______ _____ _____    ______ ____
ROOT
ATOM      2  O   UNL     1      -6.473 -11.606  17.186  0.00  0.00    -0.366 OA
ATOM     10  C   UNL     1      -6.300 -12.164  18.508  0.00  0.00    +0.165 C 
ATOM     11  C   UNL     1      -4.801 -12.377  18.693  0.00  0.00    +0.175 C 
ATOM     12  C   UNL     1      -4.217 -11.298  17.804  0.00  0.00    +0.175 C 
ATOM     13  C   UNL     1      -5.178 -11.322  16.627  0.00  0.00    +0.158 C 
ENDROOT
BRANCH  11   3
ATOM      3  O   UNL     1      -4.472 -13.669  18.185  0.00  0.00    -0.387 OA
ATOM     28  H   UNL     1      -4.073 -14.176  18.913  0.00  0.00    +0.210 HD
ENDBRANCH  11   3
BRANCH  12   4
ATOM      4  O   UNL     1      -2.888 -11.558  17.409  0.00  0.00    -0.387 OA
ATOM     29  H   UNL     1      -2.915 -12.263  16.740  0.00  0.00    +0.210 HD
ENDBRANCH  12   4
BRANCH  10  14
ATOM     14  C   UNL     1      -6.889 -11.181  19.510  0.00  0.00    +0.140 C 
BRANCH  14   8
ATOM      8  N   UNL     1      -7.923 -10.365  18.846  0.00  0.00    -0.187 NA
ATOM     27  H   UNL     1      -7.676  -9.382  18.678  0.00  0.00    +0.148 HD
BRANCH   8   1
ATOM      1  S   UNL     1      -9.569 -10.764  19.021  0.00  0.00    +0.058 S 
ATOM      6  O   UNL     1      -9.963 -10.578  20.404  0.00  0.00    -0.153 OA
ATOM      7  O   UNL     1      -9.823 -12.027  18.353  0.00  0.00    -0.153 OA
BRANCH   1  17
ATOM     17  C   UNL     1     -10.350  -9.505  18.058  0.00  0.00    +0.105 A 
ATOM     18  C   UNL     1     -11.716  -9.582  17.785  0.00  0.00    +0.029 A 
ATOM     19  C   UNL     1      -9.600  -8.435  17.569  0.00  0.00    +0.029 A 
ATOM     21  C   UNL     1     -12.332  -8.590  17.023  0.00  0.00    +0.005 A 
ATOM     22  C   UNL     1     -10.217  -7.443  16.806  0.00  0.00    +0.005 A 
ATOM     23  C   UNL     1     -11.583  -7.520  16.534  0.00  0.00    -0.050 A 
ATOM     24  C   UNL     1     -12.242  -6.458  15.719  0.00  0.00    +0.044 C 
ENDBRANCH   1  17
ENDBRANCH   8   1
ENDBRANCH  14   8
ENDBRANCH  10  14
BRANCH  13  15
ATOM     15  C   UNL     1      -5.227 -10.010  15.863  0.00  0.00    +0.130 C 
BRANCH  15  16
ATOM      5  O   UNL     1      -5.849 -10.420  13.561  0.00  0.00    -0.276 OA
ATOM      9  N   UNL     1      -7.456  -9.641  15.048  0.00  0.00    -0.304 N 
ATOM     16  C   UNL     1      -6.184 -10.057  14.686  0.00  0.00    +0.216 C 
ATOM     30  H   UNL     1      -7.635  -9.374  16.012  0.00  0.00    +0.150 HD
BRANCH   9  20
ATOM     20  C   UNL     1      -8.562  -9.586  14.120  0.00  0.00    +0.193 C 
BRANCH  20  25
ATOM     25  C   UNL     1      -9.609 -10.538  14.490  0.00  0.00    -0.087 C 
ATOM     26  C   UNL     1     -10.465 -11.323  14.796  0.00  0.00    +0.005 C 
ENDBRANCH  20  25
ENDBRANCH   9  20
ENDBRANCH  15  16
ENDBRANCH  13  15
TORSDOF 10
ENDMDL
MODEL 7
REMARK VINA RESULT:      -5.5      2.397      4.345
REMARK  Name = 25390274
REMARK  11 active torsions:
REMARK  status: ('A' for Active; 'I' for Inactive)
REMARK    1  A    between atoms: S_1  and  N_8
REMARK    2  A    between atoms: S_1  and  C_17
REMARK    3  A    between atoms: O_3  and  C_11
REMARK    4  A    between atoms: O_4  and  C_12
REMARK    5  A    between atoms: N_8  and  C_14
REMARK    6  A    between atoms: N_9  and  C_20
REMARK    7  A    between atoms: C_10  and  C_14
REMARK    8  A    between atoms: C_13  and  C_15
REMARK    9  A    between atoms: C_15  and  C_16
REMARK   10  A    between atoms: C_20  and  C_25
REMARK   11  A    between atoms: C_23  and  C_24
REMARK                            x       y       z     vdW  Elec       q    Type
REMARK                         _______ _______ _______ _____ _____    ______ ____
ROOT
ATOM      2  O   UNL     1      12.787   8.999  22.362  0.00  0.00    -0.366 OA
ATOM     10  C   UNL     1      13.481   8.445  21.220  0.00  0.00    +0.165 C 
ATOM     11  C   UNL     1      12.544   7.411  20.607  0.00  0.00    +0.175 C 
ATOM     12  C   UNL     1      11.182   7.957  20.984  0.00  0.00    +0.175 C 
ATOM     13  C   UNL     1      11.443   8.486  22.384  0.00  0.00    +0.158 C 
ENDROOT
BRANCH  11   3
ATOM      3  O   UNL     1      12.774   6.163  21.259  0.00  0.00    -0.387 OA
ATOM     28  H   UNL     1      12.307   6.189  22.112  0.00  0.00    +0.210 HD
ENDBRANCH  11   3
BRANCH  12   4
ATOM      4  O   UNL     1      10.164   6.980  20.968  0.00  0.00    -0.387 OA
ATOM     29  H   UNL     1      10.450   6.252  21.546  0.00  0.00    +0.210 HD
ENDBRANCH  12   4
BRANCH  10  14
ATOM     14  C   UNL     1      13.806   9.591  20.272  0.00  0.00    +0.140 C 
BRANCH  14   8
ATOM      8  N   UNL     1      15.211   9.486  19.837  0.00  0.00    -0.187 NA
ATOM     27  H   UNL     1      15.417   8.728  19.175  0.00  0.00    +0.148 HD
BRANCH   8   1
ATOM      1  S   UNL     1      16.463  10.029  20.855  0.00  0.00    +0.058 S 
ATOM      6  O   UNL     1      15.955  10.170  22.206  0.00  0.00    -0.153 OA
ATOM      7  O   UNL     1      17.147  11.136  20.214  0.00  0.00    -0.153 OA
BRANCH   1  17
ATOM     17  C   UNL     1      17.572   8.653  20.830  0.00  0.00    +0.105 A 
ATOM     18  C   UNL     1      17.157   7.433  20.296  0.00  0.00    +0.029 A 
ATOM     19  C   UNL     1      18.861   8.787  21.347  0.00  0.00    +0.029 A 
ATOM     21  C   UNL     1      18.032   6.347  20.278  0.00  0.00    +0.005 A 
ATOM     22  C   UNL     1      19.735   7.700  21.329  0.00  0.00    +0.005 A 
ATOM     23  C   UNL     1      19.321   6.480  20.795  0.00  0.00    -0.050 A 
ATOM     24  C   UNL     1      20.255   5.318  20.775  0.00  0.00    +0.044 C 
ENDBRANCH   1  17
ENDBRANCH   8   1
ENDBRANCH  14   8
ENDBRANCH  10  14
BRANCH  13  15
ATOM     15  C   UNL     1      10.483   9.587  22.801  0.00  0.00    +0.130 C 
BRANCH  15  16
ATOM      5  O   UNL     1      11.355  11.778  22.258  0.00  0.00    -0.276 OA
ATOM      9  N   UNL     1      11.620  10.954  24.415  0.00  0.00    -0.304 N 
ATOM     16  C   UNL     1      11.192  10.896  23.098  0.00  0.00    +0.216 C 
ATOM     30  H   UNL     1      11.421  10.175  25.036  0.00  0.00    +0.150 HD
BRANCH   9  20
ATOM     20  C   UNL     1      12.326  12.088  24.966  0.00  0.00    +0.193 C 
BRANCH  20  25
ATOM     25  C   UNL     1      11.393  13.095  25.471  0.00  0.00    -0.087 C 
ATOM     26  C   UNL     1      10.624  13.920  25.885  0.00  0.00    +0.005 C 
ENDBRANCH  20  25
ENDBRANCH   9  20
ENDBRANCH  15  16
ENDBRANCH  13  15
TORSDOF 10
ENDMDL
MODEL 8
REMARK VINA RESULT:      -5.5     26.365     29.872
REMARK  Name = 25390274
REMARK  11 active torsions:
REMARK  status: ('A' for Active; 'I' for Inactive)
REMARK    1  A    between atoms: S_1  and  N_8
REMARK    2  A    between atoms: S_1  and  C_17
REMARK    3  A    between atoms: O_3  and  C_11
REMARK    4  A    between atoms: O_4  and  C_12
REMARK    5  A    between atoms: N_8  and  C_14
REMARK    6  A    between atoms: N_9  and  C_20
REMARK    7  A    between atoms: C_10  and  C_14
REMARK    8  A    between atoms: C_13  and  C_15
REMARK    9  A    between atoms: C_15  and  C_16
REMARK   10  A    between atoms: C_20  and  C_25
REMARK   11  A    between atoms: C_23  and  C_24
REMARK                            x       y       z     vdW  Elec       q    Type
REMARK                         _______ _______ _______ _____ _____    ______ ____
ROOT
ATOM      2  O   UNL     1     -15.399   3.473  25.128  0.00  0.00    -0.366 OA
ATOM     10  C   UNL     1     -15.913   3.935  23.858  0.00  0.00    +0.165 C 
ATOM     11  C   UNL     1     -17.196   3.152  23.602  0.00  0.00    +0.175 C 
ATOM     12  C   UNL     1     -17.673   2.860  25.011  0.00  0.00    +0.175 C 
ATOM     13  C   UNL     1     -16.361   2.586  25.726  0.00  0.00    +0.158 C 
ENDROOT
BRANCH  11   3
ATOM      3  O   UNL     1     -16.849   1.938  22.937  0.00  0.00    -0.387 OA
ATOM     28  H   UNL     1     -17.236   1.206  23.446  0.00  0.00    +0.210 HD
ENDBRANCH  11   3
BRANCH  12   4
ATOM      4  O   UNL     1     -18.557   1.763  25.086  0.00  0.00    -0.387 OA
ATOM     29  H   UNL     1     -18.249   1.096  24.449  0.00  0.00    +0.210 HD
ENDBRANCH  12   4
BRANCH  10  14
ATOM     14  C   UNL     1     -16.144   5.436  23.967  0.00  0.00    +0.140 C 
BRANCH  14   8
ATOM      8  N   UNL     1     -14.969   6.153  23.437  0.00  0.00    -0.187 NA
ATOM     27  H   UNL     1     -15.029   7.178  23.451  0.00  0.00    +0.148 HD
BRANCH   8   1
ATOM      1  S   UNL     1     -13.978   5.418  22.263  0.00  0.00    +0.058 S 
ATOM      6  O   UNL     1     -14.812   4.817  21.241  0.00  0.00    -0.153 OA
ATOM      7  O   UNL     1     -12.959   4.631  22.930  0.00  0.00    -0.153 OA
BRANCH   1  17
ATOM     17  C   UNL     1     -13.165   6.816  21.551  0.00  0.00    +0.105 A 
ATOM     18  C   UNL     1     -12.002   6.640  20.801  0.00  0.00    +0.029 A 
ATOM     19  C   UNL     1     -13.686   8.097  21.740  0.00  0.00    +0.029 A 
ATOM     21  C   UNL     1     -11.359   7.743  20.241  0.00  0.00    +0.005 A 
ATOM     22  C   UNL     1     -13.042   9.201  21.179  0.00  0.00    +0.005 A 
ATOM     23  C   UNL     1     -11.879   9.024  20.430  0.00  0.00    -0.050 A 
ATOM     24  C   UNL     1     -11.192  10.204  19.830  0.00  0.00    +0.044 C 
ENDBRANCH   1  17
ENDBRANCH   8   1
ENDBRANCH  14   8
ENDBRANCH  10  14
BRANCH  13  15
ATOM     15  C   UNL     1     -16.427   2.837  27.222  0.00  0.00    +0.130 C 
BRANCH  15  16
ATOM      5  O   UNL     1     -17.095   0.564  27.715  0.00  0.00    -0.276 OA
ATOM      9  N   UNL     1     -15.611   1.645  29.141  0.00  0.00    -0.304 N 
ATOM     16  C   UNL     1     -16.434   1.551  28.028  0.00  0.00    +0.216 C 
ATOM     30  H   UNL     1     -15.093   2.503  29.303  0.00  0.00    +0.150 HD
BRANCH   9  20
ATOM     20  C   UNL     1     -15.433   0.564  30.084  0.00  0.00    +0.193 C 
BRANCH  20  25
ATOM     25  C   UNL     1     -14.287  -0.269  29.720  0.00  0.00    -0.087 C 
ATOM     26  C   UNL     1     -13.344  -0.952  29.425  0.00  0.00    +0.005 C 
ENDBRANCH  20  25
ENDBRANCH   9  20
ENDBRANCH  15  16
ENDBRANCH  13  15
TORSDOF 10
ENDMDL
MODEL 9
REMARK VINA RESULT:      -5.4     16.724     19.522
REMARK  Name = 25390274
REMARK  11 active torsions:
REMARK  status: ('A' for Active; 'I' for Inactive)
REMARK    1  A    between atoms: S_1  and  N_8
REMARK    2  A    between atoms: S_1  and  C_17
REMARK    3  A    between atoms: O_3  and  C_11
REMARK    4  A    between atoms: O_4  and  C_12
REMARK    5  A    between atoms: N_8  and  C_14
REMARK    6  A    between atoms: N_9  and  C_20
REMARK    7  A    between atoms: C_10  and  C_14
REMARK    8  A    between atoms: C_13  and  C_15
REMARK    9  A    between atoms: C_15  and  C_16
REMARK   10  A    between atoms: C_20  and  C_25
REMARK   11  A    between atoms: C_23  and  C_24
REMARK                            x       y       z     vdW  Elec       q    Type
REMARK                         _______ _______ _______ _____ _____    ______ ____
ROOT
ATOM      2  O   UNL     1      12.702   3.173   0.576  0.00  0.00    -0.366 OA
ATOM     10  C   UNL     1      13.127   3.737   1.839  0.00  0.00    +0.165 C 
ATOM     11  C   UNL     1      14.553   4.233   1.631  0.00  0.00    +0.175 C 
ATOM     12  C   UNL     1      14.560   4.564   0.152  0.00  0.00    +0.175 C 
ATOM     13  C   UNL     1      13.711   3.438  -0.414  0.00  0.00    +0.158 C 
ENDROOT
BRANCH  11   3
ATOM      3  O   UNL     1      15.442   3.150   1.900  0.00  0.00    -0.387 OA
ATOM     28  H   UNL     1      15.145   2.391   1.370  0.00  0.00    +0.210 HD
ENDBRANCH  11   3
BRANCH  12   4
ATOM      4  O   UNL     1      15.853   4.587  -0.410  0.00  0.00    -0.387 OA
ATOM     29  H   UNL     1      15.766   4.361  -1.352  0.00  0.00    +0.210 HD
ENDBRANCH  12   4
BRANCH  10  14
ATOM     14  C   UNL     1      12.155   4.851   2.201  0.00  0.00    +0.140 C 
BRANCH  14   8
ATOM      8  N   UNL     1      12.755   5.707   3.242  0.00  0.00    -0.187 NA
ATOM     27  H   UNL     1      13.487   5.267   3.813  0.00  0.00    +0.148 HD
BRANCH   8   1
ATOM      1  S   UNL     1      11.855   6.981   3.924  0.00  0.00    +0.058 S 
ATOM      6  O   UNL     1      10.759   7.322   3.037  0.00  0.00    -0.153 OA
ATOM      7  O   UNL     1      12.768   8.010   4.385  0.00  0.00    -0.153 OA
BRANCH   1  17
ATOM     17  C   UNL     1      11.175   6.213   5.362  0.00  0.00    +0.105 A 
ATOM     18  C   UNL     1      10.242   5.185   5.228  0.00  0.00    +0.029 A 
ATOM     19  C   UNL     1      11.570   6.636   6.632  0.00  0.00    +0.029 A 
ATOM     21  C   UNL     1       9.703   4.580   6.363  0.00  0.00    +0.005 A 
ATOM     22  C   UNL     1      11.030   6.031   7.767  0.00  0.00    +0.005 A 
ATOM     23  C   UNL     1      10.097   5.003   7.633  0.00  0.00    -0.050 A 
ATOM     24  C   UNL     1       9.521   4.355   8.847  0.00  0.00    +0.044 C 
ENDBRANCH   1  17
ENDBRANCH   8   1
ENDBRANCH  14   8
ENDBRANCH  10  14
BRANCH  13  15
ATOM     15  C   UNL     1      13.050   3.789  -1.736  0.00  0.00    +0.130 C 
BRANCH  15  16
ATOM      5  O   UNL     1      10.825   2.869  -1.976  0.00  0.00    -0.276 OA
ATOM      9  N   UNL     1      11.078   5.022  -1.137  0.00  0.00    -0.304 N 
ATOM     16  C   UNL     1      11.535   3.813  -1.641  0.00  0.00    +0.216 C 
ATOM     30  H   UNL     1      11.751   5.736  -0.874  0.00  0.00    +0.150 HD
BRANCH   9  20
ATOM     20  C   UNL     1       9.676   5.316  -0.943  0.00  0.00    +0.193 C 
BRANCH  20  25
ATOM     25  C   UNL     1       9.096   5.926  -2.139  0.00  0.00    -0.087 C 
ATOM     26  C   UNL     1       8.620   6.424  -3.123  0.00  0.00    +0.005 C 
ENDBRANCH  20  25
ENDBRANCH   9  20
ENDBRANCH  15  16
ENDBRANCH  13  15
TORSDOF 10
ENDMDL
MODEL 10
REMARK VINA RESULT:      -5.4     26.003     27.925
REMARK  Name = 25390274
REMARK  11 active torsions:
REMARK  status: ('A' for Active; 'I' for Inactive)
REMARK    1  A    between atoms: S_1  and  N_8
REMARK    2  A    between atoms: S_1  and  C_17
REMARK    3  A    between atoms: O_3  and  C_11
REMARK    4  A    between atoms: O_4  and  C_12
REMARK    5  A    between atoms: N_8  and  C_14
REMARK    6  A    between atoms: N_9  and  C_20
REMARK    7  A    between atoms: C_10  and  C_14
REMARK    8  A    between atoms: C_13  and  C_15
REMARK    9  A    between atoms: C_15  and  C_16
REMARK   10  A    between atoms: C_20  and  C_25
REMARK   11  A    between atoms: C_23  and  C_24
REMARK                            x       y       z     vdW  Elec       q    Type
REMARK                         _______ _______ _______ _____ _____    ______ ____
ROOT
ATOM      2  O   UNL     1      -4.784 -10.158  17.402  0.00  0.00    -0.366 OA
ATOM     10  C   UNL     1      -3.892 -11.295  17.361  0.00  0.00    +0.165 C 
ATOM     11  C   UNL     1      -4.485 -12.341  18.298  0.00  0.00    +0.175 C 
ATOM     12  C   UNL     1      -5.965 -12.023  18.230  0.00  0.00    +0.175 C 
ATOM     13  C   UNL     1      -5.948 -10.505  18.172  0.00  0.00    +0.158 C 
ENDROOT
BRANCH  11   3
ATOM      3  O   UNL     1      -3.986 -12.091  19.612  0.00  0.00    -0.387 OA
ATOM     28  H   UNL     1      -3.256 -12.714  19.769  0.00  0.00    +0.210 HD
ENDBRANCH  11   3
BRANCH  12   4
ATOM      4  O   UNL     1      -6.692 -12.504  19.339  0.00  0.00    -0.387 OA
ATOM     29  H   UNL     1      -7.548 -12.042  19.348  0.00  0.00    +0.210 HD
ENDBRANCH  12   4
BRANCH  10  14
ATOM     14  C   UNL     1      -3.809 -11.769  15.916  0.00  0.00    +0.140 C 
BRANCH  14   8
ATOM      8  N   UNL     1      -3.397 -10.646  15.054  0.00  0.00    -0.187 NA
ATOM     27  H   UNL     1      -4.150 -10.015  14.753  0.00  0.00    +0.148 HD
BRANCH   8   1
ATOM      1  S   UNL     1      -2.022 -10.792  14.061  0.00  0.00    +0.058 S 
ATOM      6  O   UNL     1      -1.451 -12.115  14.224  0.00  0.00    -0.153 OA
ATOM      7  O   UNL     1      -1.192  -9.614  14.226  0.00  0.00    -0.153 OA
BRANCH   1  17
ATOM     17  C   UNL     1      -2.732 -10.699  12.445  0.00  0.00    +0.105 A 
ATOM     18  C   UNL     1      -2.433  -9.621  11.612  0.00  0.00    +0.029 A 
ATOM     19  C   UNL     1      -3.593 -11.704  12.004  0.00  0.00    +0.029 A 
ATOM     21  C   UNL     1      -2.995  -9.547  10.339  0.00  0.00    +0.005 A 
ATOM     22  C   UNL     1      -4.156 -11.629  10.729  0.00  0.00    +0.005 A 
ATOM     23  C   UNL     1      -3.857 -10.551   9.896  0.00  0.00    -0.050 A 
ATOM     24  C   UNL     1      -4.457 -10.471   8.533  0.00  0.00    +0.044 C 
ENDBRANCH   1  17
ENDBRANCH   8   1
ENDBRANCH  14   8
ENDBRANCH  10  14
BRANCH  13  15
ATOM     15  C   UNL     1      -7.186  -9.913  17.523  0.00  0.00    +0.130 C 
BRANCH  15  16
ATOM      5  O   UNL     1      -8.460 -11.417  16.118  0.00  0.00    -0.276 OA
ATOM      9  N   UNL     1      -6.717 -10.195  15.184  0.00  0.00    -0.304 N 
ATOM     16  C   UNL     1      -7.546 -10.602  16.219  0.00  0.00    +0.216 C 
ATOM     30  H   UNL     1      -5.998  -9.502  15.368  0.00  0.00    +0.150 HD
BRANCH   9  20
ATOM     20  C   UNL     1      -6.838 -10.695  13.834  0.00  0.00    +0.193 C 
BRANCH  20  25
ATOM     25  C   UNL     1      -6.533  -9.651  12.856  0.00  0.00    -0.087 C 
ATOM     26  C   UNL     1      -6.281  -8.797  12.050  0.00  0.00    +0.005 C 
ENDBRANCH  20  25
ENDBRANCH   9  20
ENDBRANCH  15  16
ENDBRANCH  13  15
TORSDOF 10
ENDMDL
