MODEL 1
REMARK VINA RESULT:      -6.7      0.000      0.000
REMARK  Name = 7164957
REMARK  7 active torsions:
REMARK  status: ('A' for Active; 'I' for Inactive)
REMARK    1  A    between atoms: N_7  and  C_18
REMARK    2  A    between atoms: C_11  and  C_14
REMARK    3  A    between atoms: C_14  and  C_18
REMARK    4  A    between atoms: C_18  and  C_24
REMARK    5  A    between atoms: C_19  and  C_21
REMARK    6  A    between atoms: C_25  and  C_27
REMARK    7  A    between atoms: C_26  and  C_28
REMARK                            x       y       z     vdW  Elec       q    Type
REMARK                         _______ _______ _______ _____ _____    ______ ____
ROOT
ATOM      5  O   UNL     1      16.287   5.648  22.185  0.00  0.00    -0.269 OA
ATOM      6  O   UNL     1      10.865   8.521  19.140  0.00  0.00    -0.270 OA
ATOM      8  N   UNL     1      15.303   7.110  20.675  0.00  0.00    -0.283 N 
ATOM      9  N   UNL     1      12.995   7.562  19.075  0.00  0.00    -0.294 N 
ATOM     19  C   UNL     1      13.973   7.127  21.301  0.00  0.00    +0.179 C 
ATOM     20  C   UNL     1      12.834   6.827  20.327  0.00  0.00    +0.140 C 
ATOM     22  C   UNL     1      15.421   7.754  19.352  0.00  0.00    +0.128 C 
ATOM     23  C   UNL     1      14.286   7.347  18.421  0.00  0.00    +0.127 C 
ATOM     25  C   UNL     1      16.396   6.603  21.415  0.00  0.00    +0.254 C 
ATOM     26  C   UNL     1      11.948   8.344  18.586  0.00  0.00    +0.247 C 
ENDROOT
BRANCH  26  28
ATOM      2  F   UNL     1      14.591  11.179  15.679  0.00  0.00    -0.205 F 
ATOM     28  C   UNL     1      12.145   9.039  17.307  0.00  0.00    +0.040 A 
ATOM     30  C   UNL     1      13.297   9.793  17.098  0.00  0.00    +0.051 A 
ATOM     31  C   UNL     1      11.178   8.940  16.309  0.00  0.00    +0.013 A 
ATOM     34  C   UNL     1      13.484  10.453  15.883  0.00  0.00    +0.124 A 
ATOM     35  C   UNL     1      11.364   9.602  15.094  0.00  0.00    +0.004 A 
ATOM     36  C   UNL     1      12.518  10.358  14.882  0.00  0.00    +0.038 A 
ENDBRANCH  26  28
BRANCH  25  27
ATOM      1  S   UNL     1      18.978   6.368  20.555  0.00  0.00    -0.092 S 
ATOM     27  C   UNL     1      17.688   7.258  21.239  0.00  0.00    +0.074 A 
ATOM     29  C   UNL     1      18.048   8.546  21.553  0.00  0.00    +0.021 A 
ATOM     32  C   UNL     1      19.409   8.811  21.228  0.00  0.00    +0.008 A 
ATOM     33  C   UNL     1      20.032   7.713  20.678  0.00  0.00    +0.046 A 
ENDBRANCH  25  27
BRANCH  19  21
ATOM      3  O   UNL     1      14.701   8.972  22.633  0.00  0.00    -0.274 OA
ATOM      7  N   UNL     1      12.611   9.075  21.612  0.00  0.00    -0.302 N 
ATOM     21  C   UNL     1      13.825   8.486  21.922  0.00  0.00    +0.236 C 
ATOM     37  H   UNL     1      11.932   8.552  21.065  0.00  0.00    +0.150 HD
BRANCH   7  18
ATOM     18  C   UNL     1      12.213  10.374  22.105  0.00  0.00    +0.159 C 
BRANCH  18  24
ATOM      4  O   UNL     1      10.586  10.913  23.827  0.00  0.00    -0.274 OA
ATOM     10  N   UNL     1      10.093   9.231  22.342  0.00  0.00    -0.328 N 
ATOM     24  C   UNL     1      10.894  10.231  22.852  0.00  0.00    +0.231 C 
ATOM     38  H   UNL     1      10.368   8.663  21.548  0.00  0.00    +0.145 HD
ATOM     39  H   UNL     1       9.189   9.028  22.754  0.00  0.00    +0.145 HD
ENDBRANCH  18  24
BRANCH  18  14
ATOM     14  C   UNL     1      12.155  11.423  20.991  0.00  0.00    +0.035 C 
BRANCH  14  11
ATOM     11  C   UNL     1      13.491  11.672  20.294  0.00  0.00    -0.009 C 
ATOM     12  C   UNL     1      14.543  12.162  21.298  0.00  0.00    +0.003 C 
ATOM     13  C   UNL     1      13.325  12.676  19.144  0.00  0.00    +0.003 C 
ATOM     15  C   UNL     1      15.874  12.470  20.616  0.00  0.00    +0.000 C 
ATOM     16  C   UNL     1      14.657  12.983  18.466  0.00  0.00    +0.000 C 
ATOM     17  C   UNL     1      15.702  13.461  19.469  0.00  0.00    +0.000 C 
ENDBRANCH  14  11
ENDBRANCH  18  14
ENDBRANCH   7  18
ENDBRANCH  19  21
TORSDOF 7
ENDMDL
MODEL 2
REMARK VINA RESULT:      -6.6     13.330     16.399
REMARK  Name = 7164957
REMARK  7 active torsions:
REMARK  status: ('A' for Active; 'I' for Inactive)
REMARK    1  A    between atoms: N_7  and  C_18
REMARK    2  A    between atoms: C_11  and  C_14
REMARK    3  A    between atoms: C_14  and  C_18
REMARK    4  A    between atoms: C_18  and  C_24
REMARK    5  A    between atoms: C_19  and  C_21
REMARK    6  A    between atoms: C_25  and  C_27
REMARK    7  A    between atoms: C_26  and  C_28
REMARK                            x       y       z     vdW  Elec       q    Type
REMARK                         _______ _______ _______ _____ _____    ______ ____
ROOT
ATOM      5  O   UNL     1      13.989  11.595   5.175  0.00  0.00    -0.269 OA
ATOM      6  O   UNL     1       8.191   8.244   6.613  0.00  0.00    -0.270 OA
ATOM      8  N   UNL     1      12.776   9.666   5.614  0.00  0.00    -0.283 N 
ATOM      9  N   UNL     1      10.471   8.644   6.931  0.00  0.00    -0.294 N 
ATOM     19  C   UNL     1      11.452  10.229   5.311  0.00  0.00    +0.179 C 
ATOM     20  C   UNL     1      10.425  10.012   6.422  0.00  0.00    +0.140 C 
ATOM     22  C   UNL     1      12.800   8.330   6.240  0.00  0.00    +0.128 C 
ATOM     23  C   UNL     1      11.797   8.222   7.382  0.00  0.00    +0.127 C 
ATOM     25  C   UNL     1      13.927  10.365   5.182  0.00  0.00    +0.254 C 
ATOM     26  C   UNL     1       9.303   7.883   6.994  0.00  0.00    +0.247 C 
ENDROOT
BRANCH  26  28
ATOM      2  F   UNL     1       8.924   4.792  10.705  0.00  0.00    -0.205 F 
ATOM     28  C   UNL     1       9.393   6.524   7.543  0.00  0.00    +0.040 A 
ATOM     30  C   UNL     1       9.110   6.301   8.889  0.00  0.00    +0.051 A 
ATOM     31  C   UNL     1       9.759   5.465   6.717  0.00  0.00    +0.013 A 
ATOM     34  C   UNL     1       9.195   5.010   9.412  0.00  0.00    +0.124 A 
ATOM     35  C   UNL     1       9.846   4.174   7.240  0.00  0.00    +0.004 A 
ATOM     36  C   UNL     1       9.563   3.947   8.587  0.00  0.00    +0.038 A 
ENDBRANCH  26  28
BRANCH  25  27
ATOM      1  S   UNL     1      16.411   9.394   5.771  0.00  0.00    -0.092 S 
ATOM     27  C   UNL     1      15.066   9.571   4.732  0.00  0.00    +0.074 A 
ATOM     29  C   UNL     1      15.233   8.908   3.541  0.00  0.00    +0.021 A 
ATOM     32  C   UNL     1      16.490   8.241   3.477  0.00  0.00    +0.008 A 
ATOM     33  C   UNL     1      17.230   8.423   4.624  0.00  0.00    +0.046 A 
ENDBRANCH  25  27
BRANCH  19  21
ATOM      3  O   UNL     1      11.737   9.580   3.029  0.00  0.00    -0.274 OA
ATOM      7  N   UNL     1       9.740   9.061   4.107  0.00  0.00    -0.302 N 
ATOM     21  C   UNL     1      11.016   9.590   4.023  0.00  0.00    +0.236 C 
ATOM     37  H   UNL     1       9.207   9.184   4.963  0.00  0.00    +0.150 HD
BRANCH   7  18
ATOM     18  C   UNL     1       9.079   8.413   2.997  0.00  0.00    +0.159 C 
BRANCH  18  24
ATOM      4  O   UNL     1       7.195   9.324   1.763  0.00  0.00    -0.274 OA
ATOM     10  N   UNL     1       7.039   9.177   4.051  0.00  0.00    -0.328 N 
ATOM     24  C   UNL     1       7.684   9.005   2.844  0.00  0.00    +0.231 C 
ATOM     38  H   UNL     1       7.463   8.927   4.937  0.00  0.00    +0.145 HD
ATOM     39  H   UNL     1       6.104   9.571   4.089  0.00  0.00    +0.145 HD
ENDBRANCH  18  24
BRANCH  18  14
ATOM     14  C   UNL     1       9.065   6.887   3.142  0.00  0.00    +0.035 C 
BRANCH  14  11
ATOM     11  C   UNL     1      10.272   6.188   2.519  0.00  0.00    -0.009 C 
ATOM     12  C   UNL     1      10.144   6.148   0.990  0.00  0.00    +0.003 C 
ATOM     13  C   UNL     1      10.432   4.772   3.090  0.00  0.00    +0.003 C 
ATOM     15  C   UNL     1      11.313   5.405   0.346  0.00  0.00    +0.000 C 
ATOM     16  C   UNL     1      11.600   4.032   2.443  0.00  0.00    +0.000 C 
ATOM     17  C   UNL     1      11.474   4.003   0.923  0.00  0.00    +0.000 C 
ENDBRANCH  14  11
ENDBRANCH  18  14
ENDBRANCH   7  18
ENDBRANCH  19  21
TORSDOF 7
ENDMDL
MODEL 3
REMARK VINA RESULT:      -6.1     26.976     29.798
REMARK  Name = 7164957
REMARK  7 active torsions:
REMARK  status: ('A' for Active; 'I' for Inactive)
REMARK    1  A    between atoms: N_7  and  C_18
REMARK    2  A    between atoms: C_11  and  C_14
REMARK    3  A    between atoms: C_14  and  C_18
REMARK    4  A    between atoms: C_18  and  C_24
REMARK    5  A    between atoms: C_19  and  C_21
REMARK    6  A    between atoms: C_25  and  C_27
REMARK    7  A    between atoms: C_26  and  C_28
REMARK                            x       y       z     vdW  Elec       q    Type
REMARK                         _______ _______ _______ _____ _____    ______ ____
ROOT
ATOM      5  O   UNL     1      -3.126 -16.616  11.789  0.00  0.00    -0.269 OA
ATOM      6  O   UNL     1      -2.272 -10.697  15.128  0.00  0.00    -0.270 OA
ATOM      8  N   UNL     1      -3.923 -14.734  12.889  0.00  0.00    -0.283 N 
ATOM      9  N   UNL     1      -3.298 -12.778  14.858  0.00  0.00    -0.294 N 
ATOM     19  C   UNL     1      -2.697 -13.933  12.759  0.00  0.00    +0.179 C 
ATOM     20  C   UNL     1      -2.201 -13.353  14.084  0.00  0.00    +0.140 C 
ATOM     22  C   UNL     1      -4.975 -14.195  13.772  0.00  0.00    +0.128 C 
ATOM     23  C   UNL     1      -4.406 -13.704  15.097  0.00  0.00    +0.127 C 
ATOM     25  C   UNL     1      -4.073 -15.883  12.079  0.00  0.00    +0.254 C 
ATOM     26  C   UNL     1      -3.206 -11.469  15.333  0.00  0.00    +0.247 C 
ENDROOT
BRANCH  26  28
ATOM      2  F   UNL     1      -5.443 -10.892  19.592  0.00  0.00    -0.205 F 
ATOM     28  C   UNL     1      -4.319 -10.945  16.134  0.00  0.00    +0.040 A 
ATOM     30  C   UNL     1      -4.351 -11.173  17.508  0.00  0.00    +0.051 A 
ATOM     31  C   UNL     1      -5.338 -10.224  15.517  0.00  0.00    +0.013 A 
ATOM     34  C   UNL     1      -5.409 -10.676  18.270  0.00  0.00    +0.124 A 
ATOM     35  C   UNL     1      -6.397  -9.727  16.279  0.00  0.00    +0.004 A 
ATOM     36  C   UNL     1      -6.432  -9.953  17.655  0.00  0.00    +0.038 A 
ENDBRANCH  26  28
BRANCH  25  27
ATOM      1  S   UNL     1      -6.325 -17.405  12.355  0.00  0.00    -0.092 S 
ATOM     27  C   UNL     1      -5.411 -16.184  11.581  0.00  0.00    +0.074 A 
ATOM     29  C   UNL     1      -6.087 -15.608  10.533  0.00  0.00    +0.021 A 
ATOM     32  C   UNL     1      -7.381 -16.179  10.358  0.00  0.00    +0.008 A 
ATOM     33  C   UNL     1      -7.638 -17.168  11.282  0.00  0.00    +0.046 A 
ENDBRANCH  25  27
BRANCH  19  21
ATOM      3  O   UNL     1      -3.685 -13.070  10.762  0.00  0.00    -0.274 OA
ATOM      7  N   UNL     1      -2.443 -11.638  12.114  0.00  0.00    -0.302 N 
ATOM     21  C   UNL     1      -3.012 -12.852  11.766  0.00  0.00    +0.236 C 
ATOM     37  H   UNL     1      -1.848 -11.587  12.936  0.00  0.00    +0.150 HD
BRANCH   7  18
ATOM     18  C   UNL     1      -2.576 -10.444  11.312  0.00  0.00    +0.159 C 
BRANCH  18  24
ATOM      4  O   UNL     1      -0.861  -8.822  10.735  0.00  0.00    -0.274 OA
ATOM     10  N   UNL     1      -0.939  -9.615  12.890  0.00  0.00    -0.328 N 
ATOM     24  C   UNL     1      -1.387  -9.533  11.588  0.00  0.00    +0.231 C 
ATOM     38  H   UNL     1      -1.370 -10.222  13.579  0.00  0.00    +0.145 HD
ATOM     39  H   UNL     1      -0.146  -9.064  13.202  0.00  0.00    +0.145 HD
ENDBRANCH  18  24
BRANCH  18  14
ATOM     14  C   UNL     1      -3.923  -9.747  11.531  0.00  0.00    +0.035 C 
BRANCH  14  11
ATOM     11  C   UNL     1      -4.559  -9.198  10.255  0.00  0.00    -0.009 C 
ATOM     12  C   UNL     1      -6.036  -8.854  10.491  0.00  0.00    +0.003 C 
ATOM     13  C   UNL     1      -4.410 -10.200   9.101  0.00  0.00    +0.003 C 
ATOM     15  C   UNL     1      -6.709  -8.354   9.215  0.00  0.00    +0.000 C 
ATOM     16  C   UNL     1      -5.086  -9.699   7.829  0.00  0.00    +0.000 C 
ATOM     17  C   UNL     1      -6.551  -9.348   8.070  0.00  0.00    +0.000 C 
ENDBRANCH  14  11
ENDBRANCH  18  14
ENDBRANCH   7  18
ENDBRANCH  19  21
TORSDOF 7
ENDMDL
MODEL 4
REMARK VINA RESULT:      -6.0     27.205     29.956
REMARK  Name = 7164957
REMARK  7 active torsions:
REMARK  status: ('A' for Active; 'I' for Inactive)
REMARK    1  A    between atoms: N_7  and  C_18
REMARK    2  A    between atoms: C_11  and  C_14
REMARK    3  A    between atoms: C_14  and  C_18
REMARK    4  A    between atoms: C_18  and  C_24
REMARK    5  A    between atoms: C_19  and  C_21
REMARK    6  A    between atoms: C_25  and  C_27
REMARK    7  A    between atoms: C_26  and  C_28
REMARK                            x       y       z     vdW  Elec       q    Type
REMARK                         _______ _______ _______ _____ _____    ______ ____
ROOT
ATOM      5  O   UNL     1      -7.205 -10.747  19.170  0.00  0.00    -0.269 OA
ATOM      6  O   UNL     1      -2.109 -12.304  14.866  0.00  0.00    -0.270 OA
ATOM      8  N   UNL     1      -6.276 -10.927  17.051  0.00  0.00    -0.283 N 
ATOM      9  N   UNL     1      -3.832 -10.905  15.596  0.00  0.00    -0.294 N 
ATOM     19  C   UNL     1      -5.200 -11.859  17.418  0.00  0.00    +0.179 C 
ATOM     20  C   UNL     1      -3.813 -11.398  16.971  0.00  0.00    +0.140 C 
ATOM     22  C   UNL     1      -6.214 -10.344  15.697  0.00  0.00    +0.128 C 
ATOM     23  C   UNL     1      -4.815  -9.847  15.358  0.00  0.00    +0.127 C 
ATOM     25  C   UNL     1      -7.354 -10.746  17.947  0.00  0.00    +0.254 C 
ATOM     26  C   UNL     1      -2.932 -11.414  14.659  0.00  0.00    +0.247 C 
ENDROOT
BRANCH  26  28
ATOM      2  F   UNL     1      -0.781  -9.131  10.967  0.00  0.00    -0.205 F 
ATOM     28  C   UNL     1      -2.967 -10.864  13.298  0.00  0.00    +0.040 A 
ATOM     30  C   UNL     1      -1.835 -10.248  12.771  0.00  0.00    +0.051 A 
ATOM     31  C   UNL     1      -4.132 -10.963  12.540  0.00  0.00    +0.013 A 
ATOM     34  C   UNL     1      -1.868  -9.725  11.478  0.00  0.00    +0.124 A 
ATOM     35  C   UNL     1      -4.165 -10.439  11.248  0.00  0.00    +0.004 A 
ATOM     36  C   UNL     1      -3.033  -9.821  10.716  0.00  0.00    +0.038 A 
ENDBRANCH  26  28
BRANCH  25  27
ATOM      1  S   UNL     1      -9.254  -8.964  17.124  0.00  0.00    -0.092 S 
ATOM     27  C   UNL     1      -8.682 -10.556  17.373  0.00  0.00    +0.074 A 
ATOM     29  C   UNL     1      -9.592 -11.507  16.980  0.00  0.00    +0.021 A 
ATOM     32  C   UNL     1     -10.784 -10.921  16.464  0.00  0.00    +0.008 A 
ATOM     33  C   UNL     1     -10.733  -9.544  16.484  0.00  0.00    +0.046 A 
ENDBRANCH  25  27
BRANCH  19  21
ATOM      3  O   UNL     1      -6.733 -13.567  16.753  0.00  0.00    -0.274 OA
ATOM      7  N   UNL     1      -4.460 -13.874  16.351  0.00  0.00    -0.302 N 
ATOM     21  C   UNL     1      -5.569 -13.179  16.806  0.00  0.00    +0.236 C 
ATOM     37  H   UNL     1      -3.534 -13.485  16.505  0.00  0.00    +0.150 HD
BRANCH   7  18
ATOM     18  C   UNL     1      -4.542 -15.182  15.742  0.00  0.00    +0.159 C 
BRANCH  18  24
ATOM      4  O   UNL     1      -5.497 -17.116  16.860  0.00  0.00    -0.274 OA
ATOM     10  N   UNL     1      -3.709 -16.056  17.839  0.00  0.00    -0.328 N 
ATOM     24  C   UNL     1      -4.647 -16.228  16.843  0.00  0.00    +0.231 C 
ATOM     38  H   UNL     1      -3.026 -15.306  17.822  0.00  0.00    +0.145 HD
ATOM     39  H   UNL     1      -3.676 -16.683  18.636  0.00  0.00    +0.145 HD
ENDBRANCH  18  24
BRANCH  18  14
ATOM     14  C   UNL     1      -3.381 -15.445  14.778  0.00  0.00    +0.035 C 
BRANCH  14  11
ATOM     11  C   UNL     1      -3.779 -15.454  13.304  0.00  0.00    -0.009 C 
ATOM     12  C   UNL     1      -2.917 -14.469  12.504  0.00  0.00    +0.003 C 
ATOM     13  C   UNL     1      -5.271 -15.130  13.144  0.00  0.00    +0.003 C 
ATOM     15  C   UNL     1      -3.333 -14.420  11.035  0.00  0.00    +0.000 C 
ATOM     16  C   UNL     1      -5.682 -15.079  11.676  0.00  0.00    +0.000 C 
ATOM     17  C   UNL     1      -4.817 -14.105  10.881  0.00  0.00    +0.000 C 
ENDBRANCH  14  11
ENDBRANCH  18  14
ENDBRANCH   7  18
ENDBRANCH  19  21
TORSDOF 7
ENDMDL
MODEL 5
REMARK VINA RESULT:      -5.9     27.760     30.575
REMARK  Name = 7164957
REMARK  7 active torsions:
REMARK  status: ('A' for Active; 'I' for Inactive)
REMARK    1  A    between atoms: N_7  and  C_18
REMARK    2  A    between atoms: C_11  and  C_14
REMARK    3  A    between atoms: C_14  and  C_18
REMARK    4  A    between atoms: C_18  and  C_24
REMARK    5  A    between atoms: C_19  and  C_21
REMARK    6  A    between atoms: C_25  and  C_27
REMARK    7  A    between atoms: C_26  and  C_28
REMARK                            x       y       z     vdW  Elec       q    Type
REMARK                         _______ _______ _______ _____ _____    ______ ____
ROOT
ATOM      5  O   UNL     1     -10.344  -9.476  18.644  0.00  0.00    -0.269 OA
ATOM      6  O   UNL     1      -4.358 -12.700  17.814  0.00  0.00    -0.270 OA
ATOM      8  N   UNL     1      -8.457 -10.040  17.416  0.00  0.00    -0.283 N 
ATOM      9  N   UNL     1      -5.728 -10.818  17.611  0.00  0.00    -0.294 N 
ATOM     19  C   UNL     1      -8.090 -11.224  18.207  0.00  0.00    +0.179 C 
ATOM     20  C   UNL     1      -6.638 -11.217  18.682  0.00  0.00    +0.140 C 
ATOM     22  C   UNL     1      -7.472  -9.579  16.418  0.00  0.00    +0.128 C 
ATOM     23  C   UNL     1      -6.062  -9.535  16.994  0.00  0.00    +0.127 C 
ATOM     25  C   UNL     1      -9.756  -9.501  17.561  0.00  0.00    +0.254 C 
ATOM     26  C   UNL     1      -4.633 -11.622  17.291  0.00  0.00    +0.247 C 
ENDROOT
BRANCH  26  28
ATOM      2  F   UNL     1      -0.333  -9.922  15.845  0.00  0.00    -0.205 F 
ATOM     28  C   UNL     1      -3.728 -11.164  16.229  0.00  0.00    +0.040 A 
ATOM     30  C   UNL     1      -2.436 -10.753  16.550  0.00  0.00    +0.051 A 
ATOM     31  C   UNL     1      -4.164 -11.144  14.907  0.00  0.00    +0.013 A 
ATOM     34  C   UNL     1      -1.576 -10.318  15.541  0.00  0.00    +0.124 A 
ATOM     35  C   UNL     1      -3.305 -10.708  13.898  0.00  0.00    +0.004 A 
ATOM     36  C   UNL     1      -2.010 -10.296  14.215  0.00  0.00    +0.038 A 
ENDBRANCH  26  28
BRANCH  25  27
ATOM      1  S   UNL     1     -10.563  -7.268  16.209  0.00  0.00    -0.092 S 
ATOM     27  C   UNL     1     -10.398  -8.962  16.367  0.00  0.00    +0.074 A 
ATOM     29  C   UNL     1     -10.919  -9.642  15.292  0.00  0.00    +0.021 A 
ATOM     32  C   UNL     1     -11.464  -8.756  14.318  0.00  0.00    +0.008 A 
ATOM     33  C   UNL     1     -11.336  -7.436  14.691  0.00  0.00    +0.046 A 
ENDBRANCH  25  27
BRANCH  19  21
ATOM      3  O   UNL     1      -9.231 -12.371  16.448  0.00  0.00    -0.274 OA
ATOM      7  N   UNL     1      -7.608 -13.510  17.670  0.00  0.00    -0.302 N 
ATOM     21  C   UNL     1      -8.381 -12.411  17.334  0.00  0.00    +0.236 C 
ATOM     37  H   UNL     1      -6.980 -13.449  18.466  0.00  0.00    +0.150 HD
BRANCH   7  18
ATOM     18  C   UNL     1      -7.712 -14.785  16.997  0.00  0.00    +0.159 C 
BRANCH  18  24
ATOM      4  O   UNL     1      -9.716 -15.429  18.211  0.00  0.00    -0.274 OA
ATOM     10  N   UNL     1      -7.944 -16.890  18.169  0.00  0.00    -0.328 N 
ATOM     24  C   UNL     1      -8.580 -15.712  17.838  0.00  0.00    +0.231 C 
ATOM     38  H   UNL     1      -6.998 -17.102  17.871  0.00  0.00    +0.145 HD
ATOM     39  H   UNL     1      -8.410 -17.592  18.734  0.00  0.00    +0.145 HD
ENDBRANCH  18  24
BRANCH  18  14
ATOM     14  C   UNL     1      -6.339 -15.384  16.676  0.00  0.00    +0.035 C 
BRANCH  14  11
ATOM     11  C   UNL     1      -5.581 -14.654  15.569  0.00  0.00    -0.009 C 
ATOM     12  C   UNL     1      -6.362 -14.711  14.249  0.00  0.00    +0.003 C 
ATOM     13  C   UNL     1      -4.174 -15.243  15.396  0.00  0.00    +0.003 C 
ATOM     15  C   UNL     1      -5.599 -14.035  13.112  0.00  0.00    +0.000 C 
ATOM     16  C   UNL     1      -3.415 -14.567  14.259  0.00  0.00    +0.000 C 
ATOM     17  C   UNL     1      -4.199 -14.617  12.951  0.00  0.00    +0.000 C 
ENDBRANCH  14  11
ENDBRANCH  18  14
ENDBRANCH   7  18
ENDBRANCH  19  21
TORSDOF 7
ENDMDL
MODEL 6
REMARK VINA RESULT:      -5.9     27.455     30.050
REMARK  Name = 7164957
REMARK  7 active torsions:
REMARK  status: ('A' for Active; 'I' for Inactive)
REMARK    1  A    between atoms: N_7  and  C_18
REMARK    2  A    between atoms: C_11  and  C_14
REMARK    3  A    between atoms: C_14  and  C_18
REMARK    4  A    between atoms: C_18  and  C_24
REMARK    5  A    between atoms: C_19  and  C_21
REMARK    6  A    between atoms: C_25  and  C_27
REMARK    7  A    between atoms: C_26  and  C_28
REMARK                            x       y       z     vdW  Elec       q    Type
REMARK                         _______ _______ _______ _____ _____    ______ ____
ROOT
ATOM      5  O   UNL     1      -5.023 -10.870  18.346  0.00  0.00    -0.269 OA
ATOM      6  O   UNL     1      -1.833 -12.017  12.395  0.00  0.00    -0.270 OA
ATOM      8  N   UNL     1      -4.978 -11.069  16.034  0.00  0.00    -0.283 N 
ATOM      9  N   UNL     1      -3.327 -10.818  13.732  0.00  0.00    -0.294 N 
ATOM     19  C   UNL     1      -3.716 -11.819  15.956  0.00  0.00    +0.179 C 
ATOM     20  C   UNL     1      -2.699 -11.207  14.992  0.00  0.00    +0.140 C 
ATOM     22  C   UNL     1      -5.537 -10.578  14.760  0.00  0.00    +0.128 C 
ATOM     23  C   UNL     1      -4.473  -9.922  13.890  0.00  0.00    +0.127 C 
ATOM     25  C   UNL     1      -5.636 -10.975  17.282  0.00  0.00    +0.254 C 
ATOM     26  C   UNL     1      -2.796 -11.264  12.521  0.00  0.00    +0.247 C 
ENDROOT
BRANCH  26  28
ATOM      2  F   UNL     1      -5.929 -11.981   8.896  0.00  0.00    -0.205 F 
ATOM     28  C   UNL     1      -3.441 -10.820  11.278  0.00  0.00    +0.040 A 
ATOM     30  C   UNL     1      -4.396 -11.628  10.667  0.00  0.00    +0.051 A 
ATOM     31  C   UNL     1      -3.095  -9.593  10.718  0.00  0.00    +0.013 A 
ATOM     34  C   UNL     1      -5.009 -11.206   9.487  0.00  0.00    +0.124 A 
ATOM     35  C   UNL     1      -3.707  -9.171   9.537  0.00  0.00    +0.004 A 
ATOM     36  C   UNL     1      -4.665  -9.978   8.922  0.00  0.00    +0.038 A 
ENDBRANCH  26  28
BRANCH  25  27
ATOM      1  S   UNL     1      -7.953  -9.536  17.437  0.00  0.00    -0.092 S 
ATOM     27  C   UNL     1      -7.095 -11.006  17.277  0.00  0.00    +0.074 A 
ATOM     29  C   UNL     1      -7.930 -12.090  17.157  0.00  0.00    +0.021 A 
ATOM     32  C   UNL     1      -9.302 -11.710  17.197  0.00  0.00    +0.008 A 
ATOM     33  C   UNL     1      -9.457 -10.350  17.346  0.00  0.00    +0.046 A 
ENDBRANCH  25  27
BRANCH  19  21
ATOM      3  O   UNL     1      -5.166 -13.716  15.867  0.00  0.00    -0.274 OA
ATOM      7  N   UNL     1      -3.085 -13.839  14.830  0.00  0.00    -0.302 N 
ATOM     21  C   UNL     1      -4.089 -13.217  15.552  0.00  0.00    +0.236 C 
ATOM     37  H   UNL     1      -2.205 -13.352  14.682  0.00  0.00    +0.150 HD
BRANCH   7  18
ATOM     18  C   UNL     1      -3.186 -15.196  14.344  0.00  0.00    +0.159 C 
BRANCH  18  24
ATOM      4  O   UNL     1      -1.398 -16.672  15.072  0.00  0.00    -0.274 OA
ATOM     10  N   UNL     1      -3.160 -16.300  16.498  0.00  0.00    -0.328 N 
ATOM     24  C   UNL     1      -2.467 -16.120  15.320  0.00  0.00    +0.231 C 
ATOM     38  H   UNL     1      -4.052 -15.854  16.681  0.00  0.00    +0.145 HD
ATOM     39  H   UNL     1      -2.794 -16.899  17.230  0.00  0.00    +0.145 HD
ENDBRANCH  18  24
BRANCH  18  14
ATOM     14  C   UNL     1      -2.675 -15.337  12.907  0.00  0.00    +0.035 C 
BRANCH  14  11
ATOM     11  C   UNL     1      -3.674 -14.893  11.840  0.00  0.00    -0.009 C 
ATOM     12  C   UNL     1      -5.107 -15.247  12.260  0.00  0.00    +0.003 C 
ATOM     13  C   UNL     1      -3.332 -15.521  10.482  0.00  0.00    +0.003 C 
ATOM     15  C   UNL     1      -6.121 -14.862  11.185  0.00  0.00    +0.000 C 
ATOM     16  C   UNL     1      -4.348 -15.136   9.411  0.00  0.00    +0.000 C 
ATOM     17  C   UNL     1      -5.772 -15.481   9.836  0.00  0.00    +0.000 C 
ENDBRANCH  14  11
ENDBRANCH  18  14
ENDBRANCH   7  18
ENDBRANCH  19  21
TORSDOF 7
ENDMDL
MODEL 7
REMARK VINA RESULT:      -5.9     14.343     18.034
REMARK  Name = 7164957
REMARK  7 active torsions:
REMARK  status: ('A' for Active; 'I' for Inactive)
REMARK    1  A    between atoms: N_7  and  C_18
REMARK    2  A    between atoms: C_11  and  C_14
REMARK    3  A    between atoms: C_14  and  C_18
REMARK    4  A    between atoms: C_18  and  C_24
REMARK    5  A    between atoms: C_19  and  C_21
REMARK    6  A    between atoms: C_25  and  C_27
REMARK    7  A    between atoms: C_26  and  C_28
REMARK                            x       y       z     vdW  Elec       q    Type
REMARK                         _______ _______ _______ _____ _____    ______ ____
ROOT
ATOM      5  O   UNL     1      15.448   9.951   2.249  0.00  0.00    -0.269 OA
ATOM      6  O   UNL     1       9.963   6.038   3.484  0.00  0.00    -0.270 OA
ATOM      8  N   UNL     1      14.101   8.663   3.633  0.00  0.00    -0.283 N 
ATOM      9  N   UNL     1      11.441   7.754   4.062  0.00  0.00    -0.294 N 
ATOM     19  C   UNL     1      13.391   7.951   2.560  0.00  0.00    +0.179 C 
ATOM     20  C   UNL     1      11.869   8.009   2.689  0.00  0.00    +0.140 C 
ATOM     22  C   UNL     1      13.580   8.488   5.002  0.00  0.00    +0.128 C 
ATOM     23  C   UNL     1      12.064   8.631   5.053  0.00  0.00    +0.127 C 
ATOM     25  C   UNL     1      15.292   9.356   3.316  0.00  0.00    +0.254 C 
ATOM     26  C   UNL     1      10.483   6.772   4.322  0.00  0.00    +0.247 C 
ENDROOT
BRANCH  26  28
ATOM      2  F   UNL     1       8.606   8.472   8.453  0.00  0.00    -0.205 F 
ATOM     28  C   UNL     1      10.059   6.573   5.714  0.00  0.00    +0.040 A 
ATOM     30  C   UNL     1       9.524   7.639   6.434  0.00  0.00    +0.051 A 
ATOM     31  C   UNL     1      10.193   5.320   6.307  0.00  0.00    +0.013 A 
ATOM     34  C   UNL     1       9.121   7.450   7.757  0.00  0.00    +0.124 A 
ATOM     35  C   UNL     1       9.791   5.131   7.630  0.00  0.00    +0.004 A 
ATOM     36  C   UNL     1       9.255   6.196   8.354  0.00  0.00    +0.038 A 
ENDBRANCH  26  28
BRANCH  25  27
ATOM      1  S   UNL     1      16.572  10.718   5.309  0.00  0.00    -0.092 S 
ATOM     27  C   UNL     1      16.360   9.346   4.311  0.00  0.00    +0.074 A 
ATOM     29  C   UNL     1      17.269   8.353   4.585  0.00  0.00    +0.021 A 
ATOM     32  C   UNL     1      18.159   8.723   5.634  0.00  0.00    +0.008 A 
ATOM     33  C   UNL     1      17.891   9.985   6.118  0.00  0.00    +0.046 A 
ENDBRANCH  25  27
BRANCH  19  21
ATOM      3  O   UNL     1      14.972   6.247   3.114  0.00  0.00    -0.274 OA
ATOM      7  N   UNL     1      13.028   5.654   1.978  0.00  0.00    -0.302 N 
ATOM     21  C   UNL     1      13.896   6.537   2.598  0.00  0.00    +0.236 C 
ATOM     37  H   UNL     1      12.192   6.016   1.526  0.00  0.00    +0.150 HD
BRANCH   7  18
ATOM     18  C   UNL     1      13.292   4.239   1.859  0.00  0.00    +0.159 C 
BRANCH  18  24
ATOM      4  O   UNL     1      15.027   4.427   0.168  0.00  0.00    -0.274 OA
ATOM     10  N   UNL     1      15.535   3.376   2.147  0.00  0.00    -0.328 N 
ATOM     24  C   UNL     1      14.692   4.049   1.288  0.00  0.00    +0.231 C 
ATOM     38  H   UNL     1      15.239   3.052   3.061  0.00  0.00    +0.145 HD
ATOM     39  H   UNL     1      16.495   3.178   1.883  0.00  0.00    +0.145 HD
ENDBRANCH  18  24
BRANCH  18  14
ATOM     14  C   UNL     1      12.215   3.515   1.044  0.00  0.00    +0.035 C 
BRANCH  14  11
ATOM     11  C   UNL     1      11.693   4.311  -0.151  0.00  0.00    -0.009 C 
ATOM     12  C   UNL     1      10.233   4.728   0.073  0.00  0.00    +0.003 C 
ATOM     13  C   UNL     1      11.837   3.500  -1.446  0.00  0.00    +0.003 C 
ATOM     15  C   UNL     1       9.671   5.479  -1.133  0.00  0.00    +0.000 C 
ATOM     16  C   UNL     1      11.272   4.252  -2.648  0.00  0.00    +0.000 C 
ATOM     17  C   UNL     1       9.824   4.674  -2.418  0.00  0.00    +0.000 C 
ENDBRANCH  14  11
ENDBRANCH  18  14
ENDBRANCH   7  18
ENDBRANCH  19  21
TORSDOF 7
ENDMDL
MODEL 8
REMARK VINA RESULT:      -5.9      3.058      6.268
REMARK  Name = 7164957
REMARK  7 active torsions:
REMARK  status: ('A' for Active; 'I' for Inactive)
REMARK    1  A    between atoms: N_7  and  C_18
REMARK    2  A    between atoms: C_11  and  C_14
REMARK    3  A    between atoms: C_14  and  C_18
REMARK    4  A    between atoms: C_18  and  C_24
REMARK    5  A    between atoms: C_19  and  C_21
REMARK    6  A    between atoms: C_25  and  C_27
REMARK    7  A    between atoms: C_26  and  C_28
REMARK                            x       y       z     vdW  Elec       q    Type
REMARK                         _______ _______ _______ _____ _____    ______ ____
ROOT
ATOM      5  O   UNL     1      13.707   6.951  18.722  0.00  0.00    -0.269 OA
ATOM      6  O   UNL     1      14.437  11.288  23.972  0.00  0.00    -0.270 OA
ATOM      8  N   UNL     1      13.169   8.879  19.895  0.00  0.00    -0.283 N 
ATOM      9  N   UNL     1      13.119  10.066  22.479  0.00  0.00    -0.294 N 
ATOM     19  C   UNL     1      14.401   8.938  20.695  0.00  0.00    +0.179 C 
ATOM     20  C   UNL     1      14.150   9.071  22.197  0.00  0.00    +0.140 C 
ATOM     22  C   UNL     1      12.089   9.812  20.272  0.00  0.00    +0.128 C 
ATOM     23  C   UNL     1      11.857   9.832  21.777  0.00  0.00    +0.127 C 
ATOM     25  C   UNL     1      13.137   8.042  18.756  0.00  0.00    +0.254 C 
ATOM     26  C   UNL     1      13.374  11.096  23.386  0.00  0.00    +0.247 C 
ENDROOT
BRANCH  26  28
ATOM      2  F   UNL     1      10.721  14.951  22.130  0.00  0.00    -0.205 F 
ATOM     28  C   UNL     1      12.297  12.055  23.663  0.00  0.00    +0.040 A 
ATOM     30  C   UNL     1      12.017  13.066  22.746  0.00  0.00    +0.051 A 
ATOM     31  C   UNL     1      11.560  11.949  24.840  0.00  0.00    +0.013 A 
ATOM     34  C   UNL     1      10.994  13.977  23.009  0.00  0.00    +0.124 A 
ATOM     35  C   UNL     1      10.537  12.861  25.103  0.00  0.00    +0.004 A 
ATOM     36  C   UNL     1      10.254  13.874  24.187  0.00  0.00    +0.038 A 
ENDBRANCH  26  28
BRANCH  25  27
ATOM      1  S   UNL     1      13.229   9.374  16.373  0.00  0.00    -0.092 S 
ATOM     27  C   UNL     1      12.394   8.517  17.593  0.00  0.00    +0.074 A 
ATOM     29  C   UNL     1      11.057   8.373  17.312  0.00  0.00    +0.021 A 
ATOM     32  C   UNL     1      10.708   8.978  16.070  0.00  0.00    +0.008 A 
ATOM     33  C   UNL     1      11.795   9.559  15.455  0.00  0.00    +0.046 A 
ENDBRANCH  25  27
BRANCH  19  21
ATOM      3  O   UNL     1      15.310  10.300  18.955  0.00  0.00    -0.274 OA
ATOM      7  N   UNL     1      15.742  10.866  21.172  0.00  0.00    -0.302 N 
ATOM     21  C   UNL     1      15.186  10.101  20.161  0.00  0.00    +0.236 C 
ATOM     37  H   UNL     1      15.628  10.571  22.137  0.00  0.00    +0.150 HD
BRANCH   7  18
ATOM     18  C   UNL     1      16.564  12.029  20.922  0.00  0.00    +0.159 C 
BRANCH  18  24
ATOM      4  O   UNL     1      18.911  12.365  21.454  0.00  0.00    -0.274 OA
ATOM     10  N   UNL     1      17.575  11.319  23.003  0.00  0.00    -0.328 N 
ATOM     24  C   UNL     1      17.807  11.946  21.797  0.00  0.00    +0.231 C 
ATOM     38  H   UNL     1      16.664  10.960  23.265  0.00  0.00    +0.145 HD
ATOM     39  H   UNL     1      18.324  11.192  23.676  0.00  0.00    +0.145 HD
ENDBRANCH  18  24
BRANCH  18  14
ATOM     14  C   UNL     1      15.789  13.337  21.112  0.00  0.00    +0.035 C 
BRANCH  14  11
ATOM     11  C   UNL     1      15.280  13.958  19.813  0.00  0.00    -0.009 C 
ATOM     12  C   UNL     1      13.831  13.533  19.541  0.00  0.00    +0.003 C 
ATOM     13  C   UNL     1      16.191  13.576  18.637  0.00  0.00    +0.003 C 
ATOM     15  C   UNL     1      13.317  14.098  18.218  0.00  0.00    +0.000 C 
ATOM     16  C   UNL     1      15.673  14.140  17.317  0.00  0.00    +0.000 C 
ATOM     17  C   UNL     1      14.229  13.724  17.054  0.00  0.00    +0.000 C 
ENDBRANCH  14  11
ENDBRANCH  18  14
ENDBRANCH   7  18
ENDBRANCH  19  21
TORSDOF 7
ENDMDL
MODEL 9
REMARK VINA RESULT:      -5.9     27.312     29.939
REMARK  Name = 7164957
REMARK  7 active torsions:
REMARK  status: ('A' for Active; 'I' for Inactive)
REMARK    1  A    between atoms: N_7  and  C_18
REMARK    2  A    between atoms: C_11  and  C_14
REMARK    3  A    between atoms: C_14  and  C_18
REMARK    4  A    between atoms: C_18  and  C_24
REMARK    5  A    between atoms: C_19  and  C_21
REMARK    6  A    between atoms: C_25  and  C_27
REMARK    7  A    between atoms: C_26  and  C_28
REMARK                            x       y       z     vdW  Elec       q    Type
REMARK                         _______ _______ _______ _____ _____    ______ ____
ROOT
ATOM      5  O   UNL     1      -4.194 -15.677  16.253  0.00  0.00    -0.269 OA
ATOM      6  O   UNL     1      -6.364 -10.053  19.506  0.00  0.00    -0.270 OA
ATOM      8  N   UNL     1      -5.614 -13.859  16.507  0.00  0.00    -0.283 N 
ATOM      9  N   UNL     1      -6.758 -12.077  18.406  0.00  0.00    -0.294 N 
ATOM     19  C   UNL     1      -4.740 -13.088  17.404  0.00  0.00    +0.179 C 
ATOM     20  C   UNL     1      -5.434 -12.625  18.685  0.00  0.00    +0.140 C 
ATOM     22  C   UNL     1      -6.990 -13.357  16.331  0.00  0.00    +0.128 C 
ATOM     23  C   UNL     1      -7.632 -12.983  17.661  0.00  0.00    +0.127 C 
ATOM     25  C   UNL     1      -5.061 -14.939  15.782  0.00  0.00    +0.254 C 
ATOM     26  C   UNL     1      -7.103 -10.810  18.880  0.00  0.00    +0.247 C 
ENDROOT
BRANCH  26  28
ATOM      2  F   UNL     1     -10.171  -8.151  16.237  0.00  0.00    -0.205 F 
ATOM     28  C   UNL     1      -8.458 -10.315  18.603  0.00  0.00    +0.040 A 
ATOM     30  C   UNL     1      -8.673  -9.452  17.531  0.00  0.00    +0.051 A 
ATOM     31  C   UNL     1      -9.520 -10.709  19.413  0.00  0.00    +0.013 A 
ATOM     34  C   UNL     1      -9.960  -8.980  17.268  0.00  0.00    +0.124 A 
ATOM     35  C   UNL     1     -10.806 -10.237  19.150  0.00  0.00    +0.004 A 
ATOM     36  C   UNL     1     -11.026  -9.373  18.077  0.00  0.00    +0.038 A 
ENDBRANCH  26  28
BRANCH  25  27
ATOM      1  S   UNL     1      -6.632 -16.458  14.143  0.00  0.00    -0.092 S 
ATOM     27  C   UNL     1      -5.554 -15.162  14.427  0.00  0.00    +0.074 A 
ATOM     29  C   UNL     1      -5.273 -14.454  13.284  0.00  0.00    +0.021 A 
ATOM     32  C   UNL     1      -5.954 -14.984  12.150  0.00  0.00    +0.008 A 
ATOM     33  C   UNL     1      -6.728 -16.076  12.476  0.00  0.00    +0.046 A 
ENDBRANCH  25  27
BRANCH  19  21
ATOM      3  O   UNL     1      -4.617 -10.778  16.807  0.00  0.00    -0.274 OA
ATOM      7  N   UNL     1      -3.349 -12.320  15.609  0.00  0.00    -0.302 N 
ATOM     21  C   UNL     1      -4.239 -11.927  16.595  0.00  0.00    +0.236 C 
ATOM     37  H   UNL     1      -3.157 -13.310  15.482  0.00  0.00    +0.150 HD
BRANCH   7  18
ATOM     18  C   UNL     1      -2.740 -11.396  14.680  0.00  0.00    +0.159 C 
BRANCH  18  24
ATOM      4  O   UNL     1      -1.118  -9.606  14.935  0.00  0.00    -0.274 OA
ATOM     10  N   UNL     1      -1.418 -11.069  16.680  0.00  0.00    -0.328 N 
ATOM     24  C   UNL     1      -1.689 -10.580  15.420  0.00  0.00    +0.231 C 
ATOM     38  H   UNL     1      -1.883 -11.886  17.060  0.00  0.00    +0.145 HD
ATOM     39  H   UNL     1      -0.730 -10.620  17.275  0.00  0.00    +0.145 HD
ENDBRANCH  18  24
BRANCH  18  14
ATOM     14  C   UNL     1      -3.779 -10.523  13.967  0.00  0.00    +0.035 C 
BRANCH  14  11
ATOM     11  C   UNL     1      -4.253 -11.081  12.627  0.00  0.00    -0.009 C 
ATOM     12  C   UNL     1      -3.094 -11.757  11.881  0.00  0.00    +0.003 C 
ATOM     13  C   UNL     1      -4.881  -9.973  11.771  0.00  0.00    +0.003 C 
ATOM     15  C   UNL     1      -3.531 -12.276  10.513  0.00  0.00    +0.000 C 
ATOM     16  C   UNL     1      -5.314 -10.495  10.404  0.00  0.00    +0.000 C 
ATOM     17  C   UNL     1      -4.162 -11.174   9.669  0.00  0.00    +0.000 C 
ENDBRANCH  14  11
ENDBRANCH  18  14
ENDBRANCH   7  18
ENDBRANCH  19  21
TORSDOF 7
ENDMDL
MODEL 10
REMARK VINA RESULT:      -5.8     27.894     30.251
REMARK  Name = 7164957
REMARK  7 active torsions:
REMARK  status: ('A' for Active; 'I' for Inactive)
REMARK    1  A    between atoms: N_7  and  C_18
REMARK    2  A    between atoms: C_11  and  C_14
REMARK    3  A    between atoms: C_14  and  C_18
REMARK    4  A    between atoms: C_18  and  C_24
REMARK    5  A    between atoms: C_19  and  C_21
REMARK    6  A    between atoms: C_25  and  C_27
REMARK    7  A    between atoms: C_26  and  C_28
REMARK                            x       y       z     vdW  Elec       q    Type
REMARK                         _______ _______ _______ _____ _____    ______ ____
ROOT
ATOM      5  O   UNL     1      -6.697 -12.440  11.364  0.00  0.00    -0.269 OA
ATOM      6  O   UNL     1     -10.240 -10.558  16.916  0.00  0.00    -0.270 OA
ATOM      8  N   UNL     1      -7.698 -10.857  12.734  0.00  0.00    -0.283 N 
ATOM      9  N   UNL     1      -9.776 -10.432  14.629  0.00  0.00    -0.294 N 
ATOM     19  C   UNL     1      -7.773 -11.699  13.937  0.00  0.00    +0.179 C 
ATOM     20  C   UNL     1      -9.168 -11.758  14.557  0.00  0.00    +0.140 C 
ATOM     22  C   UNL     1      -8.419  -9.570  12.781  0.00  0.00    +0.128 C 
ATOM     23  C   UNL     1      -9.824  -9.730  13.347  0.00  0.00    +0.127 C 
ATOM     25  C   UNL     1      -6.852 -11.258  11.675  0.00  0.00    +0.254 C 
ATOM     26  C   UNL     1     -10.284  -9.963  15.841  0.00  0.00    +0.247 C 
ENDROOT
BRANCH  26  28
ATOM      2  F   UNL     1     -14.237  -7.162  15.752  0.00  0.00    -0.205 F 
ATOM     28  C   UNL     1     -10.916  -8.637  15.858  0.00  0.00    +0.040 A 
ATOM     30  C   UNL     1     -12.303  -8.530  15.796  0.00  0.00    +0.051 A 
ATOM     31  C   UNL     1     -10.124  -7.493  15.937  0.00  0.00    +0.013 A 
ATOM     34  C   UNL     1     -12.903  -7.270  15.812  0.00  0.00    +0.124 A 
ATOM     35  C   UNL     1     -10.724  -6.234  15.951  0.00  0.00    +0.004 A 
ATOM     36  C   UNL     1     -12.114  -6.122  15.889  0.00  0.00    +0.038 A 
ENDBRANCH  26  28
BRANCH  25  27
ATOM      1  S   UNL     1      -6.703  -9.782   9.381  0.00  0.00    -0.092 S 
ATOM     27  C   UNL     1      -6.150 -10.211  10.941  0.00  0.00    +0.074 A 
ATOM     29  C   UNL     1      -5.056  -9.476  11.330  0.00  0.00    +0.021 A 
ATOM     32  C   UNL     1      -4.661  -8.542  10.329  0.00  0.00    +0.008 A 
ATOM     33  C   UNL     1      -5.472  -8.602   9.217  0.00  0.00    +0.046 A 
ENDBRANCH  25  27
BRANCH  19  21
ATOM      3  O   UNL     1      -6.902 -10.033  15.411  0.00  0.00    -0.274 OA
ATOM      7  N   UNL     1      -5.695 -12.000  15.094  0.00  0.00    -0.302 N 
ATOM     21  C   UNL     1      -6.763 -11.140  14.898  0.00  0.00    +0.236 C 
ATOM     37  H   UNL     1      -5.652 -12.866  14.565  0.00  0.00    +0.150 HD
BRANCH   7  18
ATOM     18  C   UNL     1      -4.577 -11.686  15.955  0.00  0.00    +0.159 C 
BRANCH  18  24
ATOM      4  O   UNL     1      -2.690 -12.608  14.734  0.00  0.00    -0.274 OA
ATOM     10  N   UNL     1      -2.919 -10.325  14.836  0.00  0.00    -0.328 N 
ATOM     24  C   UNL     1      -3.313 -11.617  15.109  0.00  0.00    +0.231 C 
ATOM     38  H   UNL     1      -3.432  -9.516  15.168  0.00  0.00    +0.145 HD
ATOM     39  H   UNL     1      -2.086 -10.140  14.286  0.00  0.00    +0.145 HD
ENDBRANCH  18  24
BRANCH  18  14
ATOM     14  C   UNL     1      -4.456 -12.667  17.126  0.00  0.00    +0.035 C 
BRANCH  14  11
ATOM     11  C   UNL     1      -5.326 -12.313  18.331  0.00  0.00    -0.009 C 
ATOM     12  C   UNL     1      -6.725 -12.928  18.188  0.00  0.00    +0.003 C 
ATOM     13  C   UNL     1      -5.414 -10.791  18.508  0.00  0.00    +0.003 C 
ATOM     15  C   UNL     1      -7.631 -12.543  19.356  0.00  0.00    +0.000 C 
ATOM     16  C   UNL     1      -6.322 -10.411  19.674  0.00  0.00    +0.000 C 
ATOM     17  C   UNL     1      -7.708 -11.031  19.533  0.00  0.00    +0.000 C 
ENDBRANCH  14  11
ENDBRANCH  18  14
ENDBRANCH   7  18
ENDBRANCH  19  21
TORSDOF 7
ENDMDL
