MODEL 1
REMARK VINA RESULT:      -7.3      0.000      0.000
REMARK  Name = 26743694
REMARK  7 active torsions:
REMARK  status: ('A' for Active; 'I' for Inactive)
REMARK    1  A    between atoms: S_1  and  C_22
REMARK    2  A    between atoms: S_1  and  C_24
REMARK    3  A    between atoms: O_2  and  C_12
REMARK    4  A    between atoms: N_6  and  C_14
REMARK    5  A    between atoms: C_10  and  C_15
REMARK    6  A    between atoms: C_14  and  C_16
REMARK    7  A    between atoms: C_19  and  C_23
REMARK                            x       y       z     vdW  Elec       q    Type
REMARK                         _______ _______ _______ _____ _____    ______ ____
ROOT
ATOM      6  N   UNL     1      12.341   8.888  20.417  0.00  0.00    -0.285 NA
ATOM     10  C   UNL     1      13.088   8.155  21.459  0.00  0.00    +0.149 C 
ATOM     11  C   UNL     1      12.093   7.107  21.992  0.00  0.00    +0.061 C 
ATOM     12  C   UNL     1      10.804   7.359  21.223  0.00  0.00    +0.130 C 
ATOM     13  C   UNL     1      10.929   8.806  20.785  0.00  0.00    +0.116 C 
ENDROOT
BRANCH  10  15
ATOM      3  O   UNL     1      14.272   6.857  19.760  0.00  0.00    -0.336 OA
ATOM      7  N   UNL     1      15.570   7.552  21.448  0.00  0.00    -0.189 NA
ATOM      8  N   UNL     1      15.560   6.382  19.482  0.00  0.00    -0.054 NA
ATOM     15  C   UNL     1      14.366   7.535  20.933  0.00  0.00    +0.245 A 
ATOM     19  C   UNL     1      16.268   6.833  20.522  0.00  0.00    +0.220 A 
BRANCH  19  23
ATOM      9  N   UNL     1      18.313   7.345  21.579  0.00  0.00    -0.252 NA
ATOM     23  C   UNL     1      17.673   6.582  20.666  0.00  0.00    +0.111 A 
ATOM     25  C   UNL     1      18.291   5.608  19.898  0.00  0.00    +0.031 A 
ATOM     26  C   UNL     1      19.655   5.405  20.079  0.00  0.00    +0.004 A 
ATOM     27  C   UNL     1      19.638   7.120  21.727  0.00  0.00    +0.111 A 
ATOM     28  C   UNL     1      20.348   6.172  21.009  0.00  0.00    +0.020 A 
ENDBRANCH  19  23
ENDBRANCH  10  15
BRANCH  12   2
ATOM      2  O   UNL     1       9.676   7.157  22.053  0.00  0.00    -0.390 OA
ATOM     29  H   UNL     1       9.723   6.247  22.392  0.00  0.00    +0.210 HD
ENDBRANCH  12   2
BRANCH   6  14
ATOM     14  C   UNL     1      12.786  10.265  20.252  0.00  0.00    +0.120 C 
BRANCH  14  16
ATOM     16  C   UNL     1      13.219  10.550  18.839  0.00  0.00    -0.033 A 
ATOM     17  C   UNL     1      13.922  11.720  18.548  0.00  0.00    +0.007 A 
ATOM     18  C   UNL     1      12.918   9.646  17.820  0.00  0.00    +0.007 A 
ATOM     20  C   UNL     1      14.324  11.984  17.239  0.00  0.00    +0.027 A 
ATOM     21  C   UNL     1      13.320   9.910  16.512  0.00  0.00    +0.027 A 
ATOM     22  C   UNL     1      14.023  11.079  16.221  0.00  0.00    +0.088 A 
BRANCH  22   1
ATOM      1  S   UNL     1      14.525  11.411  14.581  0.00  0.00    -0.006 S 
ATOM      4  O   UNL     1      15.435  10.362  14.145  0.00  0.00    -0.170 OA
ATOM      5  O   UNL     1      13.333  11.707  13.798  0.00  0.00    -0.170 OA
ATOM     24  C   UNL     1      15.481  12.906  14.706  0.00  0.00    +0.200 C 
ENDBRANCH  22   1
ENDBRANCH  14  16
ENDBRANCH   6  14
TORSDOF 6
ENDMDL
MODEL 2
REMARK VINA RESULT:      -7.0      3.356      6.870
REMARK  Name = 26743694
REMARK  7 active torsions:
REMARK  status: ('A' for Active; 'I' for Inactive)
REMARK    1  A    between atoms: S_1  and  C_22
REMARK    2  A    between atoms: S_1  and  C_24
REMARK    3  A    between atoms: O_2  and  C_12
REMARK    4  A    between atoms: N_6  and  C_14
REMARK    5  A    between atoms: C_10  and  C_15
REMARK    6  A    between atoms: C_14  and  C_16
REMARK    7  A    between atoms: C_19  and  C_23
REMARK                            x       y       z     vdW  Elec       q    Type
REMARK                         _______ _______ _______ _____ _____    ______ ____
ROOT
ATOM      6  N   UNL     1      13.338   7.926  20.052  0.00  0.00    -0.285 NA
ATOM     10  C   UNL     1      12.382   7.858  18.928  0.00  0.00    +0.149 C 
ATOM     11  C   UNL     1      11.100   8.524  19.461  0.00  0.00    +0.061 C 
ATOM     12  C   UNL     1      11.418   8.891  20.905  0.00  0.00    +0.130 C 
ATOM     13  C   UNL     1      12.539   7.939  21.275  0.00  0.00    +0.116 C 
ENDROOT
BRANCH  10  15
ATOM      3  O   UNL     1      13.175   7.704  16.621  0.00  0.00    -0.336 OA
ATOM      7  N   UNL     1      13.151   9.788  17.443  0.00  0.00    -0.189 NA
ATOM      8  N   UNL     1      13.642   8.533  15.594  0.00  0.00    -0.054 NA
ATOM     15  C   UNL     1      12.908   8.522  17.673  0.00  0.00    +0.245 A 
ATOM     19  C   UNL     1      13.599   9.746  16.155  0.00  0.00    +0.220 A 
BRANCH  19  23
ATOM      9  N   UNL     1      13.284  11.227  14.347  0.00  0.00    -0.252 NA
ATOM     23  C   UNL     1      13.997  10.934  15.457  0.00  0.00    +0.111 A 
ATOM     25  C   UNL     1      15.050  11.701  15.927  0.00  0.00    +0.031 A 
ATOM     26  C   UNL     1      15.393  12.844  15.212  0.00  0.00    +0.004 A 
ATOM     27  C   UNL     1      13.646  12.344  13.677  0.00  0.00    +0.111 A 
ATOM     28  C   UNL     1      14.683  13.178  14.064  0.00  0.00    +0.020 A 
ENDBRANCH  19  23
ENDBRANCH  10  15
BRANCH  12   2
ATOM      2  O   UNL     1      10.282   8.712  21.729  0.00  0.00    -0.390 OA
ATOM     29  H   UNL     1       9.937   7.818  21.561  0.00  0.00    +0.210 HD
ENDBRANCH  12   2
BRANCH   6  14
ATOM     14  C   UNL     1      14.312   6.842  20.044  0.00  0.00    +0.120 C 
BRANCH  14  16
ATOM     16  C   UNL     1      15.678   7.311  20.468  0.00  0.00    -0.033 A 
ATOM     17  C   UNL     1      16.652   6.381  20.833  0.00  0.00    +0.007 A 
ATOM     18  C   UNL     1      15.971   8.675  20.495  0.00  0.00    +0.007 A 
ATOM     20  C   UNL     1      17.918   6.815  21.224  0.00  0.00    +0.027 A 
ATOM     21  C   UNL     1      17.237   9.108  20.887  0.00  0.00    +0.027 A 
ATOM     22  C   UNL     1      18.210   8.179  21.251  0.00  0.00    +0.088 A 
BRANCH  22   1
ATOM      1  S   UNL     1      19.795   8.722  21.743  0.00  0.00    -0.006 S 
ATOM      4  O   UNL     1      19.830   8.824  23.195  0.00  0.00    -0.170 OA
ATOM      5  O   UNL     1      20.784   7.907  21.051  0.00  0.00    -0.170 OA
ATOM     24  C   UNL     1      19.912  10.379  21.106  0.00  0.00    +0.200 C 
ENDBRANCH  22   1
ENDBRANCH  14  16
ENDBRANCH   6  14
TORSDOF 6
ENDMDL
MODEL 3
REMARK VINA RESULT:      -6.7      3.517      5.268
REMARK  Name = 26743694
REMARK  7 active torsions:
REMARK  status: ('A' for Active; 'I' for Inactive)
REMARK    1  A    between atoms: S_1  and  C_22
REMARK    2  A    between atoms: S_1  and  C_24
REMARK    3  A    between atoms: O_2  and  C_12
REMARK    4  A    between atoms: N_6  and  C_14
REMARK    5  A    between atoms: C_10  and  C_15
REMARK    6  A    between atoms: C_14  and  C_16
REMARK    7  A    between atoms: C_19  and  C_23
REMARK                            x       y       z     vdW  Elec       q    Type
REMARK                         _______ _______ _______ _____ _____    ______ ____
ROOT
ATOM      6  N   UNL     1      12.454   8.818  20.402  0.00  0.00    -0.285 NA
ATOM     10  C   UNL     1      13.161   8.055  21.451  0.00  0.00    +0.149 C 
ATOM     11  C   UNL     1      12.145   6.997  21.921  0.00  0.00    +0.061 C 
ATOM     12  C   UNL     1      10.885   7.274  21.112  0.00  0.00    +0.130 C 
ATOM     13  C   UNL     1      11.029   8.731  20.717  0.00  0.00    +0.116 C 
ENDROOT
BRANCH  10  15
ATOM      3  O   UNL     1      14.385   6.725  19.807  0.00  0.00    -0.336 OA
ATOM      7  N   UNL     1      15.655   7.507  21.478  0.00  0.00    -0.189 NA
ATOM      8  N   UNL     1      15.685   6.268  19.554  0.00  0.00    -0.054 NA
ATOM     15  C   UNL     1      14.456   7.445  20.956  0.00  0.00    +0.245 A 
ATOM     19  C   UNL     1      16.375   6.771  20.582  0.00  0.00    +0.220 A 
BRANCH  19  23
ATOM      9  N   UNL     1      18.385   7.303  21.697  0.00  0.00    -0.252 NA
ATOM     23  C   UNL     1      17.784   6.555  20.745  0.00  0.00    +0.111 A 
ATOM     25  C   UNL     1      18.445   5.629  19.954  0.00  0.00    +0.031 A 
ATOM     26  C   UNL     1      19.811   5.459  20.154  0.00  0.00    +0.004 A 
ATOM     27  C   UNL     1      19.713   7.112  21.862  0.00  0.00    +0.111 A 
ATOM     28  C   UNL     1      20.464   6.211  21.124  0.00  0.00    +0.020 A 
ENDBRANCH  19  23
ENDBRANCH  10  15
BRANCH  12   2
ATOM      2  O   UNL     1       9.728   7.054  21.895  0.00  0.00    -0.390 OA
ATOM     29  H   UNL     1       9.041   6.695  21.308  0.00  0.00    +0.210 HD
ENDBRANCH  12   2
BRANCH   6  14
ATOM     14  C   UNL     1      12.908  10.197  20.290  0.00  0.00    +0.120 C 
BRANCH  14  16
ATOM     16  C   UNL     1      12.669  10.973  21.559  0.00  0.00    -0.033 A 
ATOM     17  C   UNL     1      13.614  10.940  22.584  0.00  0.00    +0.007 A 
ATOM     18  C   UNL     1      11.503  11.724  21.709  0.00  0.00    +0.007 A 
ATOM     20  C   UNL     1      13.393  11.658  23.759  0.00  0.00    +0.027 A 
ATOM     21  C   UNL     1      11.282  12.442  22.883  0.00  0.00    +0.027 A 
ATOM     22  C   UNL     1      12.228  12.409  23.909  0.00  0.00    +0.088 A 
BRANCH  22   1
ATOM      1  S   UNL     1      11.951  13.308  25.380  0.00  0.00    -0.006 S 
ATOM      4  O   UNL     1      10.530  13.271  25.696  0.00  0.00    -0.170 OA
ATOM      5  O   UNL     1      12.922  12.861  26.368  0.00  0.00    -0.170 OA
ATOM     24  C   UNL     1      12.342  14.989  24.951  0.00  0.00    +0.200 C 
ENDBRANCH  22   1
ENDBRANCH  14  16
ENDBRANCH   6  14
TORSDOF 6
ENDMDL
MODEL 4
REMARK VINA RESULT:      -6.6     31.420     32.618
REMARK  Name = 26743694
REMARK  7 active torsions:
REMARK  status: ('A' for Active; 'I' for Inactive)
REMARK    1  A    between atoms: S_1  and  C_22
REMARK    2  A    between atoms: S_1  and  C_24
REMARK    3  A    between atoms: O_2  and  C_12
REMARK    4  A    between atoms: N_6  and  C_14
REMARK    5  A    between atoms: C_10  and  C_15
REMARK    6  A    between atoms: C_14  and  C_16
REMARK    7  A    between atoms: C_19  and  C_23
REMARK                            x       y       z     vdW  Elec       q    Type
REMARK                         _______ _______ _______ _____ _____    ______ ____
ROOT
ATOM      6  N   UNL     1     -15.328   1.459  29.593  0.00  0.00    -0.285 NA
ATOM     10  C   UNL     1     -15.261   1.390  31.067  0.00  0.00    +0.149 C 
ATOM     11  C   UNL     1     -14.001   0.555  31.364  0.00  0.00    +0.061 C 
ATOM     12  C   UNL     1     -13.456   0.164  29.997  0.00  0.00    +0.130 C 
ATOM     13  C   UNL     1     -14.668   0.256  29.091  0.00  0.00    +0.116 C 
ENDROOT
BRANCH  10  15
ATOM      3  O   UNL     1     -15.682   2.837  32.991  0.00  0.00    -0.336 OA
ATOM      7  N   UNL     1     -14.809   3.898  31.222  0.00  0.00    -0.189 NA
ATOM      8  N   UNL     1     -15.550   4.179  33.368  0.00  0.00    -0.054 NA
ATOM     15  C   UNL     1     -15.224   2.758  31.714  0.00  0.00    +0.245 A 
ATOM     19  C   UNL     1     -15.029   4.740  32.273  0.00  0.00    +0.220 A 
BRANCH  19  23
ATOM      9  N   UNL     1     -15.572   6.890  31.467  0.00  0.00    -0.252 NA
ATOM     23  C   UNL     1     -14.717   6.139  32.196  0.00  0.00    +0.111 A 
ATOM     25  C   UNL     1     -13.600   6.642  32.844  0.00  0.00    +0.031 A 
ATOM     26  C   UNL     1     -13.345   8.005  32.737  0.00  0.00    +0.004 A 
ATOM     27  C   UNL     1     -15.291   8.210  31.385  0.00  0.00    +0.111 A 
ATOM     28  C   UNL     1     -14.202   8.811  31.996  0.00  0.00    +0.020 A 
ENDBRANCH  19  23
ENDBRANCH  10  15
BRANCH  12   2
ATOM      2  O   UNL     1     -12.920  -1.145  30.027  0.00  0.00    -0.390 OA
ATOM     29  H   UNL     1     -12.428  -1.278  29.199  0.00  0.00    +0.210 HD
ENDBRANCH  12   2
BRANCH   6  14
ATOM     14  C   UNL     1     -16.688   1.592  29.086  0.00  0.00    +0.120 C 
BRANCH  14  16
ATOM     16  C   UNL     1     -16.709   1.961  27.626  0.00  0.00    -0.033 A 
ATOM     17  C   UNL     1     -17.263   1.084  26.694  0.00  0.00    +0.007 A 
ATOM     18  C   UNL     1     -16.176   3.180  27.207  0.00  0.00    +0.007 A 
ATOM     20  C   UNL     1     -17.284   1.426  25.342  0.00  0.00    +0.027 A 
ATOM     21  C   UNL     1     -16.197   3.522  25.855  0.00  0.00    +0.027 A 
ATOM     22  C   UNL     1     -16.751   2.644  24.922  0.00  0.00    +0.088 A 
BRANCH  22   1
ATOM      1  S   UNL     1     -16.776   3.072  23.229  0.00  0.00    -0.006 S 
ATOM      4  O   UNL     1     -15.566   3.818  22.913  0.00  0.00    -0.170 OA
ATOM      5  O   UNL     1     -17.106   1.875  22.469  0.00  0.00    -0.170 OA
ATOM     24  C   UNL     1     -18.138   4.206  23.080  0.00  0.00    +0.200 C 
ENDBRANCH  22   1
ENDBRANCH  14  16
ENDBRANCH   6  14
TORSDOF 6
ENDMDL
MODEL 5
REMARK VINA RESULT:      -6.5     25.589     28.758
REMARK  Name = 26743694
REMARK  7 active torsions:
REMARK  status: ('A' for Active; 'I' for Inactive)
REMARK    1  A    between atoms: S_1  and  C_22
REMARK    2  A    between atoms: S_1  and  C_24
REMARK    3  A    between atoms: O_2  and  C_12
REMARK    4  A    between atoms: N_6  and  C_14
REMARK    5  A    between atoms: C_10  and  C_15
REMARK    6  A    between atoms: C_14  and  C_16
REMARK    7  A    between atoms: C_19  and  C_23
REMARK                            x       y       z     vdW  Elec       q    Type
REMARK                         _______ _______ _______ _____ _____    ______ ____
ROOT
ATOM      6  N   UNL     1     -11.796   9.673  20.316  0.00  0.00    -0.285 NA
ATOM     10  C   UNL     1     -12.359   8.525  19.575  0.00  0.00    +0.149 C 
ATOM     11  C   UNL     1     -11.267   8.138  18.561  0.00  0.00    +0.061 C 
ATOM     12  C   UNL     1     -10.151   9.152  18.776  0.00  0.00    +0.130 C 
ATOM     13  C   UNL     1     -10.861  10.334  19.407  0.00  0.00    +0.116 C 
ENDROOT
BRANCH  10  15
ATOM      3  O   UNL     1     -11.734   6.589  20.930  0.00  0.00    -0.336 OA
ATOM      7  N   UNL     1     -13.931   7.024  20.915  0.00  0.00    -0.189 NA
ATOM      8  N   UNL     1     -12.329   5.614  21.740  0.00  0.00    -0.054 NA
ATOM     15  C   UNL     1     -12.746   7.378  20.485  0.00  0.00    +0.245 A 
ATOM     19  C   UNL     1     -13.625   5.937  21.681  0.00  0.00    +0.220 A 
BRANCH  19  23
ATOM      9  N   UNL     1     -15.780   4.979  21.688  0.00  0.00    -0.252 NA
ATOM     23  C   UNL     1     -14.637   5.196  22.376  0.00  0.00    +0.111 A 
ATOM     25  C   UNL     1     -14.414   4.750  23.669  0.00  0.00    +0.031 A 
ATOM     26  C   UNL     1     -15.429   4.035  24.296  0.00  0.00    +0.004 A 
ATOM     27  C   UNL     1     -16.744   4.281  22.329  0.00  0.00    +0.111 A 
ATOM     28  C   UNL     1     -16.619   3.792  23.620  0.00  0.00    +0.020 A 
ENDBRANCH  19  23
ENDBRANCH  10  15
BRANCH  12   2
ATOM      2  O   UNL     1      -9.544   9.498  17.546  0.00  0.00    -0.390 OA
ATOM     29  H   UNL     1      -9.251   8.674  17.122  0.00  0.00    +0.210 HD
ENDBRANCH  12   2
BRANCH   6  14
ATOM     14  C   UNL     1     -12.813  10.587  20.817  0.00  0.00    +0.120 C 
BRANCH  14  16
ATOM     16  C   UNL     1     -12.819  10.649  22.322  0.00  0.00    -0.033 A 
ATOM     17  C   UNL     1     -13.794   9.960  23.043  0.00  0.00    +0.007 A 
ATOM     18  C   UNL     1     -11.851  11.394  22.994  0.00  0.00    +0.007 A 
ATOM     20  C   UNL     1     -13.800  10.016  24.437  0.00  0.00    +0.027 A 
ATOM     21  C   UNL     1     -11.857  11.451  24.387  0.00  0.00    +0.027 A 
ATOM     22  C   UNL     1     -12.831  10.762  25.109  0.00  0.00    +0.088 A 
BRANCH  22   1
ATOM      1  S   UNL     1     -12.840  10.833  26.853  0.00  0.00    -0.006 S 
ATOM      4  O   UNL     1     -12.498  12.185  27.272  0.00  0.00    -0.170 OA
ATOM      5  O   UNL     1     -14.076  10.222  27.322  0.00  0.00    -0.170 OA
ATOM     24  C   UNL     1     -11.491   9.782  27.345  0.00  0.00    +0.200 C 
ENDBRANCH  22   1
ENDBRANCH  14  16
ENDBRANCH   6  14
TORSDOF 6
ENDMDL
MODEL 6
REMARK VINA RESULT:      -6.5     12.881     15.098
REMARK  Name = 26743694
REMARK  7 active torsions:
REMARK  status: ('A' for Active; 'I' for Inactive)
REMARK    1  A    between atoms: S_1  and  C_22
REMARK    2  A    between atoms: S_1  and  C_24
REMARK    3  A    between atoms: O_2  and  C_12
REMARK    4  A    between atoms: N_6  and  C_14
REMARK    5  A    between atoms: C_10  and  C_15
REMARK    6  A    between atoms: C_14  and  C_16
REMARK    7  A    between atoms: C_19  and  C_23
REMARK                            x       y       z     vdW  Elec       q    Type
REMARK                         _______ _______ _______ _____ _____    ______ ____
ROOT
ATOM      6  N   UNL     1      10.415   5.698   6.122  0.00  0.00    -0.285 NA
ATOM     10  C   UNL     1      10.205   6.852   7.020  0.00  0.00    +0.149 C 
ATOM     11  C   UNL     1      10.014   6.234   8.418  0.00  0.00    +0.061 C 
ATOM     12  C   UNL     1      10.089   4.729   8.196  0.00  0.00    +0.130 C 
ATOM     13  C   UNL     1       9.723   4.566   6.734  0.00  0.00    +0.116 C 
ENDROOT
BRANCH  10  15
ATOM      3  O   UNL     1      11.055   9.121   7.339  0.00  0.00    -0.336 OA
ATOM      7  N   UNL     1      12.593   7.661   6.618  0.00  0.00    -0.189 NA
ATOM      8  N   UNL     1      12.248   9.844   7.212  0.00  0.00    -0.054 NA
ATOM     15  C   UNL     1      11.346   7.847   6.970  0.00  0.00    +0.245 A 
ATOM     19  C   UNL     1      13.108   8.914   6.783  0.00  0.00    +0.220 A 
BRANCH  19  23
ATOM      9  N   UNL     1      14.858  10.492   6.685  0.00  0.00    -0.252 NA
ATOM     23  C   UNL     1      14.486   9.205   6.510  0.00  0.00    +0.111 A 
ATOM     25  C   UNL     1      15.343   8.198   6.097  0.00  0.00    +0.031 A 
ATOM     26  C   UNL     1      16.670   8.535   5.847  0.00  0.00    +0.004 A 
ATOM     27  C   UNL     1      16.154  10.782   6.432  0.00  0.00    +0.111 A 
ATOM     28  C   UNL     1      17.090   9.849   6.015  0.00  0.00    +0.020 A 
ENDBRANCH  19  23
ENDBRANCH  10  15
BRANCH  12   2
ATOM      2  O   UNL     1       9.181   4.052   9.044  0.00  0.00    -0.390 OA
ATOM     29  H   UNL     1       9.702   3.478   9.631  0.00  0.00    +0.210 HD
ENDBRANCH  12   2
BRANCH   6  14
ATOM     14  C   UNL     1       9.969   5.943   4.758  0.00  0.00    +0.120 C 
BRANCH  14  16
ATOM     16  C   UNL     1      10.957   5.432   3.743  0.00  0.00    -0.033 A 
ATOM     17  C   UNL     1      12.014   6.244   3.330  0.00  0.00    +0.007 A 
ATOM     18  C   UNL     1      10.816   4.148   3.217  0.00  0.00    +0.007 A 
ATOM     20  C   UNL     1      12.930   5.771   2.391  0.00  0.00    +0.027 A 
ATOM     21  C   UNL     1      11.732   3.675   2.277  0.00  0.00    +0.027 A 
ATOM     22  C   UNL     1      12.789   4.487   1.864  0.00  0.00    +0.088 A 
BRANCH  22   1
ATOM      1  S   UNL     1      13.935   3.895   0.688  0.00  0.00    -0.006 S 
ATOM      4  O   UNL     1      15.032   3.239   1.385  0.00  0.00    -0.170 OA
ATOM      5  O   UNL     1      13.194   3.171  -0.336  0.00  0.00    -0.170 OA
ATOM     24  C   UNL     1      14.602   5.366  -0.058  0.00  0.00    +0.200 C 
ENDBRANCH  22   1
ENDBRANCH  14  16
ENDBRANCH   6  14
TORSDOF 6
ENDMDL
MODEL 7
REMARK VINA RESULT:      -6.4     25.915     28.138
REMARK  Name = 26743694
REMARK  7 active torsions:
REMARK  status: ('A' for Active; 'I' for Inactive)
REMARK    1  A    between atoms: S_1  and  C_22
REMARK    2  A    between atoms: S_1  and  C_24
REMARK    3  A    between atoms: O_2  and  C_12
REMARK    4  A    between atoms: N_6  and  C_14
REMARK    5  A    between atoms: C_10  and  C_15
REMARK    6  A    between atoms: C_14  and  C_16
REMARK    7  A    between atoms: C_19  and  C_23
REMARK                            x       y       z     vdW  Elec       q    Type
REMARK                         _______ _______ _______ _____ _____    ______ ____
ROOT
ATOM      6  N   UNL     1     -11.159   9.698  17.559  0.00  0.00    -0.285 NA
ATOM     10  C   UNL     1     -10.540  10.719  18.430  0.00  0.00    +0.149 C 
ATOM     11  C   UNL     1     -10.331  11.941  17.517  0.00  0.00    +0.061 C 
ATOM     12  C   UNL     1     -10.820  11.496  16.145  0.00  0.00    +0.130 C 
ATOM     13  C   UNL     1     -10.706   9.985  16.200  0.00  0.00    +0.116 C 
ENDROOT
BRANCH  10  15
ATOM      3  O   UNL     1     -12.335  11.991  19.493  0.00  0.00    -0.336 OA
ATOM      7  N   UNL     1     -11.331  10.517  20.850  0.00  0.00    -0.189 NA
ATOM      8  N   UNL     1     -12.974  12.106  20.735  0.00  0.00    -0.054 NA
ATOM     15  C   UNL     1     -11.383  11.035  19.648  0.00  0.00    +0.245 A 
ATOM     19  C   UNL     1     -12.326  11.206  21.481  0.00  0.00    +0.220 A 
BRANCH  19  23
ATOM      9  N   UNL     1     -13.794  10.290  23.084  0.00  0.00    -0.252 NA
ATOM     23  C   UNL     1     -12.648  10.971  22.859  0.00  0.00    +0.111 A 
ATOM     25  C   UNL     1     -11.809  11.430  23.861  0.00  0.00    +0.031 A 
ATOM     26  C   UNL     1     -12.168  11.173  25.180  0.00  0.00    +0.004 A 
ATOM     27  C   UNL     1     -14.111  10.060  24.378  0.00  0.00    +0.111 A 
ATOM     28  C   UNL     1     -13.340  10.476  25.451  0.00  0.00    +0.020 A 
ENDBRANCH  19  23
ENDBRANCH  10  15
BRANCH  12   2
ATOM      2  O   UNL     1     -10.012  12.047  15.122  0.00  0.00    -0.390 OA
ATOM     29  H   UNL     1      -9.338  11.384  14.894  0.00  0.00    +0.210 HD
ENDBRANCH  12   2
BRANCH   6  14
ATOM     14  C   UNL     1     -10.850   8.334  17.965  0.00  0.00    +0.120 C 
BRANCH  14  16
ATOM     16  C   UNL     1     -11.865   7.793  18.937  0.00  0.00    -0.033 A 
ATOM     17  C   UNL     1     -11.444   7.079  20.058  0.00  0.00    +0.007 A 
ATOM     18  C   UNL     1     -13.226   8.007  18.716  0.00  0.00    +0.007 A 
ATOM     20  C   UNL     1     -12.384   6.579  20.959  0.00  0.00    +0.027 A 
ATOM     21  C   UNL     1     -14.165   7.507  19.617  0.00  0.00    +0.027 A 
ATOM     22  C   UNL     1     -13.744   6.793  20.738  0.00  0.00    +0.088 A 
BRANCH  22   1
ATOM      1  S   UNL     1     -14.921   6.166  21.866  0.00  0.00    -0.006 S 
ATOM      4  O   UNL     1     -14.852   4.711  21.860  0.00  0.00    -0.170 OA
ATOM      5  O   UNL     1     -14.773   6.891  23.119  0.00  0.00    -0.170 OA
ATOM     24  C   UNL     1     -16.492   6.612  21.159  0.00  0.00    +0.200 C 
ENDBRANCH  22   1
ENDBRANCH  14  16
ENDBRANCH   6  14
TORSDOF 6
ENDMDL
MODEL 8
REMARK VINA RESULT:      -6.4     26.846     29.231
REMARK  Name = 26743694
REMARK  7 active torsions:
REMARK  status: ('A' for Active; 'I' for Inactive)
REMARK    1  A    between atoms: S_1  and  C_22
REMARK    2  A    between atoms: S_1  and  C_24
REMARK    3  A    between atoms: O_2  and  C_12
REMARK    4  A    between atoms: N_6  and  C_14
REMARK    5  A    between atoms: C_10  and  C_15
REMARK    6  A    between atoms: C_14  and  C_16
REMARK    7  A    between atoms: C_19  and  C_23
REMARK                            x       y       z     vdW  Elec       q    Type
REMARK                         _______ _______ _______ _____ _____    ______ ____
ROOT
ATOM      6  N   UNL     1      -7.264 -10.849  17.403  0.00  0.00    -0.285 NA
ATOM     10  C   UNL     1      -5.918 -11.283  17.830  0.00  0.00    +0.149 C 
ATOM     11  C   UNL     1      -6.091 -12.761  18.230  0.00  0.00    +0.061 C 
ATOM     12  C   UNL     1      -7.573 -13.051  18.037  0.00  0.00    +0.130 C 
ATOM     13  C   UNL     1      -8.219 -11.682  18.131  0.00  0.00    +0.116 C 
ENDROOT
BRANCH  10  15
ATOM      3  O   UNL     1      -3.576 -11.122  17.154  0.00  0.00    -0.336 OA
ATOM      7  N   UNL     1      -5.032 -10.883  15.469  0.00  0.00    -0.189 NA
ATOM      8  N   UNL     1      -2.807 -10.919  16.001  0.00  0.00    -0.054 NA
ATOM     15  C   UNL     1      -4.873 -11.087  16.753  0.00  0.00    +0.245 A 
ATOM     19  C   UNL     1      -3.737 -10.786  15.050  0.00  0.00    +0.220 A 
BRANCH  19  23
ATOM      9  N   UNL     1      -4.455 -10.428  12.832  0.00  0.00    -0.252 NA
ATOM     23  C   UNL     1      -3.405 -10.557  13.673  0.00  0.00    +0.111 A 
ATOM     25  C   UNL     1      -2.080 -10.478  13.278  0.00  0.00    +0.031 A 
ATOM     26  C   UNL     1      -1.815 -10.253  11.931  0.00  0.00    +0.004 A 
ATOM     27  C   UNL     1      -4.159 -10.212  11.531  0.00  0.00    +0.111 A 
ATOM     28  C   UNL     1      -2.869 -10.116  11.035  0.00  0.00    +0.020 A 
ENDBRANCH  19  23
ENDBRANCH  10  15
BRANCH  12   2
ATOM      2  O   UNL     1      -8.048 -13.926  19.043  0.00  0.00    -0.390 OA
ATOM     29  H   UNL     1      -8.846 -13.524  19.427  0.00  0.00    +0.210 HD
ENDBRANCH  12   2
BRANCH   6  14
ATOM     14  C   UNL     1      -7.503  -9.427  17.615  0.00  0.00    +0.120 C 
BRANCH  14  16
ATOM     16  C   UNL     1      -8.670  -8.927  16.806  0.00  0.00    -0.033 A 
ATOM     17  C   UNL     1      -9.604  -8.069  17.388  0.00  0.00    +0.007 A 
ATOM     18  C   UNL     1      -8.817  -9.319  15.476  0.00  0.00    +0.007 A 
ATOM     20  C   UNL     1     -10.685  -7.605  16.640  0.00  0.00    +0.027 A 
ATOM     21  C   UNL     1      -9.898  -8.854  14.727  0.00  0.00    +0.027 A 
ATOM     22  C   UNL     1     -10.832  -7.997  15.309  0.00  0.00    +0.088 A 
BRANCH  22   1
ATOM      1  S   UNL     1     -12.186  -7.416  14.372  0.00  0.00    -0.006 S 
ATOM      4  O   UNL     1     -12.019  -7.838  12.989  0.00  0.00    -0.170 OA
ATOM      5  O   UNL     1     -13.407  -7.757  15.089  0.00  0.00    -0.170 OA
ATOM     24  C   UNL     1     -12.014  -5.646  14.398  0.00  0.00    +0.200 C 
ENDBRANCH  22   1
ENDBRANCH  14  16
ENDBRANCH   6  14
TORSDOF 6
ENDMDL
MODEL 9
REMARK VINA RESULT:      -6.1     13.723     16.198
REMARK  Name = 26743694
REMARK  7 active torsions:
REMARK  status: ('A' for Active; 'I' for Inactive)
REMARK    1  A    between atoms: S_1  and  C_22
REMARK    2  A    between atoms: S_1  and  C_24
REMARK    3  A    between atoms: O_2  and  C_12
REMARK    4  A    between atoms: N_6  and  C_14
REMARK    5  A    between atoms: C_10  and  C_15
REMARK    6  A    between atoms: C_14  and  C_16
REMARK    7  A    between atoms: C_19  and  C_23
REMARK                            x       y       z     vdW  Elec       q    Type
REMARK                         _______ _______ _______ _____ _____    ______ ____
ROOT
ATOM      6  N   UNL     1      10.398   5.857   5.691  0.00  0.00    -0.285 NA
ATOM     10  C   UNL     1      11.103   6.783   6.600  0.00  0.00    +0.149 C 
ATOM     11  C   UNL     1      10.959   6.149   7.996  0.00  0.00    +0.061 C 
ATOM     12  C   UNL     1      10.121   4.897   7.776  0.00  0.00    +0.130 C 
ATOM     13  C   UNL     1       9.372   5.192   6.490  0.00  0.00    +0.116 C 
ENDROOT
BRANCH  10  15
ATOM      3  O   UNL     1      13.471   6.890   7.194  0.00  0.00    -0.336 OA
ATOM      7  N   UNL     1      13.052   7.293   5.031  0.00  0.00    -0.189 NA
ATOM      8  N   UNL     1      14.714   7.133   6.594  0.00  0.00    -0.054 NA
ATOM     15  C   UNL     1      12.548   7.003   6.204  0.00  0.00    +0.245 A 
ATOM     19  C   UNL     1      14.383   7.362   5.320  0.00  0.00    +0.220 A 
BRANCH  19  23
ATOM      9  N   UNL     1      16.534   8.154   4.763  0.00  0.00    -0.252 NA
ATOM     23  C   UNL     1      15.359   7.663   4.312  0.00  0.00    +0.111 A 
ATOM     25  C   UNL     1      15.070   7.447   2.974  0.00  0.00    +0.031 A 
ATOM     26  C   UNL     1      16.052   7.756   2.038  0.00  0.00    +0.004 A 
ATOM     27  C   UNL     1      17.464   8.444   3.825  0.00  0.00    +0.111 A 
ATOM     28  C   UNL     1      17.274   8.264   2.464  0.00  0.00    +0.020 A 
ENDBRANCH  19  23
ENDBRANCH  10  15
BRANCH  12   2
ATOM      2  O   UNL     1       9.238   4.687   8.861  0.00  0.00    -0.390 OA
ATOM     29  H   UNL     1       9.480   5.317   9.561  0.00  0.00    +0.210 HD
ENDBRANCH  12   2
BRANCH   6  14
ATOM     14  C   UNL     1       9.839   6.518   4.519  0.00  0.00    +0.120 C 
BRANCH  14  16
ATOM     16  C   UNL     1      10.307   5.881   3.238  0.00  0.00    -0.033 A 
ATOM     17  C   UNL     1      11.103   4.736   3.279  0.00  0.00    +0.007 A 
ATOM     18  C   UNL     1       9.945   6.434   2.010  0.00  0.00    +0.007 A 
ATOM     20  C   UNL     1      11.537   4.145   2.093  0.00  0.00    +0.027 A 
ATOM     21  C   UNL     1      10.378   5.843   0.823  0.00  0.00    +0.027 A 
ATOM     22  C   UNL     1      11.174   4.698   0.865  0.00  0.00    +0.088 A 
BRANCH  22   1
ATOM      1  S   UNL     1      11.717   3.959  -0.621  0.00  0.00    -0.006 S 
ATOM      4  O   UNL     1      12.797   3.030  -0.319  0.00  0.00    -0.170 OA
ATOM      5  O   UNL     1      10.544   3.491  -1.345  0.00  0.00    -0.170 OA
ATOM     24  C   UNL     1      12.432   5.300  -1.546  0.00  0.00    +0.200 C 
ENDBRANCH  22   1
ENDBRANCH  14  16
ENDBRANCH   6  14
TORSDOF 6
ENDMDL
MODEL 10
REMARK VINA RESULT:      -6.0     25.770     28.704
REMARK  Name = 26743694
REMARK  7 active torsions:
REMARK  status: ('A' for Active; 'I' for Inactive)
REMARK    1  A    between atoms: S_1  and  C_22
REMARK    2  A    between atoms: S_1  and  C_24
REMARK    3  A    between atoms: O_2  and  C_12
REMARK    4  A    between atoms: N_6  and  C_14
REMARK    5  A    between atoms: C_10  and  C_15
REMARK    6  A    between atoms: C_14  and  C_16
REMARK    7  A    between atoms: C_19  and  C_23
REMARK                            x       y       z     vdW  Elec       q    Type
REMARK                         _______ _______ _______ _____ _____    ______ ____
ROOT
ATOM      6  N   UNL     1      -3.505 -10.912  14.816  0.00  0.00    -0.285 NA
ATOM     10  C   UNL     1      -3.495 -11.423  16.201  0.00  0.00    +0.149 C 
ATOM     11  C   UNL     1      -2.175 -10.905  16.802  0.00  0.00    +0.061 C 
ATOM     12  C   UNL     1      -1.494 -10.152  15.667  0.00  0.00    +0.130 C 
ATOM     13  C   UNL     1      -2.107 -10.760  14.420  0.00  0.00    +0.116 C 
ENDROOT
BRANCH  10  15
ATOM      3  O   UNL     1      -4.584 -10.992  18.346  0.00  0.00    -0.336 OA
ATOM      7  N   UNL     1      -5.885 -10.603  16.565  0.00  0.00    -0.189 NA
ATOM      8  N   UNL     1      -5.817 -10.560  18.851  0.00  0.00    -0.054 NA
ATOM     15  C   UNL     1      -4.710 -10.988  16.993  0.00  0.00    +0.245 A 
ATOM     19  C   UNL     1      -6.530 -10.350  17.740  0.00  0.00    +0.220 A 
BRANCH  19  23
ATOM      9  N   UNL     1      -8.732 -10.605  18.546  0.00  0.00    -0.252 NA
ATOM     23  C   UNL     1      -7.888  -9.889  17.771  0.00  0.00    +0.111 A 
ATOM     25  C   UNL     1      -8.264  -8.776  17.037  0.00  0.00    +0.031 A 
ATOM     26  C   UNL     1      -9.594  -8.371  17.104  0.00  0.00    +0.004 A 
ATOM     27  C   UNL     1     -10.016 -10.183  18.585  0.00  0.00    +0.111 A 
ATOM     28  C   UNL     1     -10.492  -9.083  17.890  0.00  0.00    +0.020 A 
ENDBRANCH  19  23
ENDBRANCH  10  15
BRANCH  12   2
ATOM      2  O   UNL     1      -0.092 -10.343  15.709  0.00  0.00    -0.390 OA
ATOM     29  H   UNL     1       0.202 -10.145  16.615  0.00  0.00    +0.210 HD
ENDBRANCH  12   2
BRANCH   6  14
ATOM     14  C   UNL     1      -4.247 -11.762  13.895  0.00  0.00    +0.120 C 
BRANCH  14  16
ATOM     16  C   UNL     1      -4.886 -10.968  12.787  0.00  0.00    -0.033 A 
ATOM     17  C   UNL     1      -4.571 -11.248  11.457  0.00  0.00    +0.007 A 
ATOM     18  C   UNL     1      -5.793  -9.952  13.089  0.00  0.00    +0.007 A 
ATOM     20  C   UNL     1      -5.162 -10.514  10.430  0.00  0.00    +0.027 A 
ATOM     21  C   UNL     1      -6.385  -9.217  12.062  0.00  0.00    +0.027 A 
ATOM     22  C   UNL     1      -6.069  -9.498  10.733  0.00  0.00    +0.088 A 
BRANCH  22   1
ATOM      1  S   UNL     1      -6.809  -8.577   9.447  0.00  0.00    -0.006 S 
ATOM      4  O   UNL     1      -8.230  -8.427   9.730  0.00  0.00    -0.170 OA
ATOM      5  O   UNL     1      -5.991  -7.396   9.213  0.00  0.00    -0.170 OA
ATOM     24  C   UNL     1      -6.675  -9.627   8.017  0.00  0.00    +0.200 C 
ENDBRANCH  22   1
ENDBRANCH  14  16
ENDBRANCH   6  14
TORSDOF 6
ENDMDL
