MODEL 1
REMARK VINA RESULT:      -7.1      0.000      0.000
REMARK  Name = 7143880
REMARK  8 active torsions:
REMARK  status: ('A' for Active; 'I' for Inactive)
REMARK    1  A    between atoms: N_5  and  C_20
REMARK    2  A    between atoms: N_6  and  C_25
REMARK    3  A    between atoms: N_6  and  C_29
REMARK    4  A    between atoms: N_6  and  C_30
REMARK    5  A    between atoms: C_17  and  C_19
REMARK    6  A    between atoms: C_20  and  C_23
REMARK    7  A    between atoms: C_20  and  C_24
REMARK    8  A    between atoms: C_21  and  C_25
REMARK                            x       y       z     vdW  Elec       q    Type
REMARK                         _______ _______ _______ _____ _____    ______ ____
ROOT
ATOM      1  O   UNL     1      12.243   7.605   2.985  0.00  0.00    -0.267 OA
ATOM      2  O   UNL     1      12.822   6.398  -2.000  0.00  0.00    -0.253 OA
ATOM      3  N   UNL     1      13.418   4.534  -0.757  0.00  0.00    -0.285 N 
ATOM      4  N   UNL     1      12.832   5.491   2.197  0.00  0.00    -0.311 N 
ATOM      5  N   UNL     1      11.299   4.697  -1.796  0.00  0.00    -0.297 N 
ATOM      7  C   UNL     1      15.070   5.027   1.040  0.00  0.00    +0.027 C 
ATOM      8  C   UNL     1      13.444   3.203   1.338  0.00  0.00    +0.054 C 
ATOM      9  C   UNL     1      14.896   3.613   1.584  0.00  0.00    +0.018 C 
ATOM     10  C   UNL     1      14.750   5.072  -0.465  0.00  0.00    +0.114 C 
ATOM     11  C   UNL     1      14.177   5.976   1.849  0.00  0.00    +0.130 C 
ATOM     12  C   UNL     1      13.166   3.203  -0.179  0.00  0.00    +0.119 C 
ATOM     13  C   UNL     1      12.484   4.148   2.036  0.00  0.00    +0.027 A 
ATOM     14  C   UNL     1      11.293   3.705   2.467  0.00  0.00    +0.022 A 
ATOM     15  C   UNL     1      11.959   6.422   2.793  0.00  0.00    +0.259 A 
ATOM     16  C   UNL     1      12.534   5.283  -1.551  0.00  0.00    +0.302 C 
ATOM     17  C   UNL     1      10.616   5.904   3.231  0.00  0.00    +0.047 A 
ATOM     18  C   UNL     1      10.346   4.600   3.068  0.00  0.00    +0.015 A 
ATOM     31  H   UNL     1      11.124   3.732  -1.555  0.00  0.00    +0.150 HD
ENDROOT
BRANCH  17  19
ATOM     19  C   UNL     1       9.606   6.801   3.819  0.00  0.00    -0.008 A 
ATOM     21  C   UNL     1       9.323   6.782   5.187  0.00  0.00    -0.026 A 
ATOM     22  C   UNL     1       8.920   7.685   2.981  0.00  0.00    +0.009 A 
ATOM     26  C   UNL     1       8.361   7.643   5.715  0.00  0.00    +0.005 A 
ATOM     27  C   UNL     1       7.958   8.545   3.509  0.00  0.00    +0.001 A 
ATOM     28  C   UNL     1       7.678   8.524   4.876  0.00  0.00    +0.000 A 
BRANCH  21  25
ATOM     25  C   UNL     1      10.034   5.851   6.115  0.00  0.00    +0.119 C 
BRANCH  25   6
ATOM      6  N   UNL     1      10.703   6.560   7.206  0.00  0.00    -0.304 NA
ATOM     29  C   UNL     1      12.121   6.747   6.900  0.00  0.00    +0.104 C 
ATOM     30  C   UNL     1      10.543   5.828   8.462  0.00  0.00    +0.104 C 
ENDBRANCH  25   6
ENDBRANCH  21  25
ENDBRANCH  17  19
BRANCH   5  20
ATOM     20  C   UNL     1      10.281   5.351  -2.587  0.00  0.00    +0.068 C 
ATOM     23  C   UNL     1       9.618   4.358  -3.533  0.00  0.00    +0.027 C 
ATOM     24  C   UNL     1       9.254   6.020  -1.682  0.00  0.00    +0.027 C 
ENDBRANCH   5  20
TORSDOF 4
ENDMDL
MODEL 2
REMARK VINA RESULT:      -6.5     25.520     27.984
REMARK  Name = 7143880
REMARK  8 active torsions:
REMARK  status: ('A' for Active; 'I' for Inactive)
REMARK    1  A    between atoms: N_5  and  C_20
REMARK    2  A    between atoms: N_6  and  C_25
REMARK    3  A    between atoms: N_6  and  C_29
REMARK    4  A    between atoms: N_6  and  C_30
REMARK    5  A    between atoms: C_17  and  C_19
REMARK    6  A    between atoms: C_20  and  C_23
REMARK    7  A    between atoms: C_20  and  C_24
REMARK    8  A    between atoms: C_21  and  C_25
REMARK                            x       y       z     vdW  Elec       q    Type
REMARK                         _______ _______ _______ _____ _____    ______ ____
ROOT
ATOM      1  O   UNL     1      -6.717 -10.539  14.104  0.00  0.00    -0.267 OA
ATOM      2  O   UNL     1      -3.946 -14.768  13.063  0.00  0.00    -0.253 OA
ATOM      3  N   UNL     1      -2.456 -13.062  13.558  0.00  0.00    -0.285 N 
ATOM      4  N   UNL     1      -4.397 -10.678  14.291  0.00  0.00    -0.311 N 
ATOM      5  N   UNL     1      -3.017 -14.712  15.158  0.00  0.00    -0.297 N 
ATOM      7  C   UNL     1      -2.867 -10.978  12.258  0.00  0.00    +0.027 C 
ATOM      8  C   UNL     1      -1.893 -10.842  14.514  0.00  0.00    +0.054 C 
ATOM      9  C   UNL     1      -1.832 -10.248  13.107  0.00  0.00    +0.018 C 
ATOM     10  C   UNL     1      -2.565 -12.487  12.214  0.00  0.00    +0.114 C 
ATOM     11  C   UNL     1      -4.261 -10.685  12.826  0.00  0.00    +0.130 C 
ATOM     12  C   UNL     1      -1.532 -12.340  14.449  0.00  0.00    +0.119 C 
ATOM     13  C   UNL     1      -3.273 -10.672  15.121  0.00  0.00    +0.027 A 
ATOM     14  C   UNL     1      -3.417 -10.549  16.449  0.00  0.00    +0.022 A 
ATOM     15  C   UNL     1      -5.704 -10.573  14.804  0.00  0.00    +0.259 A 
ATOM     16  C   UNL     1      -3.188 -14.220  13.870  0.00  0.00    +0.302 C 
ATOM     17  C   UNL     1      -5.836 -10.476  16.300  0.00  0.00    +0.047 A 
ATOM     18  C   UNL     1      -4.719 -10.455  17.044  0.00  0.00    +0.015 A 
ATOM     31  H   UNL     1      -2.291 -14.352  15.761  0.00  0.00    +0.150 HD
ENDROOT
BRANCH  17  19
ATOM     19  C   UNL     1      -7.157 -10.414  16.948  0.00  0.00    -0.008 A 
ATOM     21  C   UNL     1      -7.794 -11.566  17.417  0.00  0.00    -0.026 A 
ATOM     22  C   UNL     1      -7.780  -9.172  17.091  0.00  0.00    +0.009 A 
ATOM     26  C   UNL     1      -9.045 -11.476  18.026  0.00  0.00    +0.005 A 
ATOM     27  C   UNL     1      -9.032  -9.082  17.699  0.00  0.00    +0.001 A 
ATOM     28  C   UNL     1      -9.665 -10.234  18.167  0.00  0.00    +0.000 A 
BRANCH  21  25
ATOM     25  C   UNL     1      -7.161 -12.913  17.282  0.00  0.00    +0.119 C 
BRANCH  25   6
ATOM      6  N   UNL     1      -7.922 -13.798  16.401  0.00  0.00    -0.304 NA
ATOM     29  C   UNL     1      -8.168 -15.083  17.055  0.00  0.00    +0.104 C 
ATOM     30  C   UNL     1      -7.210 -13.995  15.138  0.00  0.00    +0.104 C 
ENDBRANCH  25   6
ENDBRANCH  21  25
ENDBRANCH  17  19
BRANCH   5  20
ATOM     20  C   UNL     1      -3.711 -15.889  15.629  0.00  0.00    +0.068 C 
ATOM     23  C   UNL     1      -2.738 -17.046  15.815  0.00  0.00    +0.027 C 
ATOM     24  C   UNL     1      -4.458 -15.583  16.921  0.00  0.00    +0.027 C 
ENDBRANCH   5  20
TORSDOF 4
ENDMDL
MODEL 3
REMARK VINA RESULT:      -6.4      4.452      8.132
REMARK  Name = 7143880
REMARK  8 active torsions:
REMARK  status: ('A' for Active; 'I' for Inactive)
REMARK    1  A    between atoms: N_5  and  C_20
REMARK    2  A    between atoms: N_6  and  C_25
REMARK    3  A    between atoms: N_6  and  C_29
REMARK    4  A    between atoms: N_6  and  C_30
REMARK    5  A    between atoms: C_17  and  C_19
REMARK    6  A    between atoms: C_20  and  C_23
REMARK    7  A    between atoms: C_20  and  C_24
REMARK    8  A    between atoms: C_21  and  C_25
REMARK                            x       y       z     vdW  Elec       q    Type
REMARK                         _______ _______ _______ _____ _____    ______ ____
ROOT
ATOM      1  O   UNL     1      12.831   8.218   3.779  0.00  0.00    -0.267 OA
ATOM      2  O   UNL     1       8.749  10.158   6.272  0.00  0.00    -0.253 OA
ATOM      3  N   UNL     1       8.878   7.903   6.794  0.00  0.00    -0.285 N 
ATOM      4  N   UNL     1      11.508   7.021   5.280  0.00  0.00    -0.311 N 
ATOM      5  N   UNL     1       9.659   9.561   8.290  0.00  0.00    -0.297 N 
ATOM      7  C   UNL     1       9.063   6.431   4.793  0.00  0.00    +0.027 C 
ATOM      8  C   UNL     1      10.089   5.740   6.921  0.00  0.00    +0.054 C 
ATOM      9  C   UNL     1       9.319   5.234   5.701  0.00  0.00    +0.018 C 
ATOM     10  C   UNL     1       8.246   7.507   5.532  0.00  0.00    +0.114 C 
ATOM     11  C   UNL     1      10.412   6.969   4.300  0.00  0.00    +0.130 C 
ATOM     12  C   UNL     1       9.226   6.774   7.673  0.00  0.00    +0.119 C 
ATOM     13  C   UNL     1      11.407   6.370   6.513  0.00  0.00    +0.027 A 
ATOM     14  C   UNL     1      12.460   6.334   7.343  0.00  0.00    +0.022 A 
ATOM     15  C   UNL     1      12.692   7.665   4.871  0.00  0.00    +0.259 A 
ATOM     16  C   UNL     1       9.070   9.267   7.067  0.00  0.00    +0.302 C 
ATOM     17  C   UNL     1      13.843   7.640   5.840  0.00  0.00    +0.047 A 
ATOM     18  C   UNL     1      13.693   6.984   7.000  0.00  0.00    +0.015 A 
ATOM     31  H   UNL     1       9.783   8.846   8.993  0.00  0.00    +0.150 HD
ENDROOT
BRANCH  17  19
ATOM     19  C   UNL     1      15.111   8.327   5.537  0.00  0.00    -0.008 A 
ATOM     21  C   UNL     1      15.343   9.642   5.946  0.00  0.00    -0.026 A 
ATOM     22  C   UNL     1      16.096   7.639   4.824  0.00  0.00    +0.009 A 
ATOM     26  C   UNL     1      16.553  10.266   5.645  0.00  0.00    +0.005 A 
ATOM     27  C   UNL     1      17.306   8.263   4.522  0.00  0.00    +0.001 A 
ATOM     28  C   UNL     1      17.535   9.576   4.932  0.00  0.00    +0.000 A 
BRANCH  21  25
ATOM     25  C   UNL     1      14.315  10.412   6.710  0.00  0.00    +0.119 C 
BRANCH  25   6
ATOM      6  N   UNL     1      13.806  11.558   5.956  0.00  0.00    -0.304 NA
ATOM     29  C   UNL     1      13.901  12.778   6.757  0.00  0.00    +0.104 C 
ATOM     30  C   UNL     1      12.423  11.323   5.543  0.00  0.00    +0.104 C 
ENDBRANCH  25   6
ENDBRANCH  21  25
ENDBRANCH  17  19
BRANCH   5  20
ATOM     20  C   UNL     1       9.931  10.918   8.707  0.00  0.00    +0.068 C 
ATOM     23  C   UNL     1       9.008  11.322   9.849  0.00  0.00    +0.027 C 
ATOM     24  C   UNL     1      11.395  11.069   9.100  0.00  0.00    +0.027 C 
ENDBRANCH   5  20
TORSDOF 4
ENDMDL
MODEL 4
REMARK VINA RESULT:      -6.3     33.621     36.066
REMARK  Name = 7143880
REMARK  8 active torsions:
REMARK  status: ('A' for Active; 'I' for Inactive)
REMARK    1  A    between atoms: N_5  and  C_20
REMARK    2  A    between atoms: N_6  and  C_25
REMARK    3  A    between atoms: N_6  and  C_29
REMARK    4  A    between atoms: N_6  and  C_30
REMARK    5  A    between atoms: C_17  and  C_19
REMARK    6  A    between atoms: C_20  and  C_23
REMARK    7  A    between atoms: C_20  and  C_24
REMARK    8  A    between atoms: C_21  and  C_25
REMARK                            x       y       z     vdW  Elec       q    Type
REMARK                         _______ _______ _______ _____ _____    ______ ____
ROOT
ATOM      1  O   UNL     1       9.123  -9.705  33.339  0.00  0.00    -0.267 OA
ATOM      2  O   UNL     1       7.934  -7.587  37.893  0.00  0.00    -0.253 OA
ATOM      3  N   UNL     1       7.949  -5.888  36.316  0.00  0.00    -0.285 N 
ATOM      4  N   UNL     1       8.546  -7.467  33.644  0.00  0.00    -0.311 N 
ATOM      5  N   UNL     1       5.925  -6.858  37.063  0.00  0.00    -0.297 N 
ATOM      7  C   UNL     1      10.026  -5.828  34.942  0.00  0.00    +0.027 C 
ATOM      8  C   UNL     1       7.898  -5.055  33.978  0.00  0.00    +0.054 C 
ATOM      9  C   UNL     1       9.398  -4.769  34.043  0.00  0.00    +0.018 C 
ATOM     10  C   UNL     1       9.411  -5.777  36.353  0.00  0.00    +0.114 C 
ATOM     11  C   UNL     1       9.844  -7.201  34.283  0.00  0.00    +0.130 C 
ATOM     12  C   UNL     1       7.297  -4.942  35.393  0.00  0.00    +0.119 C 
ATOM     13  C   UNL     1       7.629  -6.438  33.414  0.00  0.00    +0.027 A 
ATOM     14  C   UNL     1       6.502  -6.681  32.728  0.00  0.00    +0.022 A 
ATOM     15  C   UNL     1       8.324  -8.780  33.187  0.00  0.00    +0.259 A 
ATOM     16  C   UNL     1       7.311  -6.826  37.144  0.00  0.00    +0.302 C 
ATOM     17  C   UNL     1       7.033  -9.031  32.454  0.00  0.00    +0.047 A 
ATOM     18  C   UNL     1       6.201  -7.999  32.247  0.00  0.00    +0.015 A 
ATOM     31  H   UNL     1       5.416  -6.140  36.566  0.00  0.00    +0.150 HD
ENDROOT
BRANCH  17  19
ATOM     19  C   UNL     1       6.675 -10.378  31.978  0.00  0.00    -0.008 A 
ATOM     21  C   UNL     1       6.044 -11.303  32.814  0.00  0.00    -0.026 A 
ATOM     22  C   UNL     1       6.978 -10.729  30.659  0.00  0.00    +0.009 A 
ATOM     26  C   UNL     1       5.717 -12.571  32.334  0.00  0.00    +0.005 A 
ATOM     27  C   UNL     1       6.651 -11.997  30.180  0.00  0.00    +0.001 A 
ATOM     28  C   UNL     1       6.021 -12.918  31.017  0.00  0.00    +0.000 A 
BRANCH  21  25
ATOM     25  C   UNL     1       5.704 -10.966  34.229  0.00  0.00    +0.119 C 
BRANCH  25   6
ATOM      6  N   UNL     1       6.392 -11.832  35.186  0.00  0.00    -0.304 NA
ATOM     29  C   UNL     1       5.424 -12.524  36.037  0.00  0.00    +0.104 C 
ATOM     30  C   UNL     1       7.325 -11.054  36.000  0.00  0.00    +0.104 C 
ENDBRANCH  25   6
ENDBRANCH  21  25
ENDBRANCH  17  19
BRANCH   5  20
ATOM     20  C   UNL     1       5.130  -7.776  37.846  0.00  0.00    +0.068 C 
ATOM     23  C   UNL     1       4.116  -7.019  38.694  0.00  0.00    +0.027 C 
ATOM     24  C   UNL     1       4.444  -8.790  36.939  0.00  0.00    +0.027 C 
ENDBRANCH   5  20
TORSDOF 4
ENDMDL
MODEL 5
REMARK VINA RESULT:      -6.1     25.784     28.303
REMARK  Name = 7143880
REMARK  8 active torsions:
REMARK  status: ('A' for Active; 'I' for Inactive)
REMARK    1  A    between atoms: N_5  and  C_20
REMARK    2  A    between atoms: N_6  and  C_25
REMARK    3  A    between atoms: N_6  and  C_29
REMARK    4  A    between atoms: N_6  and  C_30
REMARK    5  A    between atoms: C_17  and  C_19
REMARK    6  A    between atoms: C_20  and  C_23
REMARK    7  A    between atoms: C_20  and  C_24
REMARK    8  A    between atoms: C_21  and  C_25
REMARK                            x       y       z     vdW  Elec       q    Type
REMARK                         _______ _______ _______ _____ _____    ______ ____
ROOT
ATOM      1  O   UNL     1      -7.182 -11.695  14.940  0.00  0.00    -0.267 OA
ATOM      2  O   UNL     1      -3.947 -15.284  13.125  0.00  0.00    -0.253 OA
ATOM      3  N   UNL     1      -2.737 -13.325  13.393  0.00  0.00    -0.285 N 
ATOM      4  N   UNL     1      -4.892 -11.378  14.637  0.00  0.00    -0.311 N 
ATOM      5  N   UNL     1      -2.622 -15.073  14.983  0.00  0.00    -0.297 N 
ATOM      7  C   UNL     1      -3.801 -11.346  12.319  0.00  0.00    +0.027 C 
ATOM      8  C   UNL     1      -2.413 -11.049  14.330  0.00  0.00    +0.054 C 
ATOM      9  C   UNL     1      -2.767 -10.438  12.974  0.00  0.00    +0.018 C 
ATOM     10  C   UNL     1      -3.236 -12.766  12.133  0.00  0.00    +0.114 C 
ATOM     11  C   UNL     1      -5.072 -11.340  13.178  0.00  0.00    +0.130 C 
ATOM     12  C   UNL     1      -1.797 -12.446  14.111  0.00  0.00    +0.119 C 
ATOM     13  C   UNL     1      -3.639 -11.161  15.216  0.00  0.00    +0.027 A 
ATOM     14  C   UNL     1      -3.518 -11.086  16.550  0.00  0.00    +0.022 A 
ATOM     15  C   UNL     1      -6.056 -11.537  15.414  0.00  0.00    +0.259 A 
ATOM     16  C   UNL     1      -3.152 -14.608  13.787  0.00  0.00    +0.302 C 
ATOM     17  C   UNL     1      -5.882 -11.487  16.908  0.00  0.00    +0.047 A 
ATOM     18  C   UNL     1      -4.657 -11.257  17.406  0.00  0.00    +0.015 A 
ATOM     31  H   UNL     1      -1.865 -14.585  15.442  0.00  0.00    +0.150 HD
ENDROOT
BRANCH  17  19
ATOM     19  C   UNL     1      -7.023 -11.694  17.817  0.00  0.00    -0.008 A 
ATOM     21  C   UNL     1      -8.013 -10.721  17.976  0.00  0.00    -0.026 A 
ATOM     22  C   UNL     1      -7.106 -12.892  18.532  0.00  0.00    +0.009 A 
ATOM     26  C   UNL     1      -9.081 -10.946  18.844  0.00  0.00    +0.005 A 
ATOM     27  C   UNL     1      -8.174 -13.116  19.400  0.00  0.00    +0.001 A 
ATOM     28  C   UNL     1      -9.162 -12.143  19.557  0.00  0.00    +0.000 A 
BRANCH  21  25
ATOM     25  C   UNL     1      -7.959  -9.428  17.230  0.00  0.00    +0.119 C 
BRANCH  25   6
ATOM      6  N   UNL     1      -9.254  -9.063  16.658  0.00  0.00    -0.304 NA
ATOM     29  C   UNL     1      -9.159  -8.958  15.202  0.00  0.00    +0.104 C 
ATOM     30  C   UNL     1      -9.729  -7.804  17.232  0.00  0.00    +0.104 C 
ENDBRANCH  25   6
ENDBRANCH  21  25
ENDBRANCH  17  19
BRANCH   5  20
ATOM     20  C   UNL     1      -2.963 -16.369  15.523  0.00  0.00    +0.068 C 
ATOM     23  C   UNL     1      -1.705 -17.146  15.890  0.00  0.00    +0.027 C 
ATOM     24  C   UNL     1      -3.886 -16.215  16.726  0.00  0.00    +0.027 C 
ENDBRANCH   5  20
TORSDOF 4
ENDMDL
MODEL 6
REMARK VINA RESULT:      -6.1     26.291     29.349
REMARK  Name = 7143880
REMARK  8 active torsions:
REMARK  status: ('A' for Active; 'I' for Inactive)
REMARK    1  A    between atoms: N_5  and  C_20
REMARK    2  A    between atoms: N_6  and  C_25
REMARK    3  A    between atoms: N_6  and  C_29
REMARK    4  A    between atoms: N_6  and  C_30
REMARK    5  A    between atoms: C_17  and  C_19
REMARK    6  A    between atoms: C_20  and  C_23
REMARK    7  A    between atoms: C_20  and  C_24
REMARK    8  A    between atoms: C_21  and  C_25
REMARK                            x       y       z     vdW  Elec       q    Type
REMARK                         _______ _______ _______ _____ _____    ______ ____
ROOT
ATOM      1  O   UNL     1      -5.536 -13.357  15.943  0.00  0.00    -0.267 OA
ATOM      2  O   UNL     1     -10.495 -11.973  15.575  0.00  0.00    -0.253 OA
ATOM      3  N   UNL     1      -9.900 -11.849  17.812  0.00  0.00    -0.285 N 
ATOM      4  N   UNL     1      -6.830 -12.589  17.724  0.00  0.00    -0.311 N 
ATOM      5  N   UNL     1     -10.017  -9.912  16.458  0.00  0.00    -0.297 N 
ATOM      7  C   UNL     1      -8.808 -13.918  18.664  0.00  0.00    +0.027 C 
ATOM      8  C   UNL     1      -8.225 -11.735  19.640  0.00  0.00    +0.054 C 
ATOM      9  C   UNL     1      -8.483 -13.205  19.972  0.00  0.00    +0.018 C 
ATOM     10  C   UNL     1     -10.049 -13.295  18.000  0.00  0.00    +0.114 C 
ATOM     11  C   UNL     1      -7.575 -13.857  17.754  0.00  0.00    +0.130 C 
ATOM     12  C   UNL     1      -9.501 -11.121  19.029  0.00  0.00    +0.119 C 
ATOM     13  C   UNL     1      -7.068 -11.588  18.670  0.00  0.00    +0.027 A 
ATOM     14  C   UNL     1      -6.300 -10.488  18.696  0.00  0.00    +0.022 A 
ATOM     15  C   UNL     1      -5.801 -12.482  16.769  0.00  0.00    +0.259 A 
ATOM     16  C   UNL     1     -10.164 -11.290  16.550  0.00  0.00    +0.302 C 
ATOM     17  C   UNL     1      -4.980 -11.221  16.798  0.00  0.00    +0.047 A 
ATOM     18  C   UNL     1      -5.244 -10.304  17.741  0.00  0.00    +0.015 A 
ATOM     31  H   UNL     1      -9.892  -9.345  17.285  0.00  0.00    +0.150 HD
ENDROOT
BRANCH  17  19
ATOM     19  C   UNL     1      -3.913 -10.981  15.811  0.00  0.00    -0.008 A 
ATOM     21  C   UNL     1      -4.206 -10.618  14.494  0.00  0.00    -0.026 A 
ATOM     22  C   UNL     1      -2.582 -11.123  16.211  0.00  0.00    +0.009 A 
ATOM     26  C   UNL     1      -3.174 -10.398  13.583  0.00  0.00    +0.005 A 
ATOM     27  C   UNL     1      -1.549 -10.904  15.299  0.00  0.00    +0.001 A 
ATOM     28  C   UNL     1      -1.846 -10.541  13.985  0.00  0.00    +0.000 A 
BRANCH  21  25
ATOM     25  C   UNL     1      -5.616 -10.456  14.028  0.00  0.00    +0.119 C 
BRANCH  25   6
ATOM      6  N   UNL     1      -5.715 -10.396  12.570  0.00  0.00    -0.304 NA
ATOM     29  C   UNL     1      -6.202  -9.084  12.144  0.00  0.00    +0.104 C 
ATOM     30  C   UNL     1      -6.595 -11.454  12.075  0.00  0.00    +0.104 C 
ENDBRANCH  25   6
ENDBRANCH  21  25
ENDBRANCH  17  19
BRANCH   5  20
ATOM     20  C   UNL     1     -10.242  -9.196  15.223  0.00  0.00    +0.068 C 
ATOM     23  C   UNL     1     -10.561  -7.733  15.503  0.00  0.00    +0.027 C 
ATOM     24  C   UNL     1      -9.035  -9.331  14.303  0.00  0.00    +0.027 C 
ENDBRANCH   5  20
TORSDOF 4
ENDMDL
MODEL 7
REMARK VINA RESULT:      -6.0     24.501     26.562
REMARK  Name = 7143880
REMARK  8 active torsions:
REMARK  status: ('A' for Active; 'I' for Inactive)
REMARK    1  A    between atoms: N_5  and  C_20
REMARK    2  A    between atoms: N_6  and  C_25
REMARK    3  A    between atoms: N_6  and  C_29
REMARK    4  A    between atoms: N_6  and  C_30
REMARK    5  A    between atoms: C_17  and  C_19
REMARK    6  A    between atoms: C_20  and  C_23
REMARK    7  A    between atoms: C_20  and  C_24
REMARK    8  A    between atoms: C_21  and  C_25
REMARK                            x       y       z     vdW  Elec       q    Type
REMARK                         _______ _______ _______ _____ _____    ______ ____
ROOT
ATOM      1  O   UNL     1      -6.732 -10.028  14.208  0.00  0.00    -0.267 OA
ATOM      2  O   UNL     1      -7.309 -12.672   9.813  0.00  0.00    -0.253 OA
ATOM      3  N   UNL     1      -5.651 -11.090   9.463  0.00  0.00    -0.285 N 
ATOM      4  N   UNL     1      -5.406  -9.744  12.311  0.00  0.00    -0.311 N 
ATOM      5  N   UNL     1      -5.123 -13.355   9.901  0.00  0.00    -0.297 N 
ATOM      7  C   UNL     1      -6.324  -8.784  10.121  0.00  0.00    +0.027 C 
ATOM      8  C   UNL     1      -3.961  -9.460  10.267  0.00  0.00    +0.054 C 
ATOM      9  C   UNL     1      -4.894  -8.306   9.896  0.00  0.00    +0.018 C 
ATOM     10  C   UNL     1      -6.627 -10.018   9.249  0.00  0.00    +0.114 C 
ATOM     11  C   UNL     1      -6.514  -9.074  11.615  0.00  0.00    +0.130 C 
ATOM     12  C   UNL     1      -4.247 -10.661   9.343  0.00  0.00    +0.119 C 
ATOM     13  C   UNL     1      -4.148  -9.869  11.716  0.00  0.00    +0.027 A 
ATOM     14  C   UNL     1      -3.121 -10.381  12.411  0.00  0.00    +0.022 A 
ATOM     15  C   UNL     1      -5.648 -10.154  13.637  0.00  0.00    +0.259 A 
ATOM     16  C   UNL     1      -6.109 -12.392   9.727  0.00  0.00    +0.302 C 
ATOM     17  C   UNL     1      -4.487 -10.759  14.379  0.00  0.00    +0.047 A 
ATOM     18  C   UNL     1      -3.298 -10.836  13.761  0.00  0.00    +0.015 A 
ATOM     31  H   UNL     1      -4.157 -13.155   9.685  0.00  0.00    +0.150 HD
ENDROOT
BRANCH  17  19
ATOM     19  C   UNL     1      -4.640 -11.270  15.752  0.00  0.00    -0.008 A 
ATOM     21  C   UNL     1      -4.867 -12.625  16.005  0.00  0.00    -0.026 A 
ATOM     22  C   UNL     1      -4.557 -10.370  16.818  0.00  0.00    +0.009 A 
ATOM     26  C   UNL     1      -5.008 -13.079  17.316  0.00  0.00    +0.005 A 
ATOM     27  C   UNL     1      -4.700 -10.824  18.130  0.00  0.00    +0.001 A 
ATOM     28  C   UNL     1      -4.925 -12.178  18.378  0.00  0.00    +0.000 A 
BRANCH  21  25
ATOM     25  C   UNL     1      -4.962 -13.618  14.892  0.00  0.00    +0.119 C 
BRANCH  25   6
ATOM      6  N   UNL     1      -4.074 -14.762  15.092  0.00  0.00    -0.304 NA
ATOM     29  C   UNL     1      -2.830 -14.581  14.342  0.00  0.00    +0.104 C 
ATOM     30  C   UNL     1      -4.739 -16.001  14.688  0.00  0.00    +0.104 C 
ENDBRANCH  25   6
ENDBRANCH  21  25
ENDBRANCH  17  19
BRANCH   5  20
ATOM     20  C   UNL     1      -5.439 -14.735  10.189  0.00  0.00    +0.068 C 
ATOM     23  C   UNL     1      -5.617 -15.526   8.899  0.00  0.00    +0.027 C 
ATOM     24  C   UNL     1      -4.361 -15.353  11.071  0.00  0.00    +0.027 C 
ENDBRANCH   5  20
TORSDOF 4
ENDMDL
MODEL 8
REMARK VINA RESULT:      -5.9     26.718     30.215
REMARK  Name = 7143880
REMARK  8 active torsions:
REMARK  status: ('A' for Active; 'I' for Inactive)
REMARK    1  A    between atoms: N_5  and  C_20
REMARK    2  A    between atoms: N_6  and  C_25
REMARK    3  A    between atoms: N_6  and  C_29
REMARK    4  A    between atoms: N_6  and  C_30
REMARK    5  A    between atoms: C_17  and  C_19
REMARK    6  A    between atoms: C_20  and  C_23
REMARK    7  A    between atoms: C_20  and  C_24
REMARK    8  A    between atoms: C_21  and  C_25
REMARK                            x       y       z     vdW  Elec       q    Type
REMARK                         _______ _______ _______ _____ _____    ______ ____
ROOT
ATOM      1  O   UNL     1     -11.761   7.275  19.935  0.00  0.00    -0.267 OA
ATOM      2  O   UNL     1     -10.617  12.065  18.388  0.00  0.00    -0.253 OA
ATOM      3  N   UNL     1     -11.507  10.938  16.568  0.00  0.00    -0.285 N 
ATOM      4  N   UNL     1     -12.244   8.132  17.821  0.00  0.00    -0.311 N 
ATOM      5  N   UNL     1     -12.811  12.446  17.844  0.00  0.00    -0.297 N 
ATOM      7  C   UNL     1     -10.418   8.742  16.131  0.00  0.00    +0.027 C 
ATOM      8  C   UNL     1     -12.786   9.072  15.547  0.00  0.00    +0.054 C 
ATOM      9  C   UNL     1     -11.479   8.427  15.084  0.00  0.00    +0.018 C 
ATOM     10  C   UNL     1     -10.238  10.264  16.281  0.00  0.00    +0.114 C 
ATOM     11  C   UNL     1     -10.821   8.076  17.453  0.00  0.00    +0.130 C 
ATOM     12  C   UNL     1     -12.595  10.600  15.634  0.00  0.00    +0.119 C 
ATOM     13  C   UNL     1     -13.215   8.530  16.897  0.00  0.00    +0.027 A 
ATOM     14  C   UNL     1     -14.516   8.464  17.217  0.00  0.00    +0.022 A 
ATOM     15  C   UNL     1     -12.584   7.668  19.106  0.00  0.00    +0.259 A 
ATOM     16  C   UNL     1     -11.579  11.835  17.647  0.00  0.00    +0.302 C 
ATOM     17  C   UNL     1     -14.049   7.642  19.449  0.00  0.00    +0.047 A 
ATOM     18  C   UNL     1     -14.935   8.017  18.515  0.00  0.00    +0.015 A 
ATOM     31  H   UNL     1     -13.545  12.370  17.154  0.00  0.00    +0.150 HD
ENDROOT
BRANCH  17  19
ATOM     19  C   UNL     1     -14.513   7.223  20.783  0.00  0.00    -0.008 A 
ATOM     21  C   UNL     1     -14.604   8.131  21.841  0.00  0.00    -0.026 A 
ATOM     22  C   UNL     1     -14.867   5.886  20.985  0.00  0.00    +0.009 A 
ATOM     26  C   UNL     1     -15.048   7.706  23.093  0.00  0.00    +0.005 A 
ATOM     27  C   UNL     1     -15.309   5.460  22.237  0.00  0.00    +0.001 A 
ATOM     28  C   UNL     1     -15.400   6.370  23.291  0.00  0.00    +0.000 A 
BRANCH  21  25
ATOM     25  C   UNL     1     -14.235   9.568  21.666  0.00  0.00    +0.119 C 
BRANCH  25   6
ATOM      6  N   UNL     1     -12.913   9.872  22.212  0.00  0.00    -0.304 NA
ATOM     29  C   UNL     1     -13.035  10.648  23.446  0.00  0.00    +0.104 C 
ATOM     30  C   UNL     1     -12.109  10.598  21.228  0.00  0.00    +0.104 C 
ENDBRANCH  25   6
ENDBRANCH  21  25
ENDBRANCH  17  19
BRANCH   5  20
ATOM     20  C   UNL     1     -13.042  13.384  18.919  0.00  0.00    +0.068 C 
ATOM     23  C   UNL     1     -12.978  14.816  18.404  0.00  0.00    +0.027 C 
ATOM     24  C   UNL     1     -14.378  13.099  19.593  0.00  0.00    +0.027 C 
ENDBRANCH   5  20
TORSDOF 4
ENDMDL
MODEL 9
REMARK VINA RESULT:      -5.8     24.930     27.192
REMARK  Name = 7143880
REMARK  8 active torsions:
REMARK  status: ('A' for Active; 'I' for Inactive)
REMARK    1  A    between atoms: N_5  and  C_20
REMARK    2  A    between atoms: N_6  and  C_25
REMARK    3  A    between atoms: N_6  and  C_29
REMARK    4  A    between atoms: N_6  and  C_30
REMARK    5  A    between atoms: C_17  and  C_19
REMARK    6  A    between atoms: C_20  and  C_23
REMARK    7  A    between atoms: C_20  and  C_24
REMARK    8  A    between atoms: C_21  and  C_25
REMARK                            x       y       z     vdW  Elec       q    Type
REMARK                         _______ _______ _______ _____ _____    ______ ____
ROOT
ATOM      1  O   UNL     1      -3.503 -10.180  15.727  0.00  0.00    -0.267 OA
ATOM      2  O   UNL     1      -6.046  -8.620  11.515  0.00  0.00    -0.253 OA
ATOM      3  N   UNL     1      -5.259 -10.760  11.102  0.00  0.00    -0.285 N 
ATOM      4  N   UNL     1      -3.898 -11.510  13.853  0.00  0.00    -0.311 N 
ATOM      5  N   UNL     1      -7.511 -10.372  11.713  0.00  0.00    -0.297 N 
ATOM      7  C   UNL     1      -2.829 -11.032  11.575  0.00  0.00    +0.027 C 
ATOM      8  C   UNL     1      -4.349 -12.950  11.836  0.00  0.00    +0.054 C 
ATOM      9  C   UNL     1      -2.957 -12.535  11.358  0.00  0.00    +0.018 C 
ATOM     10  C   UNL     1      -3.912 -10.275  10.785  0.00  0.00    +0.114 C 
ATOM     11  C   UNL     1      -2.907 -10.746  13.080  0.00  0.00    +0.130 C 
ATOM     12  C   UNL     1      -5.414 -12.221  10.991  0.00  0.00    +0.119 C 
ATOM     13  C   UNL     1      -4.544 -12.621  13.304  0.00  0.00    +0.027 A 
ATOM     14  C   UNL     1      -5.357 -13.371  14.063  0.00  0.00    +0.022 A 
ATOM     15  C   UNL     1      -4.081 -11.130  15.197  0.00  0.00    +0.259 A 
ATOM     16  C   UNL     1      -6.259  -9.835  11.444  0.00  0.00    +0.302 C 
ATOM     17  C   UNL     1      -5.029 -11.967  16.013  0.00  0.00    +0.047 A 
ATOM     18  C   UNL     1      -5.604 -13.033  15.436  0.00  0.00    +0.015 A 
ATOM     31  H   UNL     1      -7.716 -11.340  11.511  0.00  0.00    +0.150 HD
ENDROOT
BRANCH  17  19
ATOM     19  C   UNL     1      -5.334 -11.630  17.414  0.00  0.00    -0.008 A 
ATOM     21  C   UNL     1      -6.441 -10.846  17.750  0.00  0.00    -0.026 A 
ATOM     22  C   UNL     1      -4.492 -12.109  18.421  0.00  0.00    +0.009 A 
ATOM     26  C   UNL     1      -6.704 -10.543  19.085  0.00  0.00    +0.005 A 
ATOM     27  C   UNL     1      -4.755 -11.805  19.757  0.00  0.00    +0.001 A 
ATOM     28  C   UNL     1      -5.861 -11.022  20.089  0.00  0.00    +0.000 A 
BRANCH  21  25
ATOM     25  C   UNL     1      -7.364 -10.315  16.702  0.00  0.00    +0.119 C 
BRANCH  25   6
ATOM      6  N   UNL     1      -8.655  -9.906  17.255  0.00  0.00    -0.304 NA
ATOM     29  C   UNL     1      -9.693 -10.871  16.895  0.00  0.00    +0.104 C 
ATOM     30  C   UNL     1      -9.012  -8.569  16.782  0.00  0.00    +0.104 C 
ENDBRANCH  25   6
ENDBRANCH  21  25
ENDBRANCH  17  19
BRANCH   5  20
ATOM     20  C   UNL     1      -8.637  -9.547  12.089  0.00  0.00    +0.068 C 
ATOM     23  C   UNL     1      -9.687  -9.538  10.986  0.00  0.00    +0.027 C 
ATOM     24  C   UNL     1      -9.227 -10.027  13.409  0.00  0.00    +0.027 C 
ENDBRANCH   5  20
TORSDOF 4
ENDMDL
MODEL 10
REMARK VINA RESULT:      -5.8     31.793     35.134
REMARK  Name = 7143880
REMARK  8 active torsions:
REMARK  status: ('A' for Active; 'I' for Inactive)
REMARK    1  A    between atoms: N_5  and  C_20
REMARK    2  A    between atoms: N_6  and  C_25
REMARK    3  A    between atoms: N_6  and  C_29
REMARK    4  A    between atoms: N_6  and  C_30
REMARK    5  A    between atoms: C_17  and  C_19
REMARK    6  A    between atoms: C_20  and  C_23
REMARK    7  A    between atoms: C_20  and  C_24
REMARK    8  A    between atoms: C_21  and  C_25
REMARK                            x       y       z     vdW  Elec       q    Type
REMARK                         _______ _______ _______ _____ _____    ______ ____
ROOT
ATOM      1  O   UNL     1       8.873 -12.213  31.995  0.00  0.00    -0.267 OA
ATOM      2  O   UNL     1       6.537 -10.698  36.342  0.00  0.00    -0.253 OA
ATOM      3  N   UNL     1       7.134  -8.790  35.169  0.00  0.00    -0.285 N 
ATOM      4  N   UNL     1       8.384  -9.996  32.530  0.00  0.00    -0.311 N 
ATOM      5  N   UNL     1       4.918  -9.618  35.131  0.00  0.00    -0.297 N 
ATOM      7  C   UNL     1       9.523  -8.763  34.466  0.00  0.00    +0.027 C 
ATOM      8  C   UNL     1       7.832  -7.606  33.102  0.00  0.00    +0.054 C 
ATOM      9  C   UNL     1       9.261  -7.512  33.636  0.00  0.00    +0.018 C 
ATOM     10  C   UNL     1       8.523  -8.859  35.633  0.00  0.00    +0.114 C 
ATOM     11  C   UNL     1       9.450  -9.987  33.543  0.00  0.00    +0.130 C 
ATOM     12  C   UNL     1       6.848  -7.643  34.289  0.00  0.00    +0.119 C 
ATOM     13  C   UNL     1       7.648  -8.843  32.244  0.00  0.00    +0.027 A 
ATOM     14  C   UNL     1       6.761  -8.843  31.238  0.00  0.00    +0.022 A 
ATOM     15  C   UNL     1       8.219 -11.188  31.797  0.00  0.00    +0.259 A 
ATOM     16  C   UNL     1       6.217  -9.763  35.601  0.00  0.00    +0.302 C 
ATOM     17  C   UNL     1       7.189 -11.168  30.700  0.00  0.00    +0.047 A 
ATOM     18  C   UNL     1       6.527 -10.026  30.460  0.00  0.00    +0.015 A 
ATOM     31  H   UNL     1       4.628  -8.778  34.651  0.00  0.00    +0.150 HD
ENDROOT
BRANCH  17  19
ATOM     19  C   UNL     1       6.897 -12.373  29.906  0.00  0.00    -0.008 A 
ATOM     21  C   UNL     1       7.745 -12.791  28.877  0.00  0.00    -0.026 A 
ATOM     22  C   UNL     1       5.743 -13.108  30.194  0.00  0.00    +0.009 A 
ATOM     26  C   UNL     1       7.442 -13.936  28.141  0.00  0.00    +0.005 A 
ATOM     27  C   UNL     1       5.440 -14.253  29.457  0.00  0.00    +0.001 A 
ATOM     28  C   UNL     1       6.289 -14.667  28.431  0.00  0.00    +0.000 A 
BRANCH  21  25
ATOM     25  C   UNL     1       8.987 -12.033  28.538  0.00  0.00    +0.119 C 
BRANCH  25   6
ATOM      6  N   UNL     1      10.129 -12.916  28.301  0.00  0.00    -0.304 NA
ATOM     29  C   UNL     1      10.621 -13.466  29.564  0.00  0.00    +0.104 C 
ATOM     30  C   UNL     1      11.195 -12.196  27.607  0.00  0.00    +0.104 C 
ENDBRANCH  25   6
ENDBRANCH  21  25
ENDBRANCH  17  19
BRANCH   5  20
ATOM     20  C   UNL     1       3.866 -10.547  35.480  0.00  0.00    +0.068 C 
ATOM     23  C   UNL     1       2.522  -9.833  35.546  0.00  0.00    +0.027 C 
ATOM     24  C   UNL     1       3.830 -11.703  34.488  0.00  0.00    +0.027 C 
ENDBRANCH   5  20
TORSDOF 4
ENDMDL
