MODEL 1
REMARK VINA RESULT:      -5.9      0.000      0.000
REMARK  Name = 75537144
REMARK  8 active torsions:
REMARK  status: ('A' for Active; 'I' for Inactive)
REMARK    1  A    between atoms: S_1  and  C_23
REMARK    2  A    between atoms: S_1  and  C_25
REMARK    3  A    between atoms: O_3  and  C_18
REMARK    4  A    between atoms: O_3  and  C_24
REMARK    5  A    between atoms: N_7  and  C_15
REMARK    6  A    between atoms: N_8  and  C_16
REMARK    7  A    between atoms: C_15  and  C_17
REMARK    8  A    between atoms: C_16  and  C_18
REMARK                            x       y       z     vdW  Elec       q    Type
REMARK                         _______ _______ _______ _____ _____    ______ ____
ROOT
ATOM      2  O   UNL     1      24.670   6.319  20.668  0.00  0.00    -0.252 OA
ATOM      6  N   UNL     1      22.327   6.322  20.504  0.00  0.00    -0.278 N 
ATOM      7  N   UNL     1      19.670   7.164  20.882  0.00  0.00    -0.295 NA
ATOM      8  N   UNL     1      23.360   4.374  20.929  0.00  0.00    -0.281 N 
ATOM      9  C   UNL     1      21.267   5.335  20.481  0.00  0.00    +0.109 C 
ATOM     10  C   UNL     1      20.078   5.812  21.315  0.00  0.00    +0.109 C 
ATOM     11  C   UNL     1      21.943   4.065  20.995  0.00  0.00    +0.133 C 
ATOM     12  C   UNL     1      22.009   7.710  20.240  0.00  0.00    +0.125 C 
ATOM     13  C   UNL     1      20.778   8.127  21.048  0.00  0.00    +0.104 C 
ATOM     14  C   UNL     1      23.589   5.744  20.692  0.00  0.00    +0.305 C 
ENDROOT
BRANCH   7  15
ATOM     15  C   UNL     1      18.494   7.606  21.633  0.00  0.00    +0.119 C 
BRANCH  15  17
ATOM     17  C   UNL     1      17.259   7.634  20.773  0.00  0.00    -0.033 A 
ATOM     19  C   UNL     1      16.466   8.781  20.729  0.00  0.00    +0.007 A 
ATOM     20  C   UNL     1      16.907   6.513  20.021  0.00  0.00    +0.007 A 
ATOM     21  C   UNL     1      15.321   8.807  19.932  0.00  0.00    +0.027 A 
ATOM     22  C   UNL     1      15.763   6.540  19.224  0.00  0.00    +0.027 A 
ATOM     23  C   UNL     1      14.970   7.686  19.180  0.00  0.00    +0.088 A 
BRANCH  23   1
ATOM      1  S   UNL     1      13.538   7.721  18.179  0.00  0.00    -0.006 S 
ATOM      4  O   UNL     1      13.918   7.429  16.803  0.00  0.00    -0.170 OA
ATOM      5  O   UNL     1      12.515   6.919  18.833  0.00  0.00    -0.170 OA
ATOM     25  C   UNL     1      13.011   9.420  18.221  0.00  0.00    +0.200 C 
ENDBRANCH  23   1
ENDBRANCH  15  17
ENDBRANCH   7  15
BRANCH   8  16
ATOM     16  C   UNL     1      24.374   3.388  21.231  0.00  0.00    +0.137 C 
BRANCH  16  18
ATOM     18  C   UNL     1      23.967   2.004  20.757  0.00  0.00    +0.178 C 
BRANCH  18   3
ATOM      3  O   UNL     1      24.118   1.077  21.825  0.00  0.00    -0.381 OA
ATOM     24  C   UNL     1      24.818   1.651  22.919  0.00  0.00    +0.194 C 
ENDBRANCH  18   3
ENDBRANCH  16  18
ENDBRANCH   8  16
TORSDOF 6
ENDMDL
MODEL 2
REMARK VINA RESULT:      -5.7     29.002     31.181
REMARK  Name = 75537144
REMARK  8 active torsions:
REMARK  status: ('A' for Active; 'I' for Inactive)
REMARK    1  A    between atoms: S_1  and  C_23
REMARK    2  A    between atoms: S_1  and  C_25
REMARK    3  A    between atoms: O_3  and  C_18
REMARK    4  A    between atoms: O_3  and  C_24
REMARK    5  A    between atoms: N_7  and  C_15
REMARK    6  A    between atoms: N_8  and  C_16
REMARK    7  A    between atoms: C_15  and  C_17
REMARK    8  A    between atoms: C_16  and  C_18
REMARK                            x       y       z     vdW  Elec       q    Type
REMARK                         _______ _______ _______ _____ _____    ______ ____
ROOT
ATOM      2  O   UNL     1      -4.677 -10.409  18.017  0.00  0.00    -0.252 OA
ATOM      6  N   UNL     1      -4.362 -10.832  15.727  0.00  0.00    -0.278 N 
ATOM      7  N   UNL     1      -3.107 -10.854  13.210  0.00  0.00    -0.295 NA
ATOM      8  N   UNL     1      -6.364 -10.069  16.402  0.00  0.00    -0.281 N 
ATOM      9  C   UNL     1      -5.182 -10.857  14.534  0.00  0.00    +0.109 C 
ATOM     10  C   UNL     1      -4.434 -10.223  13.361  0.00  0.00    +0.109 C 
ATOM     11  C   UNL     1      -6.455 -10.125  14.954  0.00  0.00    +0.133 C 
ATOM     12  C   UNL     1      -2.990 -11.291  15.655  0.00  0.00    +0.125 C 
ATOM     13  C   UNL     1      -2.299 -10.680  14.434  0.00  0.00    +0.104 C 
ATOM     14  C   UNL     1      -5.083 -10.438  16.862  0.00  0.00    +0.305 C 
ENDROOT
BRANCH   7  15
ATOM     15  C   UNL     1      -2.407 -10.297  12.053  0.00  0.00    +0.119 C 
BRANCH  15  17
ATOM     17  C   UNL     1      -3.210 -10.443  10.788  0.00  0.00    -0.033 A 
ATOM     19  C   UNL     1      -3.520  -9.319  10.024  0.00  0.00    +0.007 A 
ATOM     20  C   UNL     1      -3.645 -11.705  10.381  0.00  0.00    +0.007 A 
ATOM     21  C   UNL     1      -4.264  -9.455   8.852  0.00  0.00    +0.027 A 
ATOM     22  C   UNL     1      -4.389 -11.842   9.209  0.00  0.00    +0.027 A 
ATOM     23  C   UNL     1      -4.699 -10.717   8.445  0.00  0.00    +0.088 A 
BRANCH  23   1
ATOM      1  S   UNL     1      -5.628 -10.887   6.976  0.00  0.00    -0.006 S 
ATOM      4  O   UNL     1      -6.695 -11.853   7.202  0.00  0.00    -0.170 OA
ATOM      5  O   UNL     1      -5.951  -9.552   6.493  0.00  0.00    -0.170 OA
ATOM     25  C   UNL     1      -4.496 -11.628   5.821  0.00  0.00    +0.200 C 
ENDBRANCH  23   1
ENDBRANCH  15  17
ENDBRANCH   7  15
BRANCH   8  16
ATOM     16  C   UNL     1      -7.435  -9.542  17.218  0.00  0.00    +0.137 C 
BRANCH  16  18
ATOM     18  C   UNL     1      -8.247 -10.653  17.859  0.00  0.00    +0.178 C 
BRANCH  18   3
ATOM      3  O   UNL     1      -7.826 -10.829  19.205  0.00  0.00    -0.381 OA
ATOM     24  C   UNL     1      -7.411 -12.165  19.452  0.00  0.00    +0.194 C 
ENDBRANCH  18   3
ENDBRANCH  16  18
ENDBRANCH   8  16
TORSDOF 6
ENDMDL
MODEL 3
REMARK VINA RESULT:      -5.5     29.376     32.799
REMARK  Name = 75537144
REMARK  8 active torsions:
REMARK  status: ('A' for Active; 'I' for Inactive)
REMARK    1  A    between atoms: S_1  and  C_23
REMARK    2  A    between atoms: S_1  and  C_25
REMARK    3  A    between atoms: O_3  and  C_18
REMARK    4  A    between atoms: O_3  and  C_24
REMARK    5  A    between atoms: N_7  and  C_15
REMARK    6  A    between atoms: N_8  and  C_16
REMARK    7  A    between atoms: C_15  and  C_17
REMARK    8  A    between atoms: C_16  and  C_18
REMARK                            x       y       z     vdW  Elec       q    Type
REMARK                         _______ _______ _______ _____ _____    ______ ____
ROOT
ATOM      2  O   UNL     1      -7.522 -11.113  19.661  0.00  0.00    -0.252 OA
ATOM      6  N   UNL     1      -8.480  -9.859  17.920  0.00  0.00    -0.278 N 
ATOM      7  N   UNL     1     -10.332  -9.099  15.945  0.00  0.00    -0.295 NA
ATOM      8  N   UNL     1      -6.279 -10.295  17.829  0.00  0.00    -0.281 N 
ATOM      9  C   UNL     1      -8.011  -9.124  16.764  0.00  0.00    +0.109 C 
ATOM     10  C   UNL     1      -8.931  -9.372  15.568  0.00  0.00    +0.109 C 
ATOM     11  C   UNL     1      -6.576  -9.612  16.582  0.00  0.00    +0.133 C 
ATOM     12  C   UNL     1      -9.878  -9.781  18.292  0.00  0.00    +0.125 C 
ATOM     13  C   UNL     1     -10.759  -9.974  17.055  0.00  0.00    +0.104 C 
ATOM     14  C   UNL     1      -7.438 -10.496  18.606  0.00  0.00    +0.305 C 
ENDROOT
BRANCH   7  15
ATOM     15  C   UNL     1     -11.213  -9.275  14.789  0.00  0.00    +0.119 C 
BRANCH  15  17
ATOM     17  C   UNL     1     -11.688  -7.956  14.241  0.00  0.00    -0.033 A 
ATOM     19  C   UNL     1     -12.241  -7.891  12.962  0.00  0.00    +0.007 A 
ATOM     20  C   UNL     1     -11.574  -6.799  15.012  0.00  0.00    +0.007 A 
ATOM     21  C   UNL     1     -12.681  -6.668  12.454  0.00  0.00    +0.027 A 
ATOM     22  C   UNL     1     -12.014  -5.577  14.504  0.00  0.00    +0.027 A 
ATOM     23  C   UNL     1     -12.567  -5.511  13.225  0.00  0.00    +0.088 A 
BRANCH  23   1
ATOM      1  S   UNL     1     -13.121  -3.982  12.590  0.00  0.00    -0.006 S 
ATOM      4  O   UNL     1     -14.300  -3.562  13.335  0.00  0.00    -0.170 OA
ATOM      5  O   UNL     1     -11.972  -3.094  12.494  0.00  0.00    -0.170 OA
ATOM     25  C   UNL     1     -13.661  -4.359  10.937  0.00  0.00    +0.200 C 
ENDBRANCH  23   1
ENDBRANCH  15  17
ENDBRANCH   7  15
BRANCH   8  16
ATOM     16  C   UNL     1      -4.965 -10.823  18.120  0.00  0.00    +0.137 C 
BRANCH  16  18
ATOM     18  C   UNL     1      -4.304 -11.395  16.878  0.00  0.00    +0.178 C 
BRANCH  18   3
ATOM      3  O   UNL     1      -3.135 -10.645  16.578  0.00  0.00    -0.381 OA
ATOM     24  C   UNL     1      -2.476 -11.146  15.424  0.00  0.00    +0.194 C 
ENDBRANCH  18   3
ENDBRANCH  16  18
ENDBRANCH   8  16
TORSDOF 6
ENDMDL
MODEL 4
REMARK VINA RESULT:      -5.5     14.718     17.058
REMARK  Name = 75537144
REMARK  8 active torsions:
REMARK  status: ('A' for Active; 'I' for Inactive)
REMARK    1  A    between atoms: S_1  and  C_23
REMARK    2  A    between atoms: S_1  and  C_25
REMARK    3  A    between atoms: O_3  and  C_18
REMARK    4  A    between atoms: O_3  and  C_24
REMARK    5  A    between atoms: N_7  and  C_15
REMARK    6  A    between atoms: N_8  and  C_16
REMARK    7  A    between atoms: C_15  and  C_17
REMARK    8  A    between atoms: C_16  and  C_18
REMARK                            x       y       z     vdW  Elec       q    Type
REMARK                         _______ _______ _______ _____ _____    ______ ____
ROOT
ATOM      2  O   UNL     1       9.586   9.082   7.914  0.00  0.00    -0.252 OA
ATOM      6  N   UNL     1      11.810   8.852   7.190  0.00  0.00    -0.278 N 
ATOM      7  N   UNL     1      14.172   9.383   5.759  0.00  0.00    -0.295 NA
ATOM      8  N   UNL     1      10.563   6.996   7.399  0.00  0.00    -0.281 N 
ATOM      9  C   UNL     1      12.729   7.765   6.925  0.00  0.00    +0.109 C 
ATOM     10  C   UNL     1      13.540   8.051   5.661  0.00  0.00    +0.109 C 
ATOM     11  C   UNL     1      11.824   6.538   6.844  0.00  0.00    +0.133 C 
ATOM     12  C   UNL     1      12.297  10.216   7.162  0.00  0.00    +0.125 C 
ATOM     13  C   UNL     1      13.152  10.440   5.913  0.00  0.00    +0.104 C 
ATOM     14  C   UNL     1      10.535   8.397   7.552  0.00  0.00    +0.305 C 
ENDROOT
BRANCH   7  15
ATOM     15  C   UNL     1      15.000   9.640   4.580  0.00  0.00    +0.119 C 
BRANCH  15  17
ATOM     17  C   UNL     1      16.416   9.169   4.776  0.00  0.00    -0.033 A 
ATOM     19  C   UNL     1      17.075   8.494   3.749  0.00  0.00    +0.007 A 
ATOM     20  C   UNL     1      17.068   9.408   5.985  0.00  0.00    +0.007 A 
ATOM     21  C   UNL     1      18.388   8.058   3.930  0.00  0.00    +0.027 A 
ATOM     22  C   UNL     1      18.381   8.971   6.167  0.00  0.00    +0.027 A 
ATOM     23  C   UNL     1      19.040   8.296   5.140  0.00  0.00    +0.088 A 
BRANCH  23   1
ATOM      1  S   UNL     1      20.684   7.753   5.366  0.00  0.00    -0.006 S 
ATOM      4  O   UNL     1      20.975   7.711   6.793  0.00  0.00    -0.170 OA
ATOM      5  O   UNL     1      20.877   6.560   4.554  0.00  0.00    -0.170 OA
ATOM     25  C   UNL     1      21.679   9.054   4.672  0.00  0.00    +0.200 C 
ENDBRANCH  23   1
ENDBRANCH  15  17
ENDBRANCH   7  15
BRANCH   8  16
ATOM     16  C   UNL     1       9.447   6.101   7.608  0.00  0.00    +0.137 C 
BRANCH  16  18
ATOM     18  C   UNL     1       9.908   4.728   8.062  0.00  0.00    +0.178 C 
BRANCH  18   3
ATOM      3  O   UNL     1      10.171   4.756   9.458  0.00  0.00    -0.381 OA
ATOM     24  C   UNL     1       8.976   4.628  10.216  0.00  0.00    +0.194 C 
ENDBRANCH  18   3
ENDBRANCH  16  18
ENDBRANCH   8  16
TORSDOF 6
ENDMDL
MODEL 5
REMARK VINA RESULT:      -5.4     28.672     30.533
REMARK  Name = 75537144
REMARK  8 active torsions:
REMARK  status: ('A' for Active; 'I' for Inactive)
REMARK    1  A    between atoms: S_1  and  C_23
REMARK    2  A    between atoms: S_1  and  C_25
REMARK    3  A    between atoms: O_3  and  C_18
REMARK    4  A    between atoms: O_3  and  C_24
REMARK    5  A    between atoms: N_7  and  C_15
REMARK    6  A    between atoms: N_8  and  C_16
REMARK    7  A    between atoms: C_15  and  C_17
REMARK    8  A    between atoms: C_16  and  C_18
REMARK                            x       y       z     vdW  Elec       q    Type
REMARK                         _______ _______ _______ _____ _____    ______ ____
ROOT
ATOM      2  O   UNL     1      -4.434 -12.935  10.656  0.00  0.00    -0.252 OA
ATOM      6  N   UNL     1      -2.916 -12.039  12.209  0.00  0.00    -0.278 N 
ATOM      7  N   UNL     1      -1.807 -11.357  14.703  0.00  0.00    -0.295 NA
ATOM      8  N   UNL     1      -3.457 -10.801  10.416  0.00  0.00    -0.281 N 
ATOM      9  C   UNL     1      -2.065 -10.871  12.304  0.00  0.00    +0.109 C 
ATOM     10  C   UNL     1      -2.106 -10.297  13.720  0.00  0.00    +0.109 C 
ATOM     11  C   UNL     1      -2.603  -9.942  11.217  0.00  0.00    +0.133 C 
ATOM     12  C   UNL     1      -2.809 -13.077  13.214  0.00  0.00    +0.125 C 
ATOM     13  C   UNL     1      -2.793 -12.453  14.611  0.00  0.00    +0.104 C 
ATOM     14  C   UNL     1      -3.692 -12.041  11.043  0.00  0.00    +0.305 C 
ENDROOT
BRANCH   7  15
ATOM     15  C   UNL     1      -1.784 -10.804  16.057  0.00  0.00    +0.119 C 
BRANCH  15  17
ATOM     17  C   UNL     1      -3.135 -10.882  16.717  0.00  0.00    -0.033 A 
ATOM     19  C   UNL     1      -4.243 -10.290  16.112  0.00  0.00    +0.007 A 
ATOM     20  C   UNL     1      -3.278 -11.547  17.935  0.00  0.00    +0.007 A 
ATOM     21  C   UNL     1      -5.494 -10.363  16.724  0.00  0.00    +0.027 A 
ATOM     22  C   UNL     1      -4.529 -11.620  18.547  0.00  0.00    +0.027 A 
ATOM     23  C   UNL     1      -5.637 -11.028  17.942  0.00  0.00    +0.088 A 
BRANCH  23   1
ATOM      1  S   UNL     1      -7.205 -11.122  18.705  0.00  0.00    -0.006 S 
ATOM      4  O   UNL     1      -7.787 -12.428  18.428  0.00  0.00    -0.170 OA
ATOM      5  O   UNL     1      -7.060 -10.672  20.082  0.00  0.00    -0.170 OA
ATOM     25  C   UNL     1      -8.191  -9.921  17.839  0.00  0.00    +0.200 C 
ENDBRANCH  23   1
ENDBRANCH  15  17
ENDBRANCH   7  15
BRANCH   8  16
ATOM     16  C   UNL     1      -4.089 -10.335   9.202  0.00  0.00    +0.137 C 
BRANCH  16  18
ATOM     18  C   UNL     1      -4.318  -8.834   9.231  0.00  0.00    +0.178 C 
BRANCH  18   3
ATOM      3  O   UNL     1      -5.705  -8.565   9.068  0.00  0.00    -0.381 OA
ATOM     24  C   UNL     1      -6.427  -8.806  10.267  0.00  0.00    +0.194 C 
ENDBRANCH  18   3
ENDBRANCH  16  18
ENDBRANCH   8  16
TORSDOF 6
ENDMDL
MODEL 6
REMARK VINA RESULT:      -5.4     28.768     32.947
REMARK  Name = 75537144
REMARK  8 active torsions:
REMARK  status: ('A' for Active; 'I' for Inactive)
REMARK    1  A    between atoms: S_1  and  C_23
REMARK    2  A    between atoms: S_1  and  C_25
REMARK    3  A    between atoms: O_3  and  C_18
REMARK    4  A    between atoms: O_3  and  C_24
REMARK    5  A    between atoms: N_7  and  C_15
REMARK    6  A    between atoms: N_8  and  C_16
REMARK    7  A    between atoms: C_15  and  C_17
REMARK    8  A    between atoms: C_16  and  C_18
REMARK                            x       y       z     vdW  Elec       q    Type
REMARK                         _______ _______ _______ _____ _____    ______ ____
ROOT
ATOM      2  O   UNL     1     -13.092  -8.829  17.236  0.00  0.00    -0.252 OA
ATOM      6  N   UNL     1     -10.827  -9.368  16.926  0.00  0.00    -0.278 N 
ATOM      7  N   UNL     1      -8.250 -10.323  17.525  0.00  0.00    -0.295 NA
ATOM      8  N   UNL     1     -11.557  -7.379  16.182  0.00  0.00    -0.281 N 
ATOM      9  C   UNL     1      -9.689  -8.797  16.236  0.00  0.00    +0.109 C 
ATOM     10  C   UNL     1      -8.430  -8.922  17.095  0.00  0.00    +0.109 C 
ATOM     11  C   UNL     1     -10.126  -7.364  15.941  0.00  0.00    +0.133 C 
ATOM     12  C   UNL     1     -10.709 -10.684  17.519  0.00  0.00    +0.125 C 
ATOM     13  C   UNL     1      -9.408 -10.783  18.318  0.00  0.00    +0.104 C 
ATOM     14  C   UNL     1     -11.968  -8.562  16.829  0.00  0.00    +0.305 C 
ENDROOT
BRANCH   7  15
ATOM     15  C   UNL     1      -7.015 -10.463  18.297  0.00  0.00    +0.119 C 
BRANCH  15  17
ATOM     17  C   UNL     1      -5.811 -10.609  17.406  0.00  0.00    -0.033 A 
ATOM     19  C   UNL     1      -5.938 -10.438  16.028  0.00  0.00    +0.007 A 
ATOM     20  C   UNL     1      -4.567 -10.915  17.959  0.00  0.00    +0.007 A 
ATOM     21  C   UNL     1      -4.821 -10.573  15.202  0.00  0.00    +0.027 A 
ATOM     22  C   UNL     1      -3.451 -11.050  17.134  0.00  0.00    +0.027 A 
ATOM     23  C   UNL     1      -3.578 -10.879  15.756  0.00  0.00    +0.088 A 
BRANCH  23   1
ATOM      1  S   UNL     1      -2.180 -11.044  14.722  0.00  0.00    -0.006 S 
ATOM      4  O   UNL     1      -1.892 -12.461  14.542  0.00  0.00    -0.170 OA
ATOM      5  O   UNL     1      -2.382 -10.195  13.557  0.00  0.00    -0.170 OA
ATOM     25  C   UNL     1      -0.843 -10.360  15.673  0.00  0.00    +0.200 C 
ENDBRANCH  23   1
ENDBRANCH  15  17
ENDBRANCH   7  15
BRANCH   8  16
ATOM     16  C   UNL     1     -12.393  -6.230  15.912  0.00  0.00    +0.137 C 
BRANCH  16  18
ATOM     18  C   UNL     1     -12.035  -5.577  14.589  0.00  0.00    +0.178 C 
BRANCH  18   3
ATOM      3  O   UNL     1     -13.203  -5.467  13.787  0.00  0.00    -0.381 OA
ATOM     24  C   UNL     1     -13.206  -4.263  13.032  0.00  0.00    +0.194 C 
ENDBRANCH  18   3
ENDBRANCH  16  18
ENDBRANCH   8  16
TORSDOF 6
ENDMDL
MODEL 7
REMARK VINA RESULT:      -5.3      3.148      4.746
REMARK  Name = 75537144
REMARK  8 active torsions:
REMARK  status: ('A' for Active; 'I' for Inactive)
REMARK    1  A    between atoms: S_1  and  C_23
REMARK    2  A    between atoms: S_1  and  C_25
REMARK    3  A    between atoms: O_3  and  C_18
REMARK    4  A    between atoms: O_3  and  C_24
REMARK    5  A    between atoms: N_7  and  C_15
REMARK    6  A    between atoms: N_8  and  C_16
REMARK    7  A    between atoms: C_15  and  C_17
REMARK    8  A    between atoms: C_16  and  C_18
REMARK                            x       y       z     vdW  Elec       q    Type
REMARK                         _______ _______ _______ _____ _____    ______ ____
ROOT
ATOM      2  O   UNL     1      22.337   7.168  22.225  0.00  0.00    -0.252 OA
ATOM      6  N   UNL     1      20.046   6.993  21.737  0.00  0.00    -0.278 N 
ATOM      7  N   UNL     1      17.706   6.323  20.327  0.00  0.00    -0.295 NA
ATOM      8  N   UNL     1      20.820   8.950  22.521  0.00  0.00    -0.281 N 
ATOM      9  C   UNL     1      18.861   7.808  21.914  0.00  0.00    +0.109 C 
ATOM     10  C   UNL     1      17.975   7.734  20.671  0.00  0.00    +0.109 C 
ATOM     11  C   UNL     1      19.420   9.195  22.223  0.00  0.00    +0.133 C 
ATOM     12  C   UNL     1      19.906   5.634  21.257  0.00  0.00    +0.125 C 
ATOM     13  C   UNL     1      18.963   5.599  20.052  0.00  0.00    +0.104 C 
ATOM     14  C   UNL     1      21.209   7.641  22.172  0.00  0.00    +0.305 C 
ENDROOT
BRANCH   7  15
ATOM     15  C   UNL     1      16.808   6.242  19.175  0.00  0.00    +0.119 C 
BRANCH  15  17
ATOM     17  C   UNL     1      15.431   6.756  19.500  0.00  0.00    -0.033 A 
ATOM     19  C   UNL     1      14.834   6.430  20.718  0.00  0.00    +0.007 A 
ATOM     20  C   UNL     1      14.752   7.558  18.582  0.00  0.00    +0.007 A 
ATOM     21  C   UNL     1      13.558   6.907  21.019  0.00  0.00    +0.027 A 
ATOM     22  C   UNL     1      13.476   8.034  18.883  0.00  0.00    +0.027 A 
ATOM     23  C   UNL     1      12.879   7.709  20.101  0.00  0.00    +0.088 A 
BRANCH  23   1
ATOM      1  S   UNL     1      11.283   8.308  20.481  0.00  0.00    -0.006 S 
ATOM      4  O   UNL     1      10.548   8.508  19.239  0.00  0.00    -0.170 OA
ATOM      5  O   UNL     1      10.723   7.462  21.524  0.00  0.00    -0.170 OA
ATOM     25  C   UNL     1      11.570   9.919  21.178  0.00  0.00    +0.200 C 
ENDBRANCH  23   1
ENDBRANCH  15  17
ENDBRANCH   7  15
BRANCH   8  16
ATOM     16  C   UNL     1      21.702  10.002  22.974  0.00  0.00    +0.137 C 
BRANCH  16  18
ATOM     18  C   UNL     1      21.853  11.095  21.932  0.00  0.00    +0.178 C 
BRANCH  18   3
ATOM      3  O   UNL     1      23.153  11.028  21.362  0.00  0.00    -0.381 OA
ATOM     24  C   UNL     1      24.072  10.384  22.234  0.00  0.00    +0.194 C 
ENDBRANCH  18   3
ENDBRANCH  16  18
ENDBRANCH   8  16
TORSDOF 6
ENDMDL
MODEL 8
REMARK VINA RESULT:      -5.3     31.000     33.415
REMARK  Name = 75537144
REMARK  8 active torsions:
REMARK  status: ('A' for Active; 'I' for Inactive)
REMARK    1  A    between atoms: S_1  and  C_23
REMARK    2  A    between atoms: S_1  and  C_25
REMARK    3  A    between atoms: O_3  and  C_18
REMARK    4  A    between atoms: O_3  and  C_24
REMARK    5  A    between atoms: N_7  and  C_15
REMARK    6  A    between atoms: N_8  and  C_16
REMARK    7  A    between atoms: C_15  and  C_17
REMARK    8  A    between atoms: C_16  and  C_18
REMARK                            x       y       z     vdW  Elec       q    Type
REMARK                         _______ _______ _______ _____ _____    ______ ____
ROOT
ATOM      2  O   UNL     1     -12.342   7.358  13.736  0.00  0.00    -0.252 OA
ATOM      6  N   UNL     1     -12.028   8.739  15.611  0.00  0.00    -0.278 N 
ATOM      7  N   UNL     1     -11.072   9.585  18.117  0.00  0.00    -0.295 NA
ATOM      8  N   UNL     1     -14.108   8.512  14.794  0.00  0.00    -0.281 N 
ATOM      9  C   UNL     1     -12.829   9.656  16.395  0.00  0.00    +0.109 C 
ATOM     10  C   UNL     1     -12.526   9.486  17.884  0.00  0.00    +0.109 C 
ATOM     11  C   UNL     1     -14.263   9.323  15.988  0.00  0.00    +0.133 C 
ATOM     12  C   UNL     1     -10.605   8.647  15.863  0.00  0.00    +0.125 C 
ATOM     13  C   UNL     1     -10.346   8.540  17.367  0.00  0.00    +0.104 C 
ATOM     14  C   UNL     1     -12.770   8.112  14.601  0.00  0.00    +0.305 C 
ENDROOT
BRANCH   7  15
ATOM     15  C   UNL     1     -10.777   9.484  19.547  0.00  0.00    +0.119 C 
BRANCH  15  17
ATOM     17  C   UNL     1     -11.746   8.576  20.255  0.00  0.00    -0.033 A 
ATOM     19  C   UNL     1     -12.841   9.115  20.932  0.00  0.00    +0.007 A 
ATOM     20  C   UNL     1     -11.548   7.195  20.236  0.00  0.00    +0.007 A 
ATOM     21  C   UNL     1     -13.738   8.273  21.588  0.00  0.00    +0.027 A 
ATOM     22  C   UNL     1     -12.446   6.353  20.892  0.00  0.00    +0.027 A 
ATOM     23  C   UNL     1     -13.541   6.892  21.569  0.00  0.00    +0.088 A 
BRANCH  23   1
ATOM      1  S   UNL     1     -14.667   5.838  22.388  0.00  0.00    -0.006 S 
ATOM      4  O   UNL     1     -15.536   6.645  23.234  0.00  0.00    -0.170 OA
ATOM      5  O   UNL     1     -15.249   4.946  21.396  0.00  0.00    -0.170 OA
ATOM     25  C   UNL     1     -13.650   4.862  23.473  0.00  0.00    +0.200 C 
ENDBRANCH  23   1
ENDBRANCH  15  17
ENDBRANCH   7  15
BRANCH   8  16
ATOM     16  C   UNL     1     -15.243   8.067  14.017  0.00  0.00    +0.137 C 
BRANCH  16  18
ATOM     18  C   UNL     1     -15.739   6.708  14.478  0.00  0.00    +0.178 C 
BRANCH  18   3
ATOM      3  O   UNL     1     -15.362   5.720  13.528  0.00  0.00    -0.381 OA
ATOM     24  C   UNL     1     -15.334   6.248  12.210  0.00  0.00    +0.194 C 
ENDBRANCH  18   3
ENDBRANCH  16  18
ENDBRANCH   8  16
TORSDOF 6
ENDMDL
MODEL 9
REMARK VINA RESULT:      -5.2     28.757     32.676
REMARK  Name = 75537144
REMARK  8 active torsions:
REMARK  status: ('A' for Active; 'I' for Inactive)
REMARK    1  A    between atoms: S_1  and  C_23
REMARK    2  A    between atoms: S_1  and  C_25
REMARK    3  A    between atoms: O_3  and  C_18
REMARK    4  A    between atoms: O_3  and  C_24
REMARK    5  A    between atoms: N_7  and  C_15
REMARK    6  A    between atoms: N_8  and  C_16
REMARK    7  A    between atoms: C_15  and  C_17
REMARK    8  A    between atoms: C_16  and  C_18
REMARK                            x       y       z     vdW  Elec       q    Type
REMARK                         _______ _______ _______ _____ _____    ______ ____
ROOT
ATOM      2  O   UNL     1      -9.228  -7.425   6.831  0.00  0.00    -0.252 OA
ATOM      6  N   UNL     1      -7.485  -8.712   7.742  0.00  0.00    -0.278 N 
ATOM      7  N   UNL     1      -5.115  -9.311   9.132  0.00  0.00    -0.295 NA
ATOM      8  N   UNL     1      -8.151  -9.157   5.644  0.00  0.00    -0.281 N 
ATOM      9  C   UNL     1      -6.725  -9.883   7.360  0.00  0.00    +0.109 C 
ATOM     10  C   UNL     1      -5.249  -9.697   7.713  0.00  0.00    +0.109 C 
ATOM     11  C   UNL     1      -7.014 -10.032   5.868  0.00  0.00    +0.133 C 
ATOM     12  C   UNL     1      -7.317  -8.159   9.070  0.00  0.00    +0.125 C 
ATOM     13  C   UNL     1      -5.827  -8.046   9.404  0.00  0.00    +0.104 C 
ATOM     14  C   UNL     1      -8.396  -8.321   6.752  0.00  0.00    +0.305 C 
ENDROOT
BRANCH   7  15
ATOM     15  C   UNL     1      -3.703  -9.189   9.496  0.00  0.00    +0.119 C 
BRANCH  15  17
ATOM     17  C   UNL     1      -3.426  -9.750  10.865  0.00  0.00    -0.033 A 
ATOM     19  C   UNL     1      -4.474 -10.244  11.642  0.00  0.00    +0.007 A 
ATOM     20  C   UNL     1      -2.121  -9.776  11.357  0.00  0.00    +0.007 A 
ATOM     21  C   UNL     1      -4.217 -10.764  12.910  0.00  0.00    +0.027 A 
ATOM     22  C   UNL     1      -1.864 -10.295  12.625  0.00  0.00    +0.027 A 
ATOM     23  C   UNL     1      -2.912 -10.789  13.402  0.00  0.00    +0.088 A 
BRANCH  23   1
ATOM      1  S   UNL     1      -2.591 -11.444  14.989  0.00  0.00    -0.006 S 
ATOM      4  O   UNL     1      -3.634 -10.997  15.903  0.00  0.00    -0.170 OA
ATOM      5  O   UNL     1      -2.321 -12.866  14.841  0.00  0.00    -0.170 OA
ATOM     25  C   UNL     1      -1.083 -10.650  15.498  0.00  0.00    +0.200 C 
ENDBRANCH  23   1
ENDBRANCH  15  17
ENDBRANCH   7  15
BRANCH   8  16
ATOM     16  C   UNL     1      -8.820  -9.082   4.364  0.00  0.00    +0.137 C 
BRANCH  16  18
ATOM     18  C   UNL     1      -7.996  -8.314   3.346  0.00  0.00    +0.178 C 
BRANCH  18   3
ATOM      3  O   UNL     1      -7.831  -9.108   2.178  0.00  0.00    -0.381 OA
ATOM     24  C   UNL     1      -8.603 -10.299   2.244  0.00  0.00    +0.194 C 
ENDBRANCH  18   3
ENDBRANCH  16  18
ENDBRANCH   8  16
TORSDOF 6
ENDMDL
MODEL 10
REMARK VINA RESULT:      -5.2     17.304     20.951
REMARK  Name = 75537144
REMARK  8 active torsions:
REMARK  status: ('A' for Active; 'I' for Inactive)
REMARK    1  A    between atoms: S_1  and  C_23
REMARK    2  A    between atoms: S_1  and  C_25
REMARK    3  A    between atoms: O_3  and  C_18
REMARK    4  A    between atoms: O_3  and  C_24
REMARK    5  A    between atoms: N_7  and  C_15
REMARK    6  A    between atoms: N_8  and  C_16
REMARK    7  A    between atoms: C_15  and  C_17
REMARK    8  A    between atoms: C_16  and  C_18
REMARK                            x       y       z     vdW  Elec       q    Type
REMARK                         _______ _______ _______ _____ _____    ______ ____
ROOT
ATOM      2  O   UNL     1       7.839   7.821   4.242  0.00  0.00    -0.252 OA
ATOM      6  N   UNL     1       9.782   6.740   3.481  0.00  0.00    -0.278 N 
ATOM      7  N   UNL     1      11.428   5.128   1.869  0.00  0.00    -0.295 NA
ATOM      8  N   UNL     1       9.342   6.711   5.683  0.00  0.00    -0.281 N 
ATOM      9  C   UNL     1      10.939   6.104   4.075  0.00  0.00    +0.109 C 
ATOM     10  C   UNL     1      11.296   4.830   3.309  0.00  0.00    +0.109 C 
ATOM     11  C   UNL     1      10.526   5.885   5.529  0.00  0.00    +0.133 C 
ATOM     12  C   UNL     1       9.743   6.947   2.048  0.00  0.00    +0.125 C 
ATOM     13  C   UNL     1      10.165   5.666   1.325  0.00  0.00    +0.104 C 
ATOM     14  C   UNL     1       8.861   7.177   4.443  0.00  0.00    +0.305 C 
ENDROOT
BRANCH   7  15
ATOM     15  C   UNL     1      11.829   3.927   1.136  0.00  0.00    +0.119 C 
BRANCH  15  17
ATOM     17  C   UNL     1      13.111   4.137   0.375  0.00  0.00    -0.033 A 
ATOM     19  C   UNL     1      13.078   4.659  -0.918  0.00  0.00    +0.007 A 
ATOM     20  C   UNL     1      14.332   3.807   0.964  0.00  0.00    +0.007 A 
ATOM     21  C   UNL     1      14.266   4.854  -1.622  0.00  0.00    +0.027 A 
ATOM     22  C   UNL     1      15.521   4.002   0.259  0.00  0.00    +0.027 A 
ATOM     23  C   UNL     1      15.488   4.525  -1.033  0.00  0.00    +0.088 A 
BRANCH  23   1
ATOM      1  S   UNL     1      16.975   4.772  -1.915  0.00  0.00    -0.006 S 
ATOM      4  O   UNL     1      17.972   3.826  -1.431  0.00  0.00    -0.170 OA
ATOM      5  O   UNL     1      16.652   4.820  -3.333  0.00  0.00    -0.170 OA
ATOM     25  C   UNL     1      17.517   6.392  -1.422  0.00  0.00    +0.200 C 
ENDBRANCH  23   1
ENDBRANCH  15  17
ENDBRANCH   7  15
BRANCH   8  16
ATOM     16  C   UNL     1       8.684   6.878   6.961  0.00  0.00    +0.137 C 
BRANCH  16  18
ATOM     18  C   UNL     1       9.603   6.517   8.114  0.00  0.00    +0.178 C 
BRANCH  18   3
ATOM      3  O   UNL     1       9.009   5.480   8.884  0.00  0.00    -0.381 OA
ATOM     24  C   UNL     1       9.702   4.250   8.724  0.00  0.00    +0.194 C 
ENDBRANCH  18   3
ENDBRANCH  16  18
ENDBRANCH   8  16
TORSDOF 6
ENDMDL
