MODEL 1
REMARK VINA RESULT:      -7.1      0.000      0.000
REMARK  Name = 26745236
REMARK  5 active torsions:
REMARK  status: ('A' for Active; 'I' for Inactive)
REMARK    1  A    between atoms: N_4  and  C_9
REMARK    2  A    between atoms: N_7  and  C_23
REMARK    3  A    between atoms: C_15  and  C_21
REMARK    4  A    between atoms: C_23  and  C_24
REMARK    5  A    between atoms: C_29  and  C_30
REMARK                            x       y       z     vdW  Elec       q    Type
REMARK                         _______ _______ _______ _____ _____    ______ ____
ROOT
ATOM      1  O   UNL     1       9.810   7.458   2.977  0.00  0.00    -0.253 OA
ATOM      3  N   UNL     1      10.197   6.562   5.095  0.00  0.00    -0.268 N 
ATOM      4  N   UNL     1      11.127   5.582   3.149  0.00  0.00    -0.296 N 
ATOM      5  N   UNL     1      10.492   4.621   8.300  0.00  0.00    -0.347 N 
ATOM      6  N   UNL     1       8.877   5.976   9.035  0.00  0.00    -0.240 NA
ATOM     15  C   UNL     1       9.545   7.727   5.754  0.00  0.00    +0.170 C 
ATOM     16  C   UNL     1       8.624   7.372   6.940  0.00  0.00    +0.089 C 
ATOM     17  C   UNL     1      10.839   5.513   5.942  0.00  0.00    +0.165 C 
ATOM     18  C   UNL     1      10.337   6.595   3.687  0.00  0.00    +0.303 C 
ATOM     19  C   UNL     1      10.209   5.473   7.274  0.00  0.00    +0.056 A 
ATOM     20  C   UNL     1       9.220   6.294   7.752  0.00  0.00    +0.066 A 
ATOM     22  C   UNL     1       9.663   4.963   9.338  0.00  0.00    +0.197 A 
ATOM     31  H   UNL     1      11.669   4.987   3.762  0.00  0.00    +0.151 HD
ATOM     32  H   UNL     1      11.178   3.878   8.300  0.00  0.00    +0.167 HD
ENDROOT
BRANCH   4   9
ATOM      9  C   UNL     1      11.380   5.477   1.729  0.00  0.00    +0.074 C 
ATOM     10  C   UNL     1      12.690   6.178   1.349  0.00  0.00    +0.022 C 
ATOM     11  C   UNL     1      11.383   4.013   1.277  0.00  0.00    +0.022 C 
ATOM     12  C   UNL     1      13.923   5.415   1.832  0.00  0.00    +0.002 C 
ATOM     13  C   UNL     1      12.618   3.253   1.761  0.00  0.00    +0.002 C 
ATOM     14  C   UNL     1      13.908   3.964   1.362  0.00  0.00    +0.000 C 
ENDBRANCH   4   9
BRANCH  15  21
ATOM      2  O   UNL     1      11.775   8.579   5.650  0.00  0.00    -0.274 OA
ATOM      7  N   UNL     1      10.286   9.506   7.181  0.00  0.00    -0.310 N 
ATOM     21  C   UNL     1      10.663   8.641   6.167  0.00  0.00    +0.234 C 
ATOM     33  H   UNL     1       9.330   9.485   7.525  0.00  0.00    +0.149 HD
BRANCH   7  23
ATOM     23  C   UNL     1      11.185  10.471   7.772  0.00  0.00    +0.139 C 
BRANCH  23  24
ATOM     24  C   UNL     1      10.658  11.006   9.072  0.00  0.00    -0.030 A 
ATOM     25  C   UNL     1       9.292  10.943   9.350  0.00  0.00    +0.006 A 
ATOM     26  C   UNL     1      11.534  11.566  10.002  0.00  0.00    +0.006 A 
ATOM     27  C   UNL     1       8.803  11.440  10.557  0.00  0.00    +0.019 A 
ATOM     28  C   UNL     1      11.045  12.063  11.210  0.00  0.00    +0.019 A 
ATOM     29  C   UNL     1       9.679  12.000  11.487  0.00  0.00    +0.052 A 
BRANCH  29  30
ATOM      8  N   UNL     1       8.769  12.923  13.730  0.00  0.00    -0.191 NA
ATOM     30  C   UNL     1       9.177  12.509  12.725  0.00  0.00    +0.099 C 
ENDBRANCH  29  30
ENDBRANCH  23  24
ENDBRANCH   7  23
ENDBRANCH  15  21
TORSDOF 5
ENDMDL
MODEL 2
REMARK VINA RESULT:      -6.8     23.599     26.898
REMARK  Name = 26745236
REMARK  5 active torsions:
REMARK  status: ('A' for Active; 'I' for Inactive)
REMARK    1  A    between atoms: N_4  and  C_9
REMARK    2  A    between atoms: N_7  and  C_23
REMARK    3  A    between atoms: C_15  and  C_21
REMARK    4  A    between atoms: C_23  and  C_24
REMARK    5  A    between atoms: C_29  and  C_30
REMARK                            x       y       z     vdW  Elec       q    Type
REMARK                         _______ _______ _______ _____ _____    ______ ____
ROOT
ATOM      1  O   UNL     1      -2.978 -14.392  14.217  0.00  0.00    -0.253 OA
ATOM      3  N   UNL     1      -3.668 -12.401  13.219  0.00  0.00    -0.268 N 
ATOM      4  N   UNL     1      -5.232 -13.984  14.032  0.00  0.00    -0.296 N 
ATOM      5  N   UNL     1      -5.017  -9.561  11.159  0.00  0.00    -0.347 N 
ATOM      6  N   UNL     1      -2.900  -9.300  10.499  0.00  0.00    -0.240 NA
ATOM     15  C   UNL     1      -2.272 -11.886  13.181  0.00  0.00    +0.170 C 
ATOM     16  C   UNL     1      -1.881 -11.163  11.875  0.00  0.00    +0.089 C 
ATOM     17  C   UNL     1      -4.783 -11.511  12.778  0.00  0.00    +0.165 C 
ATOM     18  C   UNL     1      -3.893 -13.650  13.847  0.00  0.00    +0.303 C 
ATOM     19  C   UNL     1      -4.290 -10.510  11.815  0.00  0.00    +0.056 A 
ATOM     20  C   UNL     1      -2.998 -10.326  11.395  0.00  0.00    +0.066 A 
ATOM     22  C   UNL     1      -4.136  -8.858  10.378  0.00  0.00    +0.197 A 
ATOM     31  H   UNL     1      -5.951 -13.293  13.864  0.00  0.00    +0.151 HD
ATOM     32  H   UNL     1      -6.013  -9.403  11.231  0.00  0.00    +0.167 HD
ENDROOT
BRANCH   4   9
ATOM      9  C   UNL     1      -5.635 -15.220  14.667  0.00  0.00    +0.074 C 
ATOM     10  C   UNL     1      -5.554 -15.107  16.193  0.00  0.00    +0.022 C 
ATOM     11  C   UNL     1      -7.037 -15.639  14.214  0.00  0.00    +0.022 C 
ATOM     12  C   UNL     1      -6.650 -14.215  16.773  0.00  0.00    +0.002 C 
ATOM     13  C   UNL     1      -8.132 -14.745  14.797  0.00  0.00    +0.002 C 
ATOM     14  C   UNL     1      -8.038 -14.657  16.317  0.00  0.00    +0.000 C 
ENDBRANCH   4   9
BRANCH  15  21
ATOM      2  O   UNL     1      -1.569  -9.903  14.316  0.00  0.00    -0.274 OA
ATOM      7  N   UNL     1      -2.684 -11.554  15.519  0.00  0.00    -0.310 N 
ATOM     21  C   UNL     1      -2.133 -10.992  14.380  0.00  0.00    +0.234 C 
ATOM     33  H   UNL     1      -3.145 -12.458  15.457  0.00  0.00    +0.149 HD
BRANCH   7  23
ATOM     23  C   UNL     1      -2.662 -10.907  16.811  0.00  0.00    +0.139 C 
BRANCH  23  24
ATOM     24  C   UNL     1      -4.004 -10.948  17.483  0.00  0.00    -0.030 A 
ATOM     25  C   UNL     1      -5.094 -10.300  16.901  0.00  0.00    +0.006 A 
ATOM     26  C   UNL     1      -4.160 -11.632  18.688  0.00  0.00    +0.006 A 
ATOM     27  C   UNL     1      -6.341 -10.338  17.525  0.00  0.00    +0.019 A 
ATOM     28  C   UNL     1      -5.407 -11.670  19.312  0.00  0.00    +0.019 A 
ATOM     29  C   UNL     1      -6.497 -11.023  18.731  0.00  0.00    +0.052 A 
BRANCH  29  30
ATOM      8  N   UNL     1      -8.813 -11.092  19.888  0.00  0.00    -0.191 NA
ATOM     30  C   UNL     1      -7.775 -11.062  19.369  0.00  0.00    +0.099 C 
ENDBRANCH  29  30
ENDBRANCH  23  24
ENDBRANCH   7  23
ENDBRANCH  15  21
TORSDOF 5
ENDMDL
MODEL 3
REMARK VINA RESULT:      -6.7      1.765      2.189
REMARK  Name = 26745236
REMARK  5 active torsions:
REMARK  status: ('A' for Active; 'I' for Inactive)
REMARK    1  A    between atoms: N_4  and  C_9
REMARK    2  A    between atoms: N_7  and  C_23
REMARK    3  A    between atoms: C_15  and  C_21
REMARK    4  A    between atoms: C_23  and  C_24
REMARK    5  A    between atoms: C_29  and  C_30
REMARK                            x       y       z     vdW  Elec       q    Type
REMARK                         _______ _______ _______ _____ _____    ______ ____
ROOT
ATOM      1  O   UNL     1       9.752   6.271   1.698  0.00  0.00    -0.253 OA
ATOM      3  N   UNL     1      10.290   6.369   3.965  0.00  0.00    -0.268 N 
ATOM      4  N   UNL     1      11.885   5.709   2.342  0.00  0.00    -0.296 N 
ATOM      5  N   UNL     1      11.223   5.900   7.576  0.00  0.00    -0.347 N 
ATOM      6  N   UNL     1       9.035   6.120   7.962  0.00  0.00    -0.240 NA
ATOM     15  C   UNL     1       8.987   7.013   4.291  0.00  0.00    +0.170 C 
ATOM     16  C   UNL     1       8.301   6.485   5.567  0.00  0.00    +0.089 C 
ATOM     17  C   UNL     1      11.302   6.187   5.048  0.00  0.00    +0.165 C 
ATOM     18  C   UNL     1      10.581   6.123   2.601  0.00  0.00    +0.303 C 
ATOM     19  C   UNL     1      10.638   6.110   6.362  0.00  0.00    +0.056 A 
ATOM     20  C   UNL     1       9.300   6.244   6.627  0.00  0.00    +0.066 A 
ATOM     22  C   UNL     1      10.217   5.915   8.507  0.00  0.00    +0.197 A 
ATOM     31  H   UNL     1      12.580   5.747   3.075  0.00  0.00    +0.151 HD
ATOM     32  H   UNL     1      12.208   5.761   7.758  0.00  0.00    +0.167 HD
ENDROOT
BRANCH   4   9
ATOM      9  C   UNL     1      12.349   5.425   1.002  0.00  0.00    +0.074 C 
ATOM     10  C   UNL     1      13.784   5.923   0.799  0.00  0.00    +0.022 C 
ATOM     11  C   UNL     1      12.228   3.932   0.682  0.00  0.00    +0.022 C 
ATOM     12  C   UNL     1      14.809   5.075   1.553  0.00  0.00    +0.002 C 
ATOM     13  C   UNL     1      13.255   3.087   1.436  0.00  0.00    +0.002 C 
ATOM     14  C   UNL     1      14.676   3.594   1.210  0.00  0.00    +0.000 C 
ENDBRANCH   4   9
BRANCH  15  21
ATOM      2  O   UNL     1      10.215   9.000   3.782  0.00  0.00    -0.274 OA
ATOM      7  N   UNL     1       8.372   9.146   5.195  0.00  0.00    -0.310 N 
ATOM     21  C   UNL     1       9.271   8.486   4.375  0.00  0.00    +0.234 C 
ATOM     33  H   UNL     1       7.612   8.625   5.625  0.00  0.00    +0.149 HD
BRANCH   7  23
ATOM     23  C   UNL     1       8.439  10.565   5.462  0.00  0.00    +0.139 C 
BRANCH  23  24
ATOM     24  C   UNL     1       9.245  10.868   6.693  0.00  0.00    -0.030 A 
ATOM     25  C   UNL     1       9.585   9.841   7.573  0.00  0.00    +0.006 A 
ATOM     26  C   UNL     1       9.652  12.176   6.954  0.00  0.00    +0.006 A 
ATOM     27  C   UNL     1      10.333  10.122   8.716  0.00  0.00    +0.019 A 
ATOM     28  C   UNL     1      10.401  12.457   8.098  0.00  0.00    +0.019 A 
ATOM     29  C   UNL     1      10.741  11.430   8.978  0.00  0.00    +0.052 A 
BRANCH  29  30
ATOM      8  N   UNL     1      12.131  11.952  11.100  0.00  0.00    -0.191 NA
ATOM     30  C   UNL     1      11.508  11.718  10.149  0.00  0.00    +0.099 C 
ENDBRANCH  29  30
ENDBRANCH  23  24
ENDBRANCH   7  23
ENDBRANCH  15  21
TORSDOF 5
ENDMDL
MODEL 4
REMARK VINA RESULT:      -6.7      3.110      5.586
REMARK  Name = 26745236
REMARK  5 active torsions:
REMARK  status: ('A' for Active; 'I' for Inactive)
REMARK    1  A    between atoms: N_4  and  C_9
REMARK    2  A    between atoms: N_7  and  C_23
REMARK    3  A    between atoms: C_15  and  C_21
REMARK    4  A    between atoms: C_23  and  C_24
REMARK    5  A    between atoms: C_29  and  C_30
REMARK                            x       y       z     vdW  Elec       q    Type
REMARK                         _______ _______ _______ _____ _____    ______ ____
ROOT
ATOM      1  O   UNL     1       9.681   7.821   3.826  0.00  0.00    -0.253 OA
ATOM      3  N   UNL     1      10.019   6.525   5.735  0.00  0.00    -0.268 N 
ATOM      4  N   UNL     1      10.708   5.778   3.594  0.00  0.00    -0.296 N 
ATOM      5  N   UNL     1      10.158   4.033   8.546  0.00  0.00    -0.347 N 
ATOM      6  N   UNL     1       8.797   5.453   9.603  0.00  0.00    -0.240 NA
ATOM     15  C   UNL     1       9.578   7.637   6.621  0.00  0.00    +0.170 C 
ATOM     16  C   UNL     1       8.666   7.214   7.791  0.00  0.00    +0.089 C 
ATOM     17  C   UNL     1      10.533   5.265   6.350  0.00  0.00    +0.165 C 
ATOM     18  C   UNL     1      10.102   6.782   4.345  0.00  0.00    +0.303 C 
ATOM     19  C   UNL     1       9.962   5.083   7.697  0.00  0.00    +0.056 A 
ATOM     20  C   UNL     1       9.128   5.938   8.370  0.00  0.00    +0.066 A 
ATOM     22  C   UNL     1       9.435   4.302   9.680  0.00  0.00    +0.197 A 
ATOM     31  H   UNL     1      11.181   5.016   4.062  0.00  0.00    +0.151 HD
ATOM     32  H   UNL     1      10.725   3.213   8.376  0.00  0.00    +0.167 HD
ENDROOT
BRANCH   4   9
ATOM      9  C   UNL     1      10.882   5.887   2.162  0.00  0.00    +0.074 C 
ATOM     10  C   UNL     1      12.242   6.504   1.818  0.00  0.00    +0.022 C 
ATOM     11  C   UNL     1      10.700   4.527   1.481  0.00  0.00    +0.022 C 
ATOM     12  C   UNL     1      13.403   5.550   2.090  0.00  0.00    +0.002 C 
ATOM     13  C   UNL     1      11.864   3.575   1.755  0.00  0.00    +0.002 C 
ATOM     14  C   UNL     1      13.205   4.207   1.393  0.00  0.00    +0.000 C 
ENDBRANCH   4   9
BRANCH  15  21
ATOM      2  O   UNL     1      10.848   9.035   8.086  0.00  0.00    -0.274 OA
ATOM      7  N   UNL     1      11.927   7.995   6.305  0.00  0.00    -0.310 N 
ATOM     21  C   UNL     1      10.836   8.299   7.102  0.00  0.00    +0.234 C 
ATOM     33  H   UNL     1      11.810   7.358   5.522  0.00  0.00    +0.149 HD
BRANCH   7  23
ATOM     23  C   UNL     1      13.251   8.524   6.540  0.00  0.00    +0.139 C 
BRANCH  23  24
ATOM     24  C   UNL     1      14.134   8.385   5.333  0.00  0.00    -0.030 A 
ATOM     25  C   UNL     1      13.913   9.185   4.212  0.00  0.00    +0.006 A 
ATOM     26  C   UNL     1      15.174   7.457   5.334  0.00  0.00    +0.006 A 
ATOM     27  C   UNL     1      14.733   9.057   3.091  0.00  0.00    +0.019 A 
ATOM     28  C   UNL     1      15.994   7.328   4.212  0.00  0.00    +0.019 A 
ATOM     29  C   UNL     1      15.773   8.128   3.091  0.00  0.00    +0.052 A 
BRANCH  29  30
ATOM      8  N   UNL     1      17.295   7.890   1.009  0.00  0.00    -0.191 NA
ATOM     30  C   UNL     1      16.613   7.996   1.943  0.00  0.00    +0.099 C 
ENDBRANCH  29  30
ENDBRANCH  23  24
ENDBRANCH   7  23
ENDBRANCH  15  21
TORSDOF 5
ENDMDL
MODEL 5
REMARK VINA RESULT:      -6.6     23.045     26.625
REMARK  Name = 26745236
REMARK  5 active torsions:
REMARK  status: ('A' for Active; 'I' for Inactive)
REMARK    1  A    between atoms: N_4  and  C_9
REMARK    2  A    between atoms: N_7  and  C_23
REMARK    3  A    between atoms: C_15  and  C_21
REMARK    4  A    between atoms: C_23  and  C_24
REMARK    5  A    between atoms: C_29  and  C_30
REMARK                            x       y       z     vdW  Elec       q    Type
REMARK                         _______ _______ _______ _____ _____    ______ ____
ROOT
ATOM      1  O   UNL     1      -2.286 -10.863  13.421  0.00  0.00    -0.253 OA
ATOM      3  N   UNL     1      -4.438 -10.592  14.278  0.00  0.00    -0.268 N 
ATOM      4  N   UNL     1      -3.998 -10.411  11.957  0.00  0.00    -0.296 N 
ATOM      5  N   UNL     1      -7.853  -9.557  15.461  0.00  0.00    -0.347 N 
ATOM      6  N   UNL     1      -6.907  -9.478  17.483  0.00  0.00    -0.240 NA
ATOM     15  C   UNL     1      -4.001 -11.029  15.632  0.00  0.00    +0.170 C 
ATOM     16  C   UNL     1      -4.581 -10.205  16.800  0.00  0.00    +0.089 C 
ATOM     17  C   UNL     1      -5.885 -10.316  14.035  0.00  0.00    +0.165 C 
ATOM     18  C   UNL     1      -3.485 -10.635  13.231  0.00  0.00    +0.303 C 
ATOM     19  C   UNL     1      -6.551  -9.928  15.292  0.00  0.00    +0.056 A 
ATOM     20  C   UNL     1      -5.997  -9.874  16.545  0.00  0.00    +0.066 A 
ATOM     22  C   UNL     1      -8.018  -9.296  16.797  0.00  0.00    +0.197 A 
ATOM     31  H   UNL     1      -4.999 -10.382  11.815  0.00  0.00    +0.151 HD
ATOM     32  H   UNL     1      -8.562  -9.488  14.743  0.00  0.00    +0.167 HD
ENDROOT
BRANCH   4   9
ATOM      9  C   UNL     1      -3.162 -10.430  10.777  0.00  0.00    +0.074 C 
ATOM     10  C   UNL     1      -3.609 -11.524   9.802  0.00  0.00    +0.022 C 
ATOM     11  C   UNL     1      -3.136  -9.057  10.098  0.00  0.00    +0.022 C 
ATOM     12  C   UNL     1      -4.929 -11.186   9.109  0.00  0.00    +0.002 C 
ATOM     13  C   UNL     1      -4.457  -8.722   9.405  0.00  0.00    +0.002 C 
ATOM     14  C   UNL     1      -4.876  -9.820   8.432  0.00  0.00    +0.000 C 
ENDBRANCH   4   9
BRANCH  15  21
ATOM      2  O   UNL     1      -5.367 -12.856  16.345  0.00  0.00    -0.274 OA
ATOM      7  N   UNL     1      -3.460 -13.299  15.086  0.00  0.00    -0.310 N 
ATOM     21  C   UNL     1      -4.371 -12.481  15.732  0.00  0.00    +0.234 C 
ATOM     33  H   UNL     1      -2.677 -12.882  14.591  0.00  0.00    +0.149 HD
BRANCH   7  23
ATOM     23  C   UNL     1      -3.575 -14.740  15.053  0.00  0.00    +0.139 C 
BRANCH  23  24
ATOM     24  C   UNL     1      -2.953 -15.325  13.817  0.00  0.00    -0.030 A 
ATOM     25  C   UNL     1      -2.145 -16.458  13.913  0.00  0.00    +0.006 A 
ATOM     26  C   UNL     1      -3.184 -14.735  12.575  0.00  0.00    +0.006 A 
ATOM     27  C   UNL     1      -1.568 -17.001  12.766  0.00  0.00    +0.019 A 
ATOM     28  C   UNL     1      -2.606 -15.278  11.427  0.00  0.00    +0.019 A 
ATOM     29  C   UNL     1      -1.798 -16.411  11.523  0.00  0.00    +0.052 A 
BRANCH  29  30
ATOM      8  N   UNL     1      -0.727 -17.421   9.392  0.00  0.00    -0.191 NA
ATOM     30  C   UNL     1      -1.207 -16.969  10.347  0.00  0.00    +0.099 C 
ENDBRANCH  29  30
ENDBRANCH  23  24
ENDBRANCH   7  23
ENDBRANCH  15  21
TORSDOF 5
ENDMDL
MODEL 6
REMARK VINA RESULT:      -6.5     23.402     26.700
REMARK  Name = 26745236
REMARK  5 active torsions:
REMARK  status: ('A' for Active; 'I' for Inactive)
REMARK    1  A    between atoms: N_4  and  C_9
REMARK    2  A    between atoms: N_7  and  C_23
REMARK    3  A    between atoms: C_15  and  C_21
REMARK    4  A    between atoms: C_23  and  C_24
REMARK    5  A    between atoms: C_29  and  C_30
REMARK                            x       y       z     vdW  Elec       q    Type
REMARK                         _______ _______ _______ _____ _____    ______ ____
ROOT
ATOM      1  O   UNL     1      -2.674 -11.171  15.999  0.00  0.00    -0.253 OA
ATOM      3  N   UNL     1      -3.650 -12.910  14.790  0.00  0.00    -0.268 N 
ATOM      4  N   UNL     1      -4.962 -11.381  16.037  0.00  0.00    -0.296 N 
ATOM      5  N   UNL     1      -5.396 -15.936  13.405  0.00  0.00    -0.347 N 
ATOM      6  N   UNL     1      -3.337 -16.771  13.177  0.00  0.00    -0.240 NA
ATOM     15  C   UNL     1      -2.347 -13.260  14.159  0.00  0.00    +0.170 C 
ATOM     16  C   UNL     1      -2.059 -14.771  14.056  0.00  0.00    +0.089 C 
ATOM     17  C   UNL     1      -4.883 -13.634  14.361  0.00  0.00    +0.165 C 
ATOM     18  C   UNL     1      -3.688 -11.777  15.639  0.00  0.00    +0.303 C 
ATOM     19  C   UNL     1      -4.539 -14.971  13.844  0.00  0.00    +0.056 A 
ATOM     20  C   UNL     1      -3.286 -15.506  13.691  0.00  0.00    +0.066 A 
ATOM     22  C   UNL     1      -4.625 -17.001  13.014  0.00  0.00    +0.197 A 
ATOM     31  H   UNL     1      -5.777 -11.797  15.604  0.00  0.00    +0.151 HD
ATOM     32  H   UNL     1      -6.405 -15.882  13.372  0.00  0.00    +0.167 HD
ENDROOT
BRANCH   4   9
ATOM      9  C   UNL     1      -5.179 -10.238  16.896  0.00  0.00    +0.074 C 
ATOM     10  C   UNL     1      -6.464  -9.496  16.512  0.00  0.00    +0.022 C 
ATOM     11  C   UNL     1      -5.196 -10.653  18.371  0.00  0.00    +0.022 C 
ATOM     12  C   UNL     1      -7.723 -10.274  16.889  0.00  0.00    +0.002 C 
ATOM     13  C   UNL     1      -6.459 -11.431  18.745  0.00  0.00    +0.002 C 
ATOM     14  C   UNL     1      -7.723 -10.667  18.363  0.00  0.00    +0.000 C 
ENDBRANCH   4   9
BRANCH  15  21
ATOM      2  O   UNL     1      -2.616 -13.219  11.784  0.00  0.00    -0.274 OA
ATOM      7  N   UNL     1      -2.023 -11.256  12.884  0.00  0.00    -0.310 N 
ATOM     21  C   UNL     1      -2.356 -12.598  12.811  0.00  0.00    +0.234 C 
ATOM     33  H   UNL     1      -1.844 -10.834  13.791  0.00  0.00    +0.149 HD
BRANCH   7  23
ATOM     23  C   UNL     1      -1.938 -10.397  11.724  0.00  0.00    +0.139 C 
BRANCH  23  24
ATOM     24  C   UNL     1      -3.293  -9.948  11.257  0.00  0.00    -0.030 A 
ATOM     25  C   UNL     1      -3.451  -9.433   9.971  0.00  0.00    +0.006 A 
ATOM     26  C   UNL     1      -4.391 -10.045  12.111  0.00  0.00    +0.006 A 
ATOM     27  C   UNL     1      -4.709  -9.016   9.537  0.00  0.00    +0.019 A 
ATOM     28  C   UNL     1      -5.650  -9.627  11.677  0.00  0.00    +0.019 A 
ATOM     29  C   UNL     1      -5.808  -9.112  10.390  0.00  0.00    +0.052 A 
BRANCH  29  30
ATOM      8  N   UNL     1      -8.145  -8.339   9.583  0.00  0.00    -0.191 NA
ATOM     30  C   UNL     1      -7.098  -8.685   9.945  0.00  0.00    +0.099 C 
ENDBRANCH  29  30
ENDBRANCH  23  24
ENDBRANCH   7  23
ENDBRANCH  15  21
TORSDOF 5
ENDMDL
MODEL 7
REMARK VINA RESULT:      -6.5      3.380      4.571
REMARK  Name = 26745236
REMARK  5 active torsions:
REMARK  status: ('A' for Active; 'I' for Inactive)
REMARK    1  A    between atoms: N_4  and  C_9
REMARK    2  A    between atoms: N_7  and  C_23
REMARK    3  A    between atoms: C_15  and  C_21
REMARK    4  A    between atoms: C_23  and  C_24
REMARK    5  A    between atoms: C_29  and  C_30
REMARK                            x       y       z     vdW  Elec       q    Type
REMARK                         _______ _______ _______ _____ _____    ______ ____
ROOT
ATOM      1  O   UNL     1       9.632   7.033   2.478  0.00  0.00    -0.253 OA
ATOM      3  N   UNL     1      10.185   6.555   4.693  0.00  0.00    -0.268 N 
ATOM      4  N   UNL     1      11.426   5.656   2.885  0.00  0.00    -0.296 N 
ATOM      5  N   UNL     1      10.913   5.190   8.119  0.00  0.00    -0.347 N 
ATOM      6  N   UNL     1       8.951   6.099   8.678  0.00  0.00    -0.240 NA
ATOM     15  C   UNL     1       9.203   7.552   5.199  0.00  0.00    +0.170 C 
ATOM     16  C   UNL     1       8.381   7.094   6.422  0.00  0.00    +0.089 C 
ATOM     17  C   UNL     1      11.071   5.849   5.665  0.00  0.00    +0.165 C 
ATOM     18  C   UNL     1      10.360   6.454   3.291  0.00  0.00    +0.303 C 
ATOM     19  C   UNL     1      10.433   5.792   6.993  0.00  0.00    +0.056 A 
ATOM     20  C   UNL     1       9.234   6.343   7.364  0.00  0.00    +0.066 A 
ATOM     22  C   UNL     1       9.984   5.402   9.106  0.00  0.00    +0.197 A 
ATOM     31  H   UNL     1      12.094   5.323   3.568  0.00  0.00    +0.151 HD
ATOM     32  H   UNL     1      11.783   4.684   8.212  0.00  0.00    +0.167 HD
ENDROOT
BRANCH   4   9
ATOM      9  C   UNL     1      11.749   5.455   1.490  0.00  0.00    +0.074 C 
ATOM     10  C   UNL     1      13.096   6.096   1.139  0.00  0.00    +0.022 C 
ATOM     11  C   UNL     1      11.731   3.966   1.130  0.00  0.00    +0.022 C 
ATOM     12  C   UNL     1      14.279   5.333   1.732  0.00  0.00    +0.002 C 
ATOM     13  C   UNL     1      12.916   3.206   1.724  0.00  0.00    +0.002 C 
ATOM     14  C   UNL     1      14.246   3.856   1.351  0.00  0.00    +0.000 C 
ENDBRANCH   4   9
BRANCH  15  21
ATOM      2  O   UNL     1       9.825   9.448   6.516  0.00  0.00    -0.274 OA
ATOM      7  N   UNL     1      10.887   9.096   4.475  0.00  0.00    -0.310 N 
ATOM     21  C   UNL     1       9.995   8.794   5.490  0.00  0.00    +0.234 C 
ATOM     33  H   UNL     1      10.961   8.475   3.674  0.00  0.00    +0.149 HD
BRANCH   7  23
ATOM     23  C   UNL     1      11.752  10.254   4.500  0.00  0.00    +0.139 C 
BRANCH  23  24
ATOM     24  C   UNL     1      13.163   9.893   4.869  0.00  0.00    -0.030 A 
ATOM     25  C   UNL     1      13.861   8.950   4.114  0.00  0.00    +0.006 A 
ATOM     26  C   UNL     1      13.773  10.500   5.965  0.00  0.00    +0.006 A 
ATOM     27  C   UNL     1      15.170   8.615   4.456  0.00  0.00    +0.019 A 
ATOM     28  C   UNL     1      15.084  10.165   6.308  0.00  0.00    +0.019 A 
ATOM     29  C   UNL     1      15.782   9.222   5.553  0.00  0.00    +0.052 A 
BRANCH  29  30
ATOM      8  N   UNL     1      18.214   8.599   6.188  0.00  0.00    -0.191 NA
ATOM     30  C   UNL     1      17.124   8.879   5.904  0.00  0.00    +0.099 C 
ENDBRANCH  29  30
ENDBRANCH  23  24
ENDBRANCH   7  23
ENDBRANCH  15  21
TORSDOF 5
ENDMDL
MODEL 8
REMARK VINA RESULT:      -6.5      3.780      9.580
REMARK  Name = 26745236
REMARK  5 active torsions:
REMARK  status: ('A' for Active; 'I' for Inactive)
REMARK    1  A    between atoms: N_4  and  C_9
REMARK    2  A    between atoms: N_7  and  C_23
REMARK    3  A    between atoms: C_15  and  C_21
REMARK    4  A    between atoms: C_23  and  C_24
REMARK    5  A    between atoms: C_29  and  C_30
REMARK                            x       y       z     vdW  Elec       q    Type
REMARK                         _______ _______ _______ _____ _____    ______ ____
ROOT
ATOM      1  O   UNL     1      10.578   7.075   3.582  0.00  0.00    -0.253 OA
ATOM      3  N   UNL     1      12.717   7.319   4.479  0.00  0.00    -0.268 N 
ATOM      4  N   UNL     1      10.971   6.288   5.705  0.00  0.00    -0.296 N 
ATOM      5  N   UNL     1      15.888   8.100   6.339  0.00  0.00    -0.347 N 
ATOM      6  N   UNL     1      16.320   9.465   4.624  0.00  0.00    -0.240 NA
ATOM     15  C   UNL     1      13.257   7.795   3.175  0.00  0.00    +0.170 C 
ATOM     16  C   UNL     1      14.237   8.982   3.271  0.00  0.00    +0.089 C 
ATOM     17  C   UNL     1      13.655   7.112   5.622  0.00  0.00    +0.165 C 
ATOM     18  C   UNL     1      11.362   6.908   4.521  0.00  0.00    +0.303 C 
ATOM     19  C   UNL     1      14.841   7.975   5.475  0.00  0.00    +0.056 A 
ATOM     20  C   UNL     1      15.132   8.819   4.433  0.00  0.00    +0.066 A 
ATOM     22  C   UNL     1      16.753   9.008   5.783  0.00  0.00    +0.197 A 
ATOM     31  H   UNL     1      11.667   6.027   6.390  0.00  0.00    +0.151 HD
ATOM     32  H   UNL     1      16.009   7.618   7.220  0.00  0.00    +0.167 HD
ENDROOT
BRANCH   4   9
ATOM      9  C   UNL     1       9.625   5.801   5.908  0.00  0.00    +0.074 C 
ATOM     10  C   UNL     1       9.631   4.461   6.653  0.00  0.00    +0.022 C 
ATOM     11  C   UNL     1       8.768   6.839   6.640  0.00  0.00    +0.022 C 
ATOM     12  C   UNL     1      10.017   4.612   8.124  0.00  0.00    +0.002 C 
ATOM     13  C   UNL     1       9.156   6.986   8.111  0.00  0.00    +0.002 C 
ATOM     14  C   UNL     1       9.144   5.642   8.833  0.00  0.00    +0.000 C 
ENDBRANCH   4   9
BRANCH  15  21
ATOM      2  O   UNL     1      15.066   6.594   2.177  0.00  0.00    -0.274 OA
ATOM      7  N   UNL     1      12.998   5.546   2.386  0.00  0.00    -0.310 N 
ATOM     21  C   UNL     1      13.891   6.594   2.533  0.00  0.00    +0.234 C 
ATOM     33  H   UNL     1      12.049   5.646   2.733  0.00  0.00    +0.149 HD
BRANCH   7  23
ATOM     23  C   UNL     1      13.353   4.284   1.775  0.00  0.00    +0.139 C 
BRANCH  23  24
ATOM     24  C   UNL     1      12.594   4.043   0.503  0.00  0.00    -0.030 A 
ATOM     25  C   UNL     1      13.124   3.203  -0.477  0.00  0.00    +0.006 A 
ATOM     26  C   UNL     1      11.359   4.659   0.300  0.00  0.00    +0.006 A 
ATOM     27  C   UNL     1      12.419   2.979  -1.659  0.00  0.00    +0.019 A 
ATOM     28  C   UNL     1      10.653   4.435  -0.882  0.00  0.00    +0.019 A 
ATOM     29  C   UNL     1      11.184   3.595  -1.862  0.00  0.00    +0.052 A 
BRANCH  29  30
ATOM      8  N   UNL     1       9.875   3.178  -4.057  0.00  0.00    -0.191 NA
ATOM     30  C   UNL     1      10.461   3.364  -3.073  0.00  0.00    +0.099 C 
ENDBRANCH  29  30
ENDBRANCH  23  24
ENDBRANCH   7  23
ENDBRANCH  15  21
TORSDOF 5
ENDMDL
MODEL 9
REMARK VINA RESULT:      -6.4     21.999     25.104
REMARK  Name = 26745236
REMARK  5 active torsions:
REMARK  status: ('A' for Active; 'I' for Inactive)
REMARK    1  A    between atoms: N_4  and  C_9
REMARK    2  A    between atoms: N_7  and  C_23
REMARK    3  A    between atoms: C_15  and  C_21
REMARK    4  A    between atoms: C_23  and  C_24
REMARK    5  A    between atoms: C_29  and  C_30
REMARK                            x       y       z     vdW  Elec       q    Type
REMARK                         _______ _______ _______ _____ _____    ______ ____
ROOT
ATOM      1  O   UNL     1     -10.244   8.390  16.594  0.00  0.00    -0.253 OA
ATOM      3  N   UNL     1     -12.451   8.270  15.850  0.00  0.00    -0.268 N 
ATOM      4  N   UNL     1     -11.930   8.433  18.155  0.00  0.00    -0.296 N 
ATOM      5  N   UNL     1     -16.023   7.521  14.949  0.00  0.00    -0.347 N 
ATOM      6  N   UNL     1     -15.192   6.967  12.951  0.00  0.00    -0.240 NA
ATOM     15  C   UNL     1     -12.025   8.404  14.429  0.00  0.00    +0.170 C 
ATOM     16  C   UNL     1     -12.762   7.478  13.439  0.00  0.00    +0.089 C 
ATOM     17  C   UNL     1     -13.909   8.239  16.172  0.00  0.00    +0.165 C 
ATOM     18  C   UNL     1     -11.452   8.363  16.850  0.00  0.00    +0.303 C 
ATOM     19  C   UNL     1     -14.678   7.735  15.019  0.00  0.00    +0.056 A 
ATOM     20  C   UNL     1     -14.194   7.391  13.783  0.00  0.00    +0.066 A 
ATOM     22  C   UNL     1     -16.283   7.058  13.684  0.00  0.00    +0.197 A 
ATOM     31  H   UNL     1     -12.918   8.565  18.324  0.00  0.00    +0.151 HD
ATOM     32  H   UNL     1     -16.700   7.672  15.684  0.00  0.00    +0.167 HD
ENDROOT
BRANCH   4   9
ATOM      9  C   UNL     1     -11.044   8.541  19.293  0.00  0.00    +0.074 C 
ATOM     10  C   UNL     1     -10.999   9.978  19.822  0.00  0.00    +0.022 C 
ATOM     11  C   UNL     1     -11.441   7.555  20.396  0.00  0.00    +0.022 C 
ATOM     12  C   UNL     1     -12.291  10.381  20.532  0.00  0.00    +0.002 C 
ATOM     13  C   UNL     1     -12.733   7.961  21.106  0.00  0.00    +0.002 C 
ATOM     14  C   UNL     1     -12.661   9.391  21.633  0.00  0.00    +0.000 C 
ENDBRANCH   4   9
BRANCH  15  21
ATOM      2  O   UNL     1     -13.051  10.226  13.272  0.00  0.00    -0.274 OA
ATOM      7  N   UNL     1     -11.317  10.670  14.760  0.00  0.00    -0.310 N 
ATOM     21  C   UNL     1     -12.208   9.853  14.084  0.00  0.00    +0.234 C 
ATOM     33  H   UNL     1     -10.670  10.259  15.426  0.00  0.00    +0.149 HD
BRANCH   7  23
ATOM     23  C   UNL     1     -11.271  12.105  14.587  0.00  0.00    +0.139 C 
BRANCH  23  24
ATOM     24  C   UNL     1     -10.102  12.719  15.302  0.00  0.00    -0.030 A 
ATOM     25  C   UNL     1      -9.246  13.585  14.622  0.00  0.00    +0.006 A 
ATOM     26  C   UNL     1      -9.874  12.423  16.645  0.00  0.00    +0.006 A 
ATOM     27  C   UNL     1      -8.161  14.156  15.287  0.00  0.00    +0.019 A 
ATOM     28  C   UNL     1      -8.788  12.994  17.310  0.00  0.00    +0.019 A 
ATOM     29  C   UNL     1      -7.931  13.860  16.630  0.00  0.00    +0.052 A 
BRANCH  29  30
ATOM      8  N   UNL     1      -5.916  14.920  17.864  0.00  0.00    -0.191 NA
ATOM     30  C   UNL     1      -6.819  14.446  17.311  0.00  0.00    +0.099 C 
ENDBRANCH  29  30
ENDBRANCH  23  24
ENDBRANCH   7  23
ENDBRANCH  15  21
TORSDOF 5
ENDMDL
MODEL 10
REMARK VINA RESULT:      -6.3     23.323     25.659
REMARK  Name = 26745236
REMARK  5 active torsions:
REMARK  status: ('A' for Active; 'I' for Inactive)
REMARK    1  A    between atoms: N_4  and  C_9
REMARK    2  A    between atoms: N_7  and  C_23
REMARK    3  A    between atoms: C_15  and  C_21
REMARK    4  A    between atoms: C_23  and  C_24
REMARK    5  A    between atoms: C_29  and  C_30
REMARK                            x       y       z     vdW  Elec       q    Type
REMARK                         _______ _______ _______ _____ _____    ______ ____
ROOT
ATOM      1  O   UNL     1      -2.275 -10.470  12.618  0.00  0.00    -0.253 OA
ATOM      3  N   UNL     1      -3.714 -10.958  10.849  0.00  0.00    -0.268 N 
ATOM      4  N   UNL     1      -2.711 -12.675  12.137  0.00  0.00    -0.296 N 
ATOM      5  N   UNL     1      -5.525 -11.995   7.722  0.00  0.00    -0.347 N 
ATOM      6  N   UNL     1      -5.356  -9.843   7.151  0.00  0.00    -0.240 NA
ATOM     15  C   UNL     1      -4.078  -9.523  10.692  0.00  0.00    +0.170 C 
ATOM     16  C   UNL     1      -4.170  -9.030   9.234  0.00  0.00    +0.089 C 
ATOM     17  C   UNL     1      -4.409 -11.979  10.010  0.00  0.00    +0.165 C 
ATOM     18  C   UNL     1      -2.854 -11.307  11.918  0.00  0.00    +0.303 C 
ATOM     19  C   UNL     1      -4.889 -11.372   8.756  0.00  0.00    +0.056 A 
ATOM     20  C   UNL     1      -4.801 -10.056   8.381  0.00  0.00    +0.066 A 
ATOM     22  C   UNL     1      -5.785 -11.033   6.780  0.00  0.00    +0.197 A 
ATOM     31  H   UNL     1      -3.314 -13.328  11.654  0.00  0.00    +0.151 HD
ATOM     32  H   UNL     1      -5.761 -12.977   7.659  0.00  0.00    +0.167 HD
ENDROOT
BRANCH   4   9
ATOM      9  C   UNL     1      -1.877 -13.201  13.195  0.00  0.00    +0.074 C 
ATOM     10  C   UNL     1      -2.514 -12.963  14.569  0.00  0.00    +0.022 C 
ATOM     11  C   UNL     1      -1.576 -14.686  12.972  0.00  0.00    +0.022 C 
ATOM     12  C   UNL     1      -3.733 -13.852  14.810  0.00  0.00    +0.002 C 
ATOM     13  C   UNL     1      -2.797 -15.574  13.215  0.00  0.00    +0.002 C 
ATOM     14  C   UNL     1      -3.407 -15.327  14.592  0.00  0.00    +0.000 C 
ENDBRANCH   4   9
BRANCH  15  21
ATOM      2  O   UNL     1      -6.337  -8.775  10.918  0.00  0.00    -0.274 OA
ATOM      7  N   UNL     1      -5.334  -9.881  12.703  0.00  0.00    -0.310 N 
ATOM     21  C   UNL     1      -5.377  -9.349  11.426  0.00  0.00    +0.234 C 
ATOM     33  H   UNL     1      -4.491 -10.354  13.018  0.00  0.00    +0.149 HD
BRANCH   7  23
ATOM     23  C   UNL     1      -6.447  -9.825  13.623  0.00  0.00    +0.139 C 
BRANCH  23  24
ATOM     24  C   UNL     1      -6.056 -10.257  15.006  0.00  0.00    -0.030 A 
ATOM     25  C   UNL     1      -4.722 -10.185  15.408  0.00  0.00    +0.006 A 
ATOM     26  C   UNL     1      -7.026 -10.730  15.890  0.00  0.00    +0.006 A 
ATOM     27  C   UNL     1      -4.358 -10.585  16.693  0.00  0.00    +0.019 A 
ATOM     28  C   UNL     1      -6.662 -11.131  17.175  0.00  0.00    +0.019 A 
ATOM     29  C   UNL     1      -5.328 -11.059  17.577  0.00  0.00    +0.052 A 
BRANCH  29  30
ATOM      8  N   UNL     1      -4.652 -11.803  19.963  0.00  0.00    -0.191 NA
ATOM     30  C   UNL     1      -4.955 -11.469  18.894  0.00  0.00    +0.099 C 
ENDBRANCH  29  30
ENDBRANCH  23  24
ENDBRANCH   7  23
ENDBRANCH  15  21
TORSDOF 5
ENDMDL
