MODEL 1
REMARK VINA RESULT:      -7.2      0.000      0.000
REMARK  Name = 7155412
REMARK  4 active torsions:
REMARK  status: ('A' for Active; 'I' for Inactive)
REMARK    1  A    between atoms: O_3  and  C_29
REMARK    2  A    between atoms: O_3  and  C_30
REMARK    3  A    between atoms: C_13  and  C_18
REMARK    4  A    between atoms: C_15  and  C_19
REMARK                            x       y       z     vdW  Elec       q    Type
REMARK                         _______ _______ _______ _____ _____    ______ ____
ROOT
ATOM      1  O   UNL     1      13.356  10.384  16.051  0.00  0.00    -0.268 OA
ATOM      2  O   UNL     1      10.588   8.386  19.804  0.00  0.00    -0.270 OA
ATOM      4  N   UNL     1      12.827   8.016  20.369  0.00  0.00    -0.297 N 
ATOM      5  N   UNL     1      14.299   9.508  18.008  0.00  0.00    -0.311 N 
ATOM      6  C   UNL     1      14.177   7.004  18.549  0.00  0.00    +0.027 C 
ATOM      7  C   UNL     1      15.242   8.556  20.134  0.00  0.00    +0.054 C 
ATOM      8  C   UNL     1      15.447   7.263  19.345  0.00  0.00    +0.018 C 
ATOM      9  C   UNL     1      12.969   6.857  19.491  0.00  0.00    +0.113 C 
ATOM     10  C   UNL     1      13.988   8.146  17.550  0.00  0.00    +0.130 C 
ATOM     11  C   UNL     1      14.048   8.387  21.099  0.00  0.00    +0.117 C 
ATOM     12  C   UNL     1      15.000   9.749  19.205  0.00  0.00    +0.034 A 
ATOM     13  C   UNL     1      15.402  11.010  19.513  0.00  0.00    +0.002 A 
ATOM     14  C   UNL     1      13.956  10.539  17.115  0.00  0.00    +0.252 A 
ATOM     15  C   UNL     1      11.609   8.699  20.415  0.00  0.00    +0.247 C 
ATOM     16  C   UNL     1      15.064  12.099  18.619  0.00  0.00    +0.015 A 
ATOM     17  C   UNL     1      14.373  11.908  17.495  0.00  0.00    +0.071 A 
ENDROOT
BRANCH  13  18
ATOM     18  C   UNL     1      16.162  11.305  20.748  0.00  0.00    -0.016 A 
ATOM     20  C   UNL     1      17.545  11.157  20.760  0.00  0.00    +0.008 A 
ATOM     21  C   UNL     1      15.488  11.731  21.889  0.00  0.00    +0.008 A 
ATOM     24  C   UNL     1      18.262  11.435  21.924  0.00  0.00    +0.001 A 
ATOM     25  C   UNL     1      16.205  12.011  23.052  0.00  0.00    +0.001 A 
ATOM     28  C   UNL     1      17.592  11.862  23.071  0.00  0.00    +0.000 A 
ENDBRANCH  13  18
BRANCH  15  19
ATOM     19  C   UNL     1      11.521   9.908  21.244  0.00  0.00    +0.037 A 
ATOM     22  C   UNL     1      11.013   9.824  22.538  0.00  0.00    +0.016 A 
ATOM     23  C   UNL     1      11.948  11.131  20.733  0.00  0.00    +0.016 A 
ATOM     26  C   UNL     1      10.930  10.971  23.326  0.00  0.00    +0.046 A 
ATOM     27  C   UNL     1      11.864  12.278  21.522  0.00  0.00    +0.046 A 
ATOM     29  C   UNL     1      11.355  12.199  22.819  0.00  0.00    +0.120 A 
BRANCH  29   3
ATOM      3  O   UNL     1      11.277  13.319  23.588  0.00  0.00    -0.495 OA
ATOM     30  C   UNL     1      10.488  13.237  24.774  0.00  0.00    +0.277 C 
ENDBRANCH  29   3
ENDBRANCH  15  19
TORSDOF 3
ENDMDL
MODEL 2
REMARK VINA RESULT:      -6.7     13.977     17.095
REMARK  Name = 7155412
REMARK  4 active torsions:
REMARK  status: ('A' for Active; 'I' for Inactive)
REMARK    1  A    between atoms: O_3  and  C_29
REMARK    2  A    between atoms: O_3  and  C_30
REMARK    3  A    between atoms: C_13  and  C_18
REMARK    4  A    between atoms: C_15  and  C_19
REMARK                            x       y       z     vdW  Elec       q    Type
REMARK                         _______ _______ _______ _____ _____    ______ ____
ROOT
ATOM      1  O   UNL     1      10.927   5.674   8.757  0.00  0.00    -0.268 OA
ATOM      2  O   UNL     1      10.848  10.528   7.281  0.00  0.00    -0.270 OA
ATOM      4  N   UNL     1      12.038   9.361   5.642  0.00  0.00    -0.297 N 
ATOM      5  N   UNL     1      11.764   6.396   6.693  0.00  0.00    -0.311 N 
ATOM      6  C   UNL     1      13.835   7.903   6.539  0.00  0.00    +0.027 C 
ATOM      7  C   UNL     1      12.640   7.240   4.493  0.00  0.00    +0.054 C 
ATOM      8  C   UNL     1      14.012   7.272   5.166  0.00  0.00    +0.018 C 
ATOM      9  C   UNL     1      13.280   9.333   6.411  0.00  0.00    +0.113 C 
ATOM     10  C   UNL     1      12.918   7.005   7.371  0.00  0.00    +0.130 C 
ATOM     11  C   UNL     1      12.106   8.681   4.339  0.00  0.00    +0.117 C 
ATOM     12  C   UNL     1      11.642   6.395   5.290  0.00  0.00    +0.034 A 
ATOM     13  C   UNL     1      10.644   5.687   4.697  0.00  0.00    +0.002 A 
ATOM     14  C   UNL     1      10.861   5.716   7.529  0.00  0.00    +0.252 A 
ATOM     15  C   UNL     1      10.901   9.958   6.192  0.00  0.00    +0.247 C 
ATOM     16  C   UNL     1       9.691   4.977   5.526  0.00  0.00    +0.015 A 
ATOM     17  C   UNL     1       9.760   4.986   6.857  0.00  0.00    +0.071 A 
ENDROOT
BRANCH  13  18
ATOM     18  C   UNL     1      10.493   5.637   3.226  0.00  0.00    -0.016 A 
ATOM     20  C   UNL     1       9.864   6.683   2.559  0.00  0.00    +0.008 A 
ATOM     21  C   UNL     1      10.983   4.543   2.518  0.00  0.00    +0.008 A 
ATOM     24  C   UNL     1       9.721   6.636   1.173  0.00  0.00    +0.001 A 
ATOM     25  C   UNL     1      10.841   4.496   1.131  0.00  0.00    +0.001 A 
ATOM     28  C   UNL     1      10.209   5.542   0.458  0.00  0.00    +0.000 A 
ENDBRANCH  13  18
BRANCH  15  19
ATOM     19  C   UNL     1       9.648   9.899   5.430  0.00  0.00    +0.037 A 
ATOM     22  C   UNL     1       8.833   8.774   5.525  0.00  0.00    +0.016 A 
ATOM     23  C   UNL     1       9.278  10.969   4.619  0.00  0.00    +0.016 A 
ATOM     26  C   UNL     1       7.641   8.717   4.803  0.00  0.00    +0.046 A 
ATOM     27  C   UNL     1       8.087  10.911   3.896  0.00  0.00    +0.046 A 
ATOM     29  C   UNL     1       7.268   9.786   3.988  0.00  0.00    +0.120 A 
BRANCH  29   3
ATOM      3  O   UNL     1       6.104   9.732   3.284  0.00  0.00    -0.495 OA
ATOM     30  C   UNL     1       5.127  10.732   3.571  0.00  0.00    +0.277 C 
ENDBRANCH  29   3
ENDBRANCH  15  19
TORSDOF 3
ENDMDL
MODEL 3
REMARK VINA RESULT:      -6.4     14.073     17.506
REMARK  Name = 7155412
REMARK  4 active torsions:
REMARK  status: ('A' for Active; 'I' for Inactive)
REMARK    1  A    between atoms: O_3  and  C_29
REMARK    2  A    between atoms: O_3  and  C_30
REMARK    3  A    between atoms: C_13  and  C_18
REMARK    4  A    between atoms: C_15  and  C_19
REMARK                            x       y       z     vdW  Elec       q    Type
REMARK                         _______ _______ _______ _____ _____    ______ ____
ROOT
ATOM      1  O   UNL     1       7.377   8.905   4.096  0.00  0.00    -0.268 OA
ATOM      2  O   UNL     1      11.293   9.780   7.202  0.00  0.00    -0.270 OA
ATOM      4  N   UNL     1      11.286   7.479   6.785  0.00  0.00    -0.297 N 
ATOM      5  N   UNL     1       8.918   7.251   4.709  0.00  0.00    -0.311 N 
ATOM      6  C   UNL     1       9.078   6.396   7.122  0.00  0.00    +0.027 C 
ATOM      7  C   UNL     1      10.609   5.526   5.403  0.00  0.00    +0.054 C 
ATOM      8  C   UNL     1       9.604   5.120   6.481  0.00  0.00    +0.018 C 
ATOM      9  C   UNL     1      10.230   7.198   7.754  0.00  0.00    +0.113 C 
ATOM     10  C   UNL     1       8.334   7.204   6.058  0.00  0.00    +0.130 C 
ATOM     11  C   UNL     1      11.776   6.302   6.052  0.00  0.00    +0.117 C 
ATOM     12  C   UNL     1       9.953   6.381   4.315  0.00  0.00    +0.034 A 
ATOM     13  C   UNL     1      10.356   6.350   3.018  0.00  0.00    +0.002 A 
ATOM     14  C   UNL     1       8.293   8.134   3.810  0.00  0.00    +0.252 A 
ATOM     15  C   UNL     1      11.705   8.797   6.586  0.00  0.00    +0.247 C 
ATOM     16  C   UNL     1       9.738   7.249   2.063  0.00  0.00    +0.015 A 
ATOM     17  C   UNL     1       8.779   8.107   2.412  0.00  0.00    +0.071 A 
ENDROOT
BRANCH  13  18
ATOM     18  C   UNL     1      11.423   5.435   2.555  0.00  0.00    -0.016 A 
ATOM     20  C   UNL     1      11.146   4.083   2.380  0.00  0.00    +0.008 A 
ATOM     21  C   UNL     1      12.696   5.934   2.296  0.00  0.00    +0.008 A 
ATOM     24  C   UNL     1      12.152   3.220   1.944  0.00  0.00    +0.001 A 
ATOM     25  C   UNL     1      13.702   5.071   1.859  0.00  0.00    +0.001 A 
ATOM     28  C   UNL     1      13.430   3.714   1.683  0.00  0.00    +0.000 A 
ENDBRANCH  13  18
BRANCH  15  19
ATOM     19  C   UNL     1      12.709   9.058   5.548  0.00  0.00    +0.037 A 
ATOM     22  C   UNL     1      14.060   9.083   5.884  0.00  0.00    +0.016 A 
ATOM     23  C   UNL     1      12.307   9.277   4.233  0.00  0.00    +0.016 A 
ATOM     26  C   UNL     1      15.016   9.331   4.898  0.00  0.00    +0.046 A 
ATOM     27  C   UNL     1      13.262   9.524   3.248  0.00  0.00    +0.046 A 
ATOM     29  C   UNL     1      14.617   9.551   3.580  0.00  0.00    +0.120 A 
BRANCH  29   3
ATOM      3  O   UNL     1      15.548   9.790   2.617  0.00  0.00    -0.495 OA
ATOM     30  C   UNL     1      16.625   8.859   2.511  0.00  0.00    +0.277 C 
ENDBRANCH  29   3
ENDBRANCH  15  19
TORSDOF 3
ENDMDL
MODEL 4
REMARK VINA RESULT:      -6.3     28.284     30.264
REMARK  Name = 7155412
REMARK  4 active torsions:
REMARK  status: ('A' for Active; 'I' for Inactive)
REMARK    1  A    between atoms: O_3  and  C_29
REMARK    2  A    between atoms: O_3  and  C_30
REMARK    3  A    between atoms: C_13  and  C_18
REMARK    4  A    between atoms: C_15  and  C_19
REMARK                            x       y       z     vdW  Elec       q    Type
REMARK                         _______ _______ _______ _____ _____    ______ ____
ROOT
ATOM      1  O   UNL     1      -6.609 -14.972  16.559  0.00  0.00    -0.268 OA
ATOM      2  O   UNL     1      -8.157 -10.712  18.841  0.00  0.00    -0.270 OA
ATOM      4  N   UNL     1      -6.253 -10.144  17.609  0.00  0.00    -0.297 N 
ATOM      5  N   UNL     1      -5.632 -12.881  16.162  0.00  0.00    -0.311 N 
ATOM      6  C   UNL     1      -4.315 -11.648  17.986  0.00  0.00    +0.027 C 
ATOM      7  C   UNL     1      -4.633 -10.606  15.780  0.00  0.00    +0.054 C 
ATOM      8  C   UNL     1      -3.584 -11.003  16.819  0.00  0.00    +0.018 C 
ATOM      9  C   UNL     1      -5.321 -10.662  18.607  0.00  0.00    +0.113 C 
ATOM     10  C   UNL     1      -4.997 -12.923  17.488  0.00  0.00    +0.130 C 
ATOM     11  C   UNL     1      -5.618  -9.591  16.403  0.00  0.00    +0.117 C 
ATOM     12  C   UNL     1      -5.399 -11.825  15.259  0.00  0.00    +0.034 A 
ATOM     13  C   UNL     1      -5.877 -11.901  13.989  0.00  0.00    +0.002 A 
ATOM     14  C   UNL     1      -6.385 -14.017  15.815  0.00  0.00    +0.252 A 
ATOM     15  C   UNL     1      -7.628 -10.251  17.830  0.00  0.00    +0.247 C 
ATOM     16  C   UNL     1      -6.662 -13.056  13.597  0.00  0.00    +0.015 A 
ATOM     17  C   UNL     1      -6.928 -14.055  14.438  0.00  0.00    +0.071 A 
ENDROOT
BRANCH  13  18
ATOM     18  C   UNL     1      -5.635 -10.828  13.000  0.00  0.00    -0.016 A 
ATOM     20  C   UNL     1      -6.584  -9.828  12.819  0.00  0.00    +0.008 A 
ATOM     21  C   UNL     1      -4.458 -10.827  12.257  0.00  0.00    +0.008 A 
ATOM     24  C   UNL     1      -6.356  -8.816  11.887  0.00  0.00    +0.001 A 
ATOM     25  C   UNL     1      -4.230  -9.814  11.325  0.00  0.00    +0.001 A 
ATOM     28  C   UNL     1      -5.179  -8.809  11.139  0.00  0.00    +0.000 A 
ENDBRANCH  13  18
BRANCH  15  19
ATOM     19  C   UNL     1      -8.540  -9.796  16.773  0.00  0.00    +0.037 A 
ATOM     22  C   UNL     1      -8.882 -10.660  15.736  0.00  0.00    +0.016 A 
ATOM     23  C   UNL     1      -9.059  -8.505  16.814  0.00  0.00    +0.016 A 
ATOM     26  C   UNL     1      -9.749 -10.229  14.732  0.00  0.00    +0.046 A 
ATOM     27  C   UNL     1      -9.926  -8.074  15.809  0.00  0.00    +0.046 A 
ATOM     29  C   UNL     1     -10.271  -8.936  14.768  0.00  0.00    +0.120 A 
BRANCH  29   3
ATOM      3  O   UNL     1     -11.118  -8.516  13.790  0.00  0.00    -0.495 OA
ATOM     30  C   UNL     1     -12.020  -7.461  14.122  0.00  0.00    +0.277 C 
ENDBRANCH  29   3
ENDBRANCH  15  19
TORSDOF 3
ENDMDL
MODEL 5
REMARK VINA RESULT:      -6.0     26.735     29.974
REMARK  Name = 7155412
REMARK  4 active torsions:
REMARK  status: ('A' for Active; 'I' for Inactive)
REMARK    1  A    between atoms: O_3  and  C_29
REMARK    2  A    between atoms: O_3  and  C_30
REMARK    3  A    between atoms: C_13  and  C_18
REMARK    4  A    between atoms: C_15  and  C_19
REMARK                            x       y       z     vdW  Elec       q    Type
REMARK                         _______ _______ _______ _____ _____    ______ ____
ROOT
ATOM      1  O   UNL     1      -7.283 -14.847  17.154  0.00  0.00    -0.268 OA
ATOM      2  O   UNL     1      -9.546 -10.765  15.165  0.00  0.00    -0.270 OA
ATOM      4  N   UNL     1      -7.622  -9.990  16.244  0.00  0.00    -0.297 N 
ATOM      5  N   UNL     1      -6.330 -12.708  17.199  0.00  0.00    -0.311 N 
ATOM      6  C   UNL     1      -7.368 -10.807  18.574  0.00  0.00    +0.027 C 
ATOM      7  C   UNL     1      -5.365 -10.388  17.208  0.00  0.00    +0.054 C 
ATOM      8  C   UNL     1      -5.950 -10.258  18.614  0.00  0.00    +0.018 C 
ATOM      9  C   UNL     1      -8.227 -10.014  17.573  0.00  0.00    +0.113 C 
ATOM     10  C   UNL     1      -7.303 -12.294  18.220  0.00  0.00    +0.130 C 
ATOM     11  C   UNL     1      -6.215  -9.562  16.217  0.00  0.00    +0.117 C 
ATOM     12  C   UNL     1      -5.306 -11.849  16.755  0.00  0.00    +0.034 A 
ATOM     13  C   UNL     1      -4.336 -12.321  15.928  0.00  0.00    +0.002 A 
ATOM     14  C   UNL     1      -6.418 -14.051  16.789  0.00  0.00    +0.252 A 
ATOM     15  C   UNL     1      -8.369 -10.408  15.140  0.00  0.00    +0.247 C 
ATOM     16  C   UNL     1      -4.396 -13.699  15.481  0.00  0.00    +0.015 A 
ATOM     17  C   UNL     1      -5.371 -14.527  15.857  0.00  0.00    +0.071 A 
ENDROOT
BRANCH  13  18
ATOM     18  C   UNL     1      -3.228 -11.461  15.457  0.00  0.00    -0.016 A 
ATOM     20  C   UNL     1      -3.155 -11.100  14.116  0.00  0.00    +0.008 A 
ATOM     21  C   UNL     1      -2.266 -11.019  16.360  0.00  0.00    +0.008 A 
ATOM     24  C   UNL     1      -2.111 -10.289  13.672  0.00  0.00    +0.001 A 
ATOM     25  C   UNL     1      -1.221 -10.207  15.916  0.00  0.00    +0.001 A 
ATOM     28  C   UNL     1      -1.143  -9.843  14.572  0.00  0.00    +0.000 A 
ENDBRANCH  13  18
BRANCH  15  19
ATOM     19  C   UNL     1      -7.708 -10.451  13.830  0.00  0.00    +0.037 A 
ATOM     22  C   UNL     1      -7.002 -11.589  13.448  0.00  0.00    +0.016 A 
ATOM     23  C   UNL     1      -7.792  -9.355  12.975  0.00  0.00    +0.016 A 
ATOM     26  C   UNL     1      -6.374 -11.631  12.203  0.00  0.00    +0.046 A 
ATOM     27  C   UNL     1      -7.164  -9.397  11.730  0.00  0.00    +0.046 A 
ATOM     29  C   UNL     1      -6.455 -10.535  11.344  0.00  0.00    +0.120 A 
BRANCH  29   3
ATOM      3  O   UNL     1      -5.845 -10.575  10.128  0.00  0.00    -0.495 OA
ATOM     30  C   UNL     1      -4.470 -10.954  10.105  0.00  0.00    +0.277 C 
ENDBRANCH  29   3
ENDBRANCH  15  19
TORSDOF 3
ENDMDL
MODEL 6
REMARK VINA RESULT:      -6.0     14.228     17.094
REMARK  Name = 7155412
REMARK  4 active torsions:
REMARK  status: ('A' for Active; 'I' for Inactive)
REMARK    1  A    between atoms: O_3  and  C_29
REMARK    2  A    between atoms: O_3  and  C_30
REMARK    3  A    between atoms: C_13  and  C_18
REMARK    4  A    between atoms: C_15  and  C_19
REMARK                            x       y       z     vdW  Elec       q    Type
REMARK                         _______ _______ _______ _____ _____    ______ ____
ROOT
ATOM      1  O   UNL     1      22.580  -1.761  28.430  0.00  0.00    -0.268 OA
ATOM      2  O   UNL     1      20.710  -6.473  28.203  0.00  0.00    -0.270 OA
ATOM      4  N   UNL     1      18.899  -5.030  27.883  0.00  0.00    -0.297 N 
ATOM      5  N   UNL     1      20.354  -2.228  27.872  0.00  0.00    -0.311 N 
ATOM      6  C   UNL     1      18.725  -3.229  29.582  0.00  0.00    +0.027 C 
ATOM      7  C   UNL     1      17.980  -2.801  27.277  0.00  0.00    +0.054 C 
ATOM      8  C   UNL     1      17.655  -2.542  28.748  0.00  0.00    +0.018 C 
ATOM      9  C   UNL     1      18.737  -4.743  29.307  0.00  0.00    +0.113 C 
ATOM     10  C   UNL     1      20.074  -2.580  29.272  0.00  0.00    +0.130 C 
ATOM     11  C   UNL     1      17.958  -4.321  27.003  0.00  0.00    +0.117 C 
ATOM     12  C   UNL     1      19.343  -2.220  26.891  0.00  0.00    +0.034 A 
ATOM     13  C   UNL     1      19.609  -1.739  25.648  0.00  0.00    +0.002 A 
ATOM     14  C   UNL     1      21.663  -1.787  27.609  0.00  0.00    +0.252 A 
ATOM     15  C   UNL     1      19.925  -5.879  27.465  0.00  0.00    +0.247 C 
ATOM     16  C   UNL     1      20.949  -1.280  25.338  0.00  0.00    +0.015 A 
ATOM     17  C   UNL     1      21.935  -1.306  26.235  0.00  0.00    +0.071 A 
ENDROOT
BRANCH  13  18
ATOM     18  C   UNL     1      18.572  -1.688  24.594  0.00  0.00    -0.016 A 
ATOM     20  C   UNL     1      17.642  -0.654  24.589  0.00  0.00    +0.008 A 
ATOM     21  C   UNL     1      18.535  -2.676  23.614  0.00  0.00    +0.008 A 
ATOM     24  C   UNL     1      16.664  -0.606  23.595  0.00  0.00    +0.001 A 
ATOM     25  C   UNL     1      17.558  -2.627  22.619  0.00  0.00    +0.001 A 
ATOM     28  C   UNL     1      16.621  -1.593  22.610  0.00  0.00    +0.000 A 
ENDBRANCH  13  18
BRANCH  15  19
ATOM     19  C   UNL     1      20.114  -6.084  26.023  0.00  0.00    +0.037 A 
ATOM     22  C   UNL     1      19.462  -7.134  25.382  0.00  0.00    +0.016 A 
ATOM     23  C   UNL     1      20.942  -5.226  25.304  0.00  0.00    +0.016 A 
ATOM     26  C   UNL     1      19.639  -7.329  24.013  0.00  0.00    +0.046 A 
ATOM     27  C   UNL     1      21.120  -5.422  23.934  0.00  0.00    +0.046 A 
ATOM     29  C   UNL     1      20.469  -6.473  23.288  0.00  0.00    +0.120 A 
BRANCH  29   3
ATOM      3  O   UNL     1      20.641  -6.660  21.952  0.00  0.00    -0.495 OA
ATOM     30  C   UNL     1      19.917  -5.796  21.076  0.00  0.00    +0.277 C 
ENDBRANCH  29   3
ENDBRANCH  15  19
TORSDOF 3
ENDMDL
MODEL 7
REMARK VINA RESULT:      -6.0     14.426     17.093
REMARK  Name = 7155412
REMARK  4 active torsions:
REMARK  status: ('A' for Active; 'I' for Inactive)
REMARK    1  A    between atoms: O_3  and  C_29
REMARK    2  A    between atoms: O_3  and  C_30
REMARK    3  A    between atoms: C_13  and  C_18
REMARK    4  A    between atoms: C_15  and  C_19
REMARK                            x       y       z     vdW  Elec       q    Type
REMARK                         _______ _______ _______ _____ _____    ______ ____
ROOT
ATOM      1  O   UNL     1      23.119  -5.288  25.074  0.00  0.00    -0.268 OA
ATOM      2  O   UNL     1      20.407  -5.040  29.355  0.00  0.00    -0.270 OA
ATOM      4  N   UNL     1      19.829  -3.154  28.100  0.00  0.00    -0.297 N 
ATOM      5  N   UNL     1      21.480  -3.659  25.457  0.00  0.00    -0.311 N 
ATOM      6  C   UNL     1      21.774  -1.860  27.261  0.00  0.00    +0.027 C 
ATOM      7  C   UNL     1      19.705  -1.944  25.931  0.00  0.00    +0.054 C 
ATOM      8  C   UNL     1      20.848  -1.033  26.382  0.00  0.00    +0.018 C 
ATOM      9  C   UNL     1      21.018  -2.398  28.489  0.00  0.00    +0.113 C 
ATOM     10  C   UNL     1      22.369  -2.987  26.416  0.00  0.00    +0.130 C 
ATOM     11  C   UNL     1      18.933  -2.452  27.169  0.00  0.00    +0.117 C 
ATOM     12  C   UNL     1      20.221  -3.131  25.112  0.00  0.00    +0.034 A 
ATOM     13  C   UNL     1      19.499  -3.696  24.109  0.00  0.00    +0.002 A 
ATOM     14  C   UNL     1      22.021  -4.792  24.822  0.00  0.00    +0.252 A 
ATOM     15  C   UNL     1      19.656  -4.456  28.575  0.00  0.00    +0.247 C 
ATOM     16  C   UNL     1      20.022  -4.868  23.435  0.00  0.00    +0.015 A 
ATOM     17  C   UNL     1      21.195  -5.411  23.760  0.00  0.00    +0.071 A 
ENDROOT
BRANCH  13  18
ATOM     18  C   UNL     1      18.183  -3.159  23.697  0.00  0.00    -0.016 A 
ATOM     20  C   UNL     1      17.018  -3.698  24.232  0.00  0.00    +0.008 A 
ATOM     21  C   UNL     1      18.120  -2.116  22.778  0.00  0.00    +0.008 A 
ATOM     24  C   UNL     1      15.778  -3.192  23.845  0.00  0.00    +0.001 A 
ATOM     25  C   UNL     1      16.880  -1.609  22.391  0.00  0.00    +0.001 A 
ATOM     28  C   UNL     1      15.708  -2.147  22.923  0.00  0.00    +0.000 A 
ENDBRANCH  13  18
BRANCH  15  19
ATOM     19  C   UNL     1      18.494  -5.219  28.102  0.00  0.00    +0.037 A 
ATOM     22  C   UNL     1      18.554  -5.883  26.880  0.00  0.00    +0.016 A 
ATOM     23  C   UNL     1      17.340  -5.277  28.878  0.00  0.00    +0.016 A 
ATOM     26  C   UNL     1      17.451  -6.609  26.429  0.00  0.00    +0.046 A 
ATOM     27  C   UNL     1      16.237  -6.003  28.428  0.00  0.00    +0.046 A 
ATOM     29  C   UNL     1      16.293  -6.669  27.204  0.00  0.00    +0.120 A 
BRANCH  29   3
ATOM      3  O   UNL     1      15.217  -7.379  26.767  0.00  0.00    -0.495 OA
ATOM     30  C   UNL     1      15.471  -8.446  25.854  0.00  0.00    +0.277 C 
ENDBRANCH  29   3
ENDBRANCH  15  19
TORSDOF 3
ENDMDL
MODEL 8
REMARK VINA RESULT:      -5.9     28.733     31.177
REMARK  Name = 7155412
REMARK  4 active torsions:
REMARK  status: ('A' for Active; 'I' for Inactive)
REMARK    1  A    between atoms: O_3  and  C_29
REMARK    2  A    between atoms: O_3  and  C_30
REMARK    3  A    between atoms: C_13  and  C_18
REMARK    4  A    between atoms: C_15  and  C_19
REMARK                            x       y       z     vdW  Elec       q    Type
REMARK                         _______ _______ _______ _____ _____    ______ ____
ROOT
ATOM      1  O   UNL     1      -3.483 -11.431  17.646  0.00  0.00    -0.268 OA
ATOM      2  O   UNL     1      -6.646 -10.603  13.765  0.00  0.00    -0.270 OA
ATOM      4  N   UNL     1      -7.561 -12.369  14.994  0.00  0.00    -0.297 N 
ATOM      5  N   UNL     1      -5.535 -12.535  17.411  0.00  0.00    -0.311 N 
ATOM      6  C   UNL     1      -5.954 -14.192  15.498  0.00  0.00    +0.027 C 
ATOM      7  C   UNL     1      -7.752 -13.679  17.098  0.00  0.00    +0.054 C 
ATOM      8  C   UNL     1      -6.960 -14.817  16.454  0.00  0.00    +0.018 C 
ATOM      9  C   UNL     1      -6.676 -13.374  14.412  0.00  0.00    +0.113 C 
ATOM     10  C   UNL     1      -4.981 -13.335  16.308  0.00  0.00    +0.130 C 
ATOM     11  C   UNL     1      -8.498 -12.885  16.004  0.00  0.00    +0.117 C 
ATOM     12  C   UNL     1      -6.841 -12.742  17.896  0.00  0.00    +0.034 A 
ATOM     13  C   UNL     1      -7.259 -12.092  19.015  0.00  0.00    +0.002 A 
ATOM     14  C   UNL     1      -4.637 -11.641  18.020  0.00  0.00    +0.252 A 
ATOM     15  C   UNL     1      -7.429 -11.032  14.611  0.00  0.00    +0.247 C 
ATOM     16  C   UNL     1      -6.362 -11.159  19.668  0.00  0.00    +0.015 A 
ATOM     17  C   UNL     1      -5.133 -10.917  19.213  0.00  0.00    +0.071 A 
ENDROOT
BRANCH  13  18
ATOM     18  C   UNL     1      -8.613 -12.297  19.574  0.00  0.00    -0.016 A 
ATOM     20  C   UNL     1      -8.906 -13.468  20.265  0.00  0.00    +0.008 A 
ATOM     21  C   UNL     1      -9.585 -11.315  19.407  0.00  0.00    +0.008 A 
ATOM     24  C   UNL     1     -10.182 -13.662  20.793  0.00  0.00    +0.001 A 
ATOM     25  C   UNL     1     -10.862 -11.509  19.936  0.00  0.00    +0.001 A 
ATOM     28  C   UNL     1     -11.161 -12.682  20.628  0.00  0.00    +0.000 A 
ENDBRANCH  13  18
BRANCH  15  19
ATOM     19  C   UNL     1      -8.277 -10.032  15.274  0.00  0.00    +0.037 A 
ATOM     22  C   UNL     1      -7.884  -9.494  16.496  0.00  0.00    +0.016 A 
ATOM     23  C   UNL     1      -9.467  -9.627  14.676  0.00  0.00    +0.016 A 
ATOM     26  C   UNL     1      -8.687  -8.544  17.126  0.00  0.00    +0.046 A 
ATOM     27  C   UNL     1     -10.270  -8.677  15.306  0.00  0.00    +0.046 A 
ATOM     29  C   UNL     1      -9.881  -8.135  16.531  0.00  0.00    +0.120 A 
BRANCH  29   3
ATOM      3  O   UNL     1     -10.665  -7.206  17.144  0.00  0.00    -0.495 OA
ATOM     30  C   UNL     1     -11.273  -6.220  16.311  0.00  0.00    +0.277 C 
ENDBRANCH  29   3
ENDBRANCH  15  19
TORSDOF 3
ENDMDL
MODEL 9
REMARK VINA RESULT:      -5.8     27.147     30.412
REMARK  Name = 7155412
REMARK  4 active torsions:
REMARK  status: ('A' for Active; 'I' for Inactive)
REMARK    1  A    between atoms: O_3  and  C_29
REMARK    2  A    between atoms: O_3  and  C_30
REMARK    3  A    between atoms: C_13  and  C_18
REMARK    4  A    between atoms: C_15  and  C_19
REMARK                            x       y       z     vdW  Elec       q    Type
REMARK                         _______ _______ _______ _____ _____    ______ ____
ROOT
ATOM      1  O   UNL     1      -1.544 -15.258  14.100  0.00  0.00    -0.268 OA
ATOM      2  O   UNL     1      -1.891 -10.890  16.658  0.00  0.00    -0.270 OA
ATOM      4  N   UNL     1      -3.220 -10.642  14.750  0.00  0.00    -0.297 N 
ATOM      5  N   UNL     1      -2.984 -13.521  13.473  0.00  0.00    -0.311 N 
ATOM      6  C   UNL     1      -2.083 -11.270  12.635  0.00  0.00    +0.027 C 
ATOM      7  C   UNL     1      -4.508 -11.618  12.860  0.00  0.00    +0.054 C 
ATOM      8  C   UNL     1      -3.408 -11.181  11.893  0.00  0.00    +0.018 C 
ATOM      9  C   UNL     1      -2.091 -10.351  13.870  0.00  0.00    +0.113 C 
ATOM     10  C   UNL     1      -1.833 -12.732  13.010  0.00  0.00    +0.130 C 
ATOM     11  C   UNL     1      -4.529 -10.671  14.080  0.00  0.00    +0.117 C 
ATOM     12  C   UNL     1      -4.308 -13.064  13.324  0.00  0.00    +0.034 A 
ATOM     13  C   UNL     1      -5.347 -13.888  13.621  0.00  0.00    +0.002 A 
ATOM     14  C   UNL     1      -2.680 -14.804  13.961  0.00  0.00    +0.252 A 
ATOM     15  C   UNL     1      -2.988 -10.916  16.100  0.00  0.00    +0.247 C 
ATOM     16  C   UNL     1      -5.073 -15.217  14.131  0.00  0.00    +0.015 A 
ATOM     17  C   UNL     1      -3.831 -15.666  14.315  0.00  0.00    +0.071 A 
ENDROOT
BRANCH  13  18
ATOM     18  C   UNL     1      -6.753 -13.459  13.456  0.00  0.00    -0.016 A 
ATOM     20  C   UNL     1      -7.373 -13.582  12.216  0.00  0.00    +0.008 A 
ATOM     21  C   UNL     1      -7.448 -12.936  14.542  0.00  0.00    +0.008 A 
ATOM     24  C   UNL     1      -8.698 -13.178  12.061  0.00  0.00    +0.001 A 
ATOM     25  C   UNL     1      -8.774 -12.532  14.387  0.00  0.00    +0.001 A 
ATOM     28  C   UNL     1      -9.399 -12.652  13.146  0.00  0.00    +0.000 A 
ENDBRANCH  13  18
BRANCH  15  19
ATOM     19  C   UNL     1      -4.133 -11.285  16.941  0.00  0.00    +0.037 A 
ATOM     22  C   UNL     1      -4.830 -10.297  17.632  0.00  0.00    +0.016 A 
ATOM     23  C   UNL     1      -4.518 -12.619  17.042  0.00  0.00    +0.016 A 
ATOM     26  C   UNL     1      -5.918 -10.646  18.432  0.00  0.00    +0.046 A 
ATOM     27  C   UNL     1      -5.606 -12.968  17.841  0.00  0.00    +0.046 A 
ATOM     29  C   UNL     1      -6.307 -11.982  18.536  0.00  0.00    +0.120 A 
BRANCH  29   3
ATOM      3  O   UNL     1      -7.370 -12.323  19.314  0.00  0.00    -0.495 OA
ATOM     30  C   UNL     1      -8.473 -11.417  19.339  0.00  0.00    +0.277 C 
ENDBRANCH  29   3
ENDBRANCH  15  19
TORSDOF 3
ENDMDL
MODEL 10
REMARK VINA RESULT:      -5.8     27.665     31.061
REMARK  Name = 7155412
REMARK  4 active torsions:
REMARK  status: ('A' for Active; 'I' for Inactive)
REMARK    1  A    between atoms: O_3  and  C_29
REMARK    2  A    between atoms: O_3  and  C_30
REMARK    3  A    between atoms: C_13  and  C_18
REMARK    4  A    between atoms: C_15  and  C_19
REMARK                            x       y       z     vdW  Elec       q    Type
REMARK                         _______ _______ _______ _____ _____    ______ ____
ROOT
ATOM      1  O   UNL     1     -10.277  -7.764  17.464  0.00  0.00    -0.268 OA
ATOM      2  O   UNL     1      -6.681 -10.197  20.089  0.00  0.00    -0.270 OA
ATOM      4  N   UNL     1      -7.842 -11.835  18.890  0.00  0.00    -0.297 N 
ATOM      5  N   UNL     1      -9.850 -10.054  17.226  0.00  0.00    -0.311 N 
ATOM      6  C   UNL     1     -10.309 -11.709  19.132  0.00  0.00    +0.027 C 
ATOM      7  C   UNL     1      -9.334 -12.506  17.018  0.00  0.00    +0.054 C 
ATOM      8  C   UNL     1     -10.473 -12.727  18.013  0.00  0.00    +0.018 C 
ATOM      9  C   UNL     1      -8.954 -11.892  19.837  0.00  0.00    +0.113 C 
ATOM     10  C   UNL     1     -10.461 -10.307  18.539  0.00  0.00    +0.130 C 
ATOM     11  C   UNL     1      -7.979 -12.724  17.727  0.00  0.00    +0.117 C 
ATOM     12  C   UNL     1      -9.385 -11.102  16.408  0.00  0.00    +0.034 A 
ATOM     13  C   UNL     1      -8.971 -10.840  15.140  0.00  0.00    +0.002 A 
ATOM     14  C   UNL     1      -9.872  -8.715  16.796  0.00  0.00    +0.252 A 
ATOM     15  C   UNL     1      -6.794 -10.939  19.114  0.00  0.00    +0.247 C 
ATOM     16  C   UNL     1      -8.976  -9.471  14.663  0.00  0.00    +0.015 A 
ATOM     17  C   UNL     1      -9.378  -8.453  15.425  0.00  0.00    +0.071 A 
ENDROOT
BRANCH  13  18
ATOM     18  C   UNL     1      -8.499 -11.912  14.237  0.00  0.00    -0.016 A 
ATOM     20  C   UNL     1      -7.140 -12.193  14.149  0.00  0.00    +0.008 A 
ATOM     21  C   UNL     1      -9.419 -12.634  13.482  0.00  0.00    +0.008 A 
ATOM     24  C   UNL     1      -6.694 -13.205  13.298  0.00  0.00    +0.001 A 
ATOM     25  C   UNL     1      -8.973 -13.647  12.631  0.00  0.00    +0.001 A 
ATOM     28  C   UNL     1      -7.611 -13.931  12.538  0.00  0.00    +0.000 A 
ENDBRANCH  13  18
BRANCH  15  19
ATOM     19  C   UNL     1      -5.733 -10.846  18.103  0.00  0.00    +0.037 A 
ATOM     22  C   UNL     1      -4.548 -11.557  18.277  0.00  0.00    +0.016 A 
ATOM     23  C   UNL     1      -5.916 -10.048  16.977  0.00  0.00    +0.016 A 
ATOM     26  C   UNL     1      -3.539 -11.470  17.318  0.00  0.00    +0.046 A 
ATOM     27  C   UNL     1      -4.907  -9.961  16.018  0.00  0.00    +0.046 A 
ATOM     29  C   UNL     1      -3.719 -10.672  16.188  0.00  0.00    +0.120 A 
BRANCH  29   3
ATOM      3  O   UNL     1      -2.736 -10.587  15.250  0.00  0.00    -0.495 OA
ATOM     30  C   UNL     1      -1.414 -10.321  15.717  0.00  0.00    +0.277 C 
ENDBRANCH  29   3
ENDBRANCH  15  19
TORSDOF 3
ENDMDL
