MODEL 1
REMARK VINA RESULT:      -6.8      0.000      0.000
REMARK  Name = 40779157
REMARK  9 active torsions:
REMARK  status: ('A' for Active; 'I' for Inactive)
REMARK    1  A    between atoms: O_1  and  C_15
REMARK    2  A    between atoms: O_1  and  C_24
REMARK    3  A    between atoms: N_4  and  C_23
REMARK    4  A    between atoms: N_6  and  C_25
REMARK    5  A    between atoms: C_8  and  C_14
REMARK    6  A    between atoms: C_10  and  C_15
REMARK    7  A    between atoms: C_17  and  C_18
REMARK    8  A    between atoms: C_25  and  C_26
REMARK    9  A    between atoms: C_25  and  C_27
REMARK                            x       y       z     vdW  Elec       q    Type
REMARK                         _______ _______ _______ _____ _____    ______ ____
ROOT
ATOM      3  N   UNL     1      13.117   7.449  21.277  0.00  0.00    -0.296 NA
ATOM      7  C   UNL     1      11.275   8.859  20.092  0.00  0.00    +0.002 C 
ATOM      8  C   UNL     1      12.145   8.109  19.045  0.00  0.00    +0.055 C 
ATOM      9  C   UNL     1      12.184   9.740  20.973  0.00  0.00    +0.026 C 
ATOM     10  C   UNL     1      13.124   8.839  21.803  0.00  0.00    +0.095 C 
ATOM     11  C   UNL     1      13.334   7.459  19.809  0.00  0.00    +0.094 C 
ATOM     12  C   UNL     1      10.659   7.782  21.011  0.00  0.00    +0.019 C 
ATOM     13  C   UNL     1      11.779   6.869  21.543  0.00  0.00    +0.085 C 
ENDROOT
BRANCH   8  14
ATOM      4  N   UNL     1      11.826   9.020  16.697  0.00  0.00    -0.271 N 
ATOM      5  N   UNL     1      12.411   9.729  15.717  0.00  0.00    -0.176 NA
ATOM     14  C   UNL     1      12.601   8.873  17.810  0.00  0.00    +0.044 A 
ATOM     16  C   UNL     1      13.775   9.531  17.538  0.00  0.00    +0.048 A 
ATOM     18  C   UNL     1      13.601  10.039  16.237  0.00  0.00    +0.066 A 
ATOM     23  C   UNL     1      10.493   8.501  16.493  0.00  0.00    +0.172 C 
BRANCH  18  17
ATOM     17  C   UNL     1      14.585  10.854  15.427  0.00  0.00    +0.040 C 
ATOM     19  C   UNL     1      13.890  11.852  14.485  0.00  0.00    +0.010 C 
ATOM     20  C   UNL     1      15.569  11.691  16.270  0.00  0.00    +0.010 C 
ATOM     21  C   UNL     1      14.801  13.070  14.472  0.00  0.00    +0.001 C 
ATOM     22  C   UNL     1      15.293  13.145  15.906  0.00  0.00    +0.001 C 
ENDBRANCH  18  17
ENDBRANCH   8  14
BRANCH  10  15
ATOM     15  C   UNL     1      14.536   9.420  21.897  0.00  0.00    +0.252 C 
BRANCH  15   1
ATOM      1  O   UNL     1      15.438   8.362  22.152  0.00  0.00    -0.449 OA
BRANCH   1  24
ATOM      2  O   UNL     1      16.909   9.237  20.619  0.00  0.00    -0.226 OA
ATOM      6  N   UNL     1      17.386   7.280  21.771  0.00  0.00    -0.279 N 
ATOM     24  C   UNL     1      16.612   8.371  21.436  0.00  0.00    +0.401 C 
ATOM     28  H   UNL     1      17.042   6.662  22.500  0.00  0.00    +0.152 HD
BRANCH   6  25
ATOM     25  C   UNL     1      18.680   7.006  21.191  0.00  0.00    +0.070 C 
ATOM     26  C   UNL     1      18.565   5.920  20.129  0.00  0.00    +0.027 C 
ATOM     27  C   UNL     1      19.681   6.619  22.272  0.00  0.00    +0.027 C 
ENDBRANCH   6  25
ENDBRANCH   1  24
ENDBRANCH  15   1
ENDBRANCH  10  15
TORSDOF 6
ENDMDL
MODEL 2
REMARK VINA RESULT:      -6.7     25.472     28.473
REMARK  Name = 40779157
REMARK  9 active torsions:
REMARK  status: ('A' for Active; 'I' for Inactive)
REMARK    1  A    between atoms: O_1  and  C_15
REMARK    2  A    between atoms: O_1  and  C_24
REMARK    3  A    between atoms: N_4  and  C_23
REMARK    4  A    between atoms: N_6  and  C_25
REMARK    5  A    between atoms: C_8  and  C_14
REMARK    6  A    between atoms: C_10  and  C_15
REMARK    7  A    between atoms: C_17  and  C_18
REMARK    8  A    between atoms: C_25  and  C_26
REMARK    9  A    between atoms: C_25  and  C_27
REMARK                            x       y       z     vdW  Elec       q    Type
REMARK                         _______ _______ _______ _____ _____    ______ ____
ROOT
ATOM      3  N   UNL     1      -5.656 -10.378  17.714  0.00  0.00    -0.296 NA
ATOM      7  C   UNL     1      -4.684 -12.458  16.484  0.00  0.00    +0.002 C 
ATOM      8  C   UNL     1      -3.770 -11.220  16.265  0.00  0.00    +0.055 C 
ATOM      9  C   UNL     1      -6.112 -12.130  16.001  0.00  0.00    +0.026 C 
ATOM     10  C   UNL     1      -6.714 -11.024  16.895  0.00  0.00    +0.095 C 
ATOM     11  C   UNL     1      -4.513  -9.986  16.852  0.00  0.00    +0.094 C 
ATOM     12  C   UNL     1      -4.762 -12.688  18.009  0.00  0.00    +0.019 C 
ATOM     13  C   UNL     1      -5.171 -11.375  18.699  0.00  0.00    +0.085 C 
ENDROOT
BRANCH   8  14
ATOM      4  N   UNL     1      -1.998 -10.441  14.623  0.00  0.00    -0.271 N 
ATOM      5  N   UNL     1      -1.718 -10.289  13.317  0.00  0.00    -0.176 NA
ATOM     14  C   UNL     1      -3.237 -10.960  14.864  0.00  0.00    +0.044 A 
ATOM     16  C   UNL     1      -3.806 -11.160  13.630  0.00  0.00    +0.048 A 
ATOM     18  C   UNL     1      -2.825 -10.730  12.716  0.00  0.00    +0.066 A 
ATOM     23  C   UNL     1      -1.012 -10.059  15.606  0.00  0.00    +0.172 C 
BRANCH  18  17
ATOM     17  C   UNL     1      -2.913 -10.725  11.206  0.00  0.00    +0.040 C 
ATOM     19  C   UNL     1      -4.319 -11.085  10.695  0.00  0.00    +0.010 C 
ATOM     20  C   UNL     1      -2.563  -9.374  10.549  0.00  0.00    +0.010 C 
ATOM     21  C   UNL     1      -4.509 -10.231   9.451  0.00  0.00    +0.001 C 
ATOM     22  C   UNL     1      -3.827  -8.927   9.824  0.00  0.00    +0.001 C 
ENDBRANCH  18  17
ENDBRANCH   8  14
BRANCH  10  15
ATOM     15  C   UNL     1      -7.522 -10.011  16.083  0.00  0.00    +0.252 C 
BRANCH  15   1
ATOM      1  O   UNL     1      -7.900  -8.952  16.939  0.00  0.00    -0.449 OA
BRANCH   1  24
ATOM      2  O   UNL     1      -9.980  -9.033  17.911  0.00  0.00    -0.226 OA
ATOM      6  N   UNL     1      -9.625  -7.911  15.911  0.00  0.00    -0.279 N 
ATOM     24  C   UNL     1      -9.243  -8.663  17.002  0.00  0.00    +0.401 C 
ATOM     28  H   UNL     1      -8.902  -7.632  15.255  0.00  0.00    +0.152 HD
BRANCH   6  25
ATOM     25  C   UNL     1     -10.974  -7.447  15.689  0.00  0.00    +0.070 C 
ATOM     26  C   UNL     1     -11.504  -7.978  14.363  0.00  0.00    +0.027 C 
ATOM     27  C   UNL     1     -11.033  -5.926  15.739  0.00  0.00    +0.027 C 
ENDBRANCH   6  25
ENDBRANCH   1  24
ENDBRANCH  15   1
ENDBRANCH  10  15
TORSDOF 6
ENDMDL
MODEL 3
REMARK VINA RESULT:      -6.5     26.456     29.095
REMARK  Name = 40779157
REMARK  9 active torsions:
REMARK  status: ('A' for Active; 'I' for Inactive)
REMARK    1  A    between atoms: O_1  and  C_15
REMARK    2  A    between atoms: O_1  and  C_24
REMARK    3  A    between atoms: N_4  and  C_23
REMARK    4  A    between atoms: N_6  and  C_25
REMARK    5  A    between atoms: C_8  and  C_14
REMARK    6  A    between atoms: C_10  and  C_15
REMARK    7  A    between atoms: C_17  and  C_18
REMARK    8  A    between atoms: C_25  and  C_26
REMARK    9  A    between atoms: C_25  and  C_27
REMARK                            x       y       z     vdW  Elec       q    Type
REMARK                         _______ _______ _______ _____ _____    ______ ____
ROOT
ATOM      3  N   UNL     1      -6.790 -11.066  18.279  0.00  0.00    -0.296 NA
ATOM      7  C   UNL     1      -4.402 -12.011  17.842  0.00  0.00    +0.002 C 
ATOM      8  C   UNL     1      -4.626 -10.703  17.033  0.00  0.00    +0.055 C 
ATOM      9  C   UNL     1      -5.493 -13.035  17.468  0.00  0.00    +0.026 C 
ATOM     10  C   UNL     1      -6.869 -12.509  17.931  0.00  0.00    +0.095 C 
ATOM     11  C   UNL     1      -6.125 -10.315  17.185  0.00  0.00    +0.094 C 
ATOM     12  C   UNL     1      -4.606 -11.653  19.330  0.00  0.00    +0.019 C 
ATOM     13  C   UNL     1      -5.958 -10.939  19.499  0.00  0.00    +0.085 C 
ENDROOT
BRANCH   8  14
ATOM      4  N   UNL     1      -2.849 -10.640  15.221  0.00  0.00    -0.271 N 
ATOM      5  N   UNL     1      -2.652 -10.612  13.892  0.00  0.00    -0.176 NA
ATOM     14  C   UNL     1      -4.164 -10.667  15.583  0.00  0.00    +0.044 A 
ATOM     16  C   UNL     1      -4.877 -10.652  14.409  0.00  0.00    +0.048 A 
ATOM     18  C   UNL     1      -3.894 -10.619  13.401  0.00  0.00    +0.066 A 
ATOM     23  C   UNL     1      -1.706 -10.640  16.104  0.00  0.00    +0.172 C 
BRANCH  18  17
ATOM     17  C   UNL     1      -4.111 -10.593  11.905  0.00  0.00    +0.040 C 
ATOM     19  C   UNL     1      -4.956  -9.389  11.452  0.00  0.00    +0.010 C 
ATOM     20  C   UNL     1      -2.814 -10.529  11.071  0.00  0.00    +0.010 C 
ATOM     21  C   UNL     1      -4.372  -8.991  10.105  0.00  0.00    +0.001 C 
ATOM     22  C   UNL     1      -2.883  -9.218  10.297  0.00  0.00    +0.001 C 
ENDBRANCH  18  17
ENDBRANCH   8  14
BRANCH  10  15
ATOM     15  C   UNL     1      -7.966 -12.801  16.904  0.00  0.00    +0.252 C 
BRANCH  15   1
ATOM      1  O   UNL     1      -9.221 -12.611  17.525  0.00  0.00    -0.449 OA
BRANCH   1  24
ATOM      2  O   UNL     1     -10.840 -11.938  16.040  0.00  0.00    -0.226 OA
ATOM      6  N   UNL     1      -9.881 -10.448  17.539  0.00  0.00    -0.279 N 
ATOM     24  C   UNL     1     -10.057 -11.683  16.950  0.00  0.00    +0.401 C 
ATOM     28  H   UNL     1      -9.230 -10.385  18.316  0.00  0.00    +0.152 HD
BRANCH   6  25
ATOM     25  C   UNL     1     -10.614  -9.265  17.155  0.00  0.00    +0.070 C 
ATOM     26  C   UNL     1      -9.736  -8.028  17.300  0.00  0.00    +0.027 C 
ATOM     27  C   UNL     1     -11.890  -9.135  17.976  0.00  0.00    +0.027 C 
ENDBRANCH   6  25
ENDBRANCH   1  24
ENDBRANCH  15   1
ENDBRANCH  10  15
TORSDOF 6
ENDMDL
MODEL 4
REMARK VINA RESULT:      -6.3     26.953     29.056
REMARK  Name = 40779157
REMARK  9 active torsions:
REMARK  status: ('A' for Active; 'I' for Inactive)
REMARK    1  A    between atoms: O_1  and  C_15
REMARK    2  A    between atoms: O_1  and  C_24
REMARK    3  A    between atoms: N_4  and  C_23
REMARK    4  A    between atoms: N_6  and  C_25
REMARK    5  A    between atoms: C_8  and  C_14
REMARK    6  A    between atoms: C_10  and  C_15
REMARK    7  A    between atoms: C_17  and  C_18
REMARK    8  A    between atoms: C_25  and  C_26
REMARK    9  A    between atoms: C_25  and  C_27
REMARK                            x       y       z     vdW  Elec       q    Type
REMARK                         _______ _______ _______ _____ _____    ______ ____
ROOT
ATOM      3  N   UNL     1      -5.133 -12.715  16.932  0.00  0.00    -0.296 NA
ATOM      7  C   UNL     1      -5.410 -10.637  18.478  0.00  0.00    +0.002 C 
ATOM      8  C   UNL     1      -6.798 -11.238  18.121  0.00  0.00    +0.055 C 
ATOM      9  C   UNL     1      -4.659 -10.281  17.178  0.00  0.00    +0.026 C 
ATOM     10  C   UNL     1      -4.346 -11.575  16.396  0.00  0.00    +0.095 C 
ATOM     11  C   UNL     1      -6.565 -12.338  17.045  0.00  0.00    +0.094 C 
ATOM     12  C   UNL     1      -4.606 -11.757  19.174  0.00  0.00    +0.019 C 
ATOM     13  C   UNL     1      -4.627 -13.018  18.292  0.00  0.00    +0.085 C 
ENDROOT
BRANCH   8  14
ATOM      4  N   UNL     1      -9.091 -10.193  18.425  0.00  0.00    -0.271 N 
ATOM      5  N   UNL     1      -9.948  -9.287  17.925  0.00  0.00    -0.176 NA
ATOM     14  C   UNL     1      -7.917 -10.282  17.736  0.00  0.00    +0.044 A 
ATOM     16  C   UNL     1      -8.015  -9.372  16.711  0.00  0.00    +0.048 A 
ATOM     18  C   UNL     1      -9.285  -8.789  16.878  0.00  0.00    +0.066 A 
ATOM     23  C   UNL     1      -9.471 -10.954  19.592  0.00  0.00    +0.172 C 
BRANCH  18  17
ATOM     17  C   UNL     1      -9.924  -7.714  16.026  0.00  0.00    +0.040 C 
ATOM     19  C   UNL     1     -10.618  -8.286  14.778  0.00  0.00    +0.010 C 
ATOM     20  C   UNL     1     -10.996  -6.875  16.753  0.00  0.00    +0.010 C 
ATOM     21  C   UNL     1     -11.841  -7.404  14.577  0.00  0.00    +0.001 C 
ATOM     22  C   UNL     1     -12.296  -7.122  15.997  0.00  0.00    +0.001 C 
ENDBRANCH  18  17
ENDBRANCH   8  14
BRANCH  10  15
ATOM     15  C   UNL     1      -4.538 -11.391  14.890  0.00  0.00    +0.252 C 
BRANCH  15   1
ATOM      1  O   UNL     1      -3.645 -10.390  14.444  0.00  0.00    -0.449 OA
BRANCH   1  24
ATOM      2  O   UNL     1      -1.784 -11.135  13.323  0.00  0.00    -0.226 OA
ATOM      6  N   UNL     1      -3.652 -10.362  12.184  0.00  0.00    -0.279 N 
ATOM     24  C   UNL     1      -2.920 -10.673  13.311  0.00  0.00    +0.401 C 
ATOM     28  H   UNL     1      -4.602 -10.029  12.316  0.00  0.00    +0.152 HD
BRANCH   6  25
ATOM     25  C   UNL     1      -3.166 -10.546  10.836  0.00  0.00    +0.070 C 
ATOM     26  C   UNL     1      -3.309  -9.254  10.042  0.00  0.00    +0.027 C 
ATOM     27  C   UNL     1      -3.896 -11.697  10.156  0.00  0.00    +0.027 C 
ENDBRANCH   6  25
ENDBRANCH   1  24
ENDBRANCH  15   1
ENDBRANCH  10  15
TORSDOF 6
ENDMDL
MODEL 5
REMARK VINA RESULT:      -6.2     26.548     28.135
REMARK  Name = 40779157
REMARK  9 active torsions:
REMARK  status: ('A' for Active; 'I' for Inactive)
REMARK    1  A    between atoms: O_1  and  C_15
REMARK    2  A    between atoms: O_1  and  C_24
REMARK    3  A    between atoms: N_4  and  C_23
REMARK    4  A    between atoms: N_6  and  C_25
REMARK    5  A    between atoms: C_8  and  C_14
REMARK    6  A    between atoms: C_10  and  C_15
REMARK    7  A    between atoms: C_17  and  C_18
REMARK    8  A    between atoms: C_25  and  C_26
REMARK    9  A    between atoms: C_25  and  C_27
REMARK                            x       y       z     vdW  Elec       q    Type
REMARK                         _______ _______ _______ _____ _____    ______ ____
ROOT
ATOM      3  N   UNL     1      -6.408 -12.152  17.507  0.00  0.00    -0.296 NA
ATOM      7  C   UNL     1      -7.230  -9.779  16.815  0.00  0.00    +0.002 C 
ATOM      8  C   UNL     1      -7.324 -10.760  15.613  0.00  0.00    +0.055 C 
ATOM      9  C   UNL     1      -5.778  -9.747  17.334  0.00  0.00    +0.026 C 
ATOM     10  C   UNL     1      -5.410 -11.130  17.915  0.00  0.00    +0.095 C 
ATOM     11  C   UNL     1      -6.633 -12.087  16.041  0.00  0.00    +0.094 C 
ATOM     12  C   UNL     1      -8.102 -10.374  17.942  0.00  0.00    +0.019 C 
ATOM     13  C   UNL     1      -7.687 -11.836  18.186  0.00  0.00    +0.085 C 
ENDROOT
BRANCH   8  14
ATOM      4  N   UNL     1      -7.684  -9.738  13.317  0.00  0.00    -0.271 N 
ATOM      5  N   UNL     1      -7.067  -9.371  12.181  0.00  0.00    -0.176 NA
ATOM     14  C   UNL     1      -6.847 -10.275  14.251  0.00  0.00    +0.044 A 
ATOM     16  C   UNL     1      -5.595 -10.258  13.686  0.00  0.00    +0.048 A 
ATOM     18  C   UNL     1      -5.791  -9.691  12.413  0.00  0.00    +0.066 A 
ATOM     23  C   UNL     1      -9.110  -9.542  13.440  0.00  0.00    +0.172 C 
BRANCH  18  17
ATOM     17  C   UNL     1      -4.746  -9.429  11.351  0.00  0.00    +0.040 C 
ATOM     19  C   UNL     1      -4.456 -10.671  10.490  0.00  0.00    +0.010 C 
ATOM     20  C   UNL     1      -5.112  -8.307  10.356  0.00  0.00    +0.010 C 
ATOM     21  C   UNL     1      -4.192 -10.121   9.096  0.00  0.00    +0.001 C 
ATOM     22  C   UNL     1      -5.180  -8.974   8.987  0.00  0.00    +0.001 C 
ENDBRANCH  18  17
ENDBRANCH   8  14
BRANCH  10  15
ATOM     15  C   UNL     1      -3.979 -11.536  17.558  0.00  0.00    +0.252 C 
BRANCH  15   1
ATOM      1  O   UNL     1      -3.431 -10.543  16.713  0.00  0.00    -0.449 OA
BRANCH   1  24
ATOM      2  O   UNL     1      -1.305 -10.362  15.862  0.00  0.00    -0.226 OA
ATOM      6  N   UNL     1      -2.748 -12.038  15.161  0.00  0.00    -0.279 N 
ATOM     24  C   UNL     1      -2.390 -10.933  15.903  0.00  0.00    +0.401 C 
ATOM     28  H   UNL     1      -3.665 -12.441  15.327  0.00  0.00    +0.152 HD
BRANCH   6  25
ATOM     25  C   UNL     1      -1.871 -12.687  14.214  0.00  0.00    +0.070 C 
ATOM     26  C   UNL     1      -1.937 -11.984  12.864  0.00  0.00    +0.027 C 
ATOM     27  C   UNL     1      -2.219 -14.164  14.086  0.00  0.00    +0.027 C 
ENDBRANCH   6  25
ENDBRANCH   1  24
ENDBRANCH  15   1
ENDBRANCH  10  15
TORSDOF 6
ENDMDL
MODEL 6
REMARK VINA RESULT:      -6.1      3.290      5.861
REMARK  Name = 40779157
REMARK  9 active torsions:
REMARK  status: ('A' for Active; 'I' for Inactive)
REMARK    1  A    between atoms: O_1  and  C_15
REMARK    2  A    between atoms: O_1  and  C_24
REMARK    3  A    between atoms: N_4  and  C_23
REMARK    4  A    between atoms: N_6  and  C_25
REMARK    5  A    between atoms: C_8  and  C_14
REMARK    6  A    between atoms: C_10  and  C_15
REMARK    7  A    between atoms: C_17  and  C_18
REMARK    8  A    between atoms: C_25  and  C_26
REMARK    9  A    between atoms: C_25  and  C_27
REMARK                            x       y       z     vdW  Elec       q    Type
REMARK                         _______ _______ _______ _____ _____    ______ ____
ROOT
ATOM      3  N   UNL     1      11.348   7.641  19.914  0.00  0.00    -0.296 NA
ATOM      7  C   UNL     1      13.350   8.679  21.219  0.00  0.00    +0.002 C 
ATOM      8  C   UNL     1      12.024   9.396  21.595  0.00  0.00    +0.055 C 
ATOM      9  C   UNL     1      13.562   8.766  19.693  0.00  0.00    +0.026 C 
ATOM     10  C   UNL     1      12.454   7.964  18.975  0.00  0.00    +0.095 C 
ATOM     11  C   UNL     1      10.920   8.865  20.637  0.00  0.00    +0.094 C 
ATOM     12  C   UNL     1      13.162   7.186  21.566  0.00  0.00    +0.019 C 
ATOM     13  C   UNL     1      11.867   6.673  20.911  0.00  0.00    +0.085 C 
ENDROOT
BRANCH   8  14
ATOM      4  N   UNL     1      11.539  11.602  22.755  0.00  0.00    -0.271 N 
ATOM      5  N   UNL     1      11.637  12.937  22.637  0.00  0.00    -0.176 NA
ATOM     14  C   UNL     1      12.030  10.916  21.683  0.00  0.00    +0.044 A 
ATOM     16  C   UNL     1      12.480  11.869  20.802  0.00  0.00    +0.048 A 
ATOM     18  C   UNL     1      12.213  13.094  21.442  0.00  0.00    +0.066 A 
ATOM     23  C   UNL     1      10.949  11.041  23.948  0.00  0.00    +0.172 C 
BRANCH  18  17
ATOM     17  C   UNL     1      12.505  14.486  20.926  0.00  0.00    +0.040 C 
ATOM     19  C   UNL     1      13.914  14.607  20.320  0.00  0.00    +0.010 C 
ATOM     20  C   UNL     1      11.536  14.978  19.831  0.00  0.00    +0.010 C 
ATOM     21  C   UNL     1      13.753  15.574  19.157  0.00  0.00    +0.001 C 
ATOM     22  C   UNL     1      12.394  15.207  18.592  0.00  0.00    +0.001 C 
ENDBRANCH  18  17
ENDBRANCH   8  14
BRANCH  10  15
ATOM     15  C   UNL     1      11.959   8.678  17.716  0.00  0.00    +0.252 C 
BRANCH  15   1
ATOM      1  O   UNL     1      12.602   8.104  16.595  0.00  0.00    -0.449 OA
BRANCH   1  24
ATOM      2  O   UNL     1      14.244   8.507  15.040  0.00  0.00    -0.226 OA
ATOM      6  N   UNL     1      13.373  10.215  16.347  0.00  0.00    -0.279 N 
ATOM     24  C   UNL     1      13.480   8.911  15.911  0.00  0.00    +0.401 C 
ATOM     28  H   UNL     1      12.664  10.422  17.044  0.00  0.00    +0.152 HD
BRANCH   6  25
ATOM     25  C   UNL     1      14.163  11.303  15.822  0.00  0.00    +0.070 C 
ATOM     26  C   UNL     1      14.281  12.417  16.854  0.00  0.00    +0.027 C 
ATOM     27  C   UNL     1      13.565  11.820  14.519  0.00  0.00    +0.027 C 
ENDBRANCH   6  25
ENDBRANCH   1  24
ENDBRANCH  15   1
ENDBRANCH  10  15
TORSDOF 6
ENDMDL
MODEL 7
REMARK VINA RESULT:      -6.0     23.729     27.238
REMARK  Name = 40779157
REMARK  9 active torsions:
REMARK  status: ('A' for Active; 'I' for Inactive)
REMARK    1  A    between atoms: O_1  and  C_15
REMARK    2  A    between atoms: O_1  and  C_24
REMARK    3  A    between atoms: N_4  and  C_23
REMARK    4  A    between atoms: N_6  and  C_25
REMARK    5  A    between atoms: C_8  and  C_14
REMARK    6  A    between atoms: C_10  and  C_15
REMARK    7  A    between atoms: C_17  and  C_18
REMARK    8  A    between atoms: C_25  and  C_26
REMARK    9  A    between atoms: C_25  and  C_27
REMARK                            x       y       z     vdW  Elec       q    Type
REMARK                         _______ _______ _______ _____ _____    ______ ____
ROOT
ATOM      3  N   UNL     1     -12.987   9.483  18.997  0.00  0.00    -0.296 NA
ATOM      7  C   UNL     1     -13.517   7.849  20.955  0.00  0.00    +0.002 C 
ATOM      8  C   UNL     1     -13.943   9.298  21.324  0.00  0.00    +0.055 C 
ATOM      9  C   UNL     1     -12.017   7.835  20.595  0.00  0.00    +0.026 C 
ATOM     10  C   UNL     1     -11.790   8.659  19.309  0.00  0.00    +0.095 C 
ATOM     11  C   UNL     1     -13.415  10.237  20.201  0.00  0.00    +0.094 C 
ATOM     12  C   UNL     1     -14.294   7.470  19.675  0.00  0.00    +0.019 C 
ATOM     13  C   UNL     1     -14.084   8.563  18.613  0.00  0.00    +0.085 C 
ENDROOT
BRANCH   8  14
ATOM      4  N   UNL     1     -14.426   9.650  23.791  0.00  0.00    -0.271 N 
ATOM      5  N   UNL     1     -13.944  10.177  24.929  0.00  0.00    -0.176 NA
ATOM     14  C   UNL     1     -13.603   9.814  22.715  0.00  0.00    +0.044 A 
ATOM     16  C   UNL     1     -12.507  10.497  23.182  0.00  0.00    +0.048 A 
ATOM     18  C   UNL     1     -12.771  10.693  24.551  0.00  0.00    +0.066 A 
ATOM     23  C   UNL     1     -15.710   8.989  23.808  0.00  0.00    +0.172 C 
BRANCH  18  17
ATOM     17  C   UNL     1     -11.896  11.394  25.566  0.00  0.00    +0.040 C 
ATOM     19  C   UNL     1     -12.694  11.906  26.779  0.00  0.00    +0.010 C 
ATOM     20  C   UNL     1     -10.766  10.521  26.148  0.00  0.00    +0.010 C 
ATOM     21  C   UNL     1     -11.754  11.730  27.962  0.00  0.00    +0.001 C 
ATOM     22  C   UNL     1     -11.044  10.426  27.644  0.00  0.00    +0.001 C 
ENDBRANCH  18  17
ENDBRANCH   8  14
BRANCH  10  15
ATOM     15  C   UNL     1     -10.511   9.495  19.386  0.00  0.00    +0.252 C 
BRANCH  15   1
ATOM      1  O   UNL     1      -9.734   9.229  18.235  0.00  0.00    -0.449 OA
BRANCH   1  24
ATOM      2  O   UNL     1     -10.468   9.711  16.112  0.00  0.00    -0.226 OA
ATOM      6  N   UNL     1      -9.430  11.318  17.425  0.00  0.00    -0.279 N 
ATOM     24  C   UNL     1      -9.928  10.060  17.157  0.00  0.00    +0.401 C 
ATOM     28  H   UNL     1      -9.048  11.486  18.351  0.00  0.00    +0.152 HD
BRANCH   6  25
ATOM     25  C   UNL     1      -9.483  12.417  16.491  0.00  0.00    +0.070 C 
ATOM     26  C   UNL     1      -8.145  13.144  16.453  0.00  0.00    +0.027 C 
ATOM     27  C   UNL     1     -10.618  13.368  16.846  0.00  0.00    +0.027 C 
ENDBRANCH   6  25
ENDBRANCH   1  24
ENDBRANCH  15   1
ENDBRANCH  10  15
TORSDOF 6
ENDMDL
MODEL 8
REMARK VINA RESULT:      -5.9     26.679     29.472
REMARK  Name = 40779157
REMARK  9 active torsions:
REMARK  status: ('A' for Active; 'I' for Inactive)
REMARK    1  A    between atoms: O_1  and  C_15
REMARK    2  A    between atoms: O_1  and  C_24
REMARK    3  A    between atoms: N_4  and  C_23
REMARK    4  A    between atoms: N_6  and  C_25
REMARK    5  A    between atoms: C_8  and  C_14
REMARK    6  A    between atoms: C_10  and  C_15
REMARK    7  A    between atoms: C_17  and  C_18
REMARK    8  A    between atoms: C_25  and  C_26
REMARK    9  A    between atoms: C_25  and  C_27
REMARK                            x       y       z     vdW  Elec       q    Type
REMARK                         _______ _______ _______ _____ _____    ______ ____
ROOT
ATOM      3  N   UNL     1      -6.685 -10.864  18.337  0.00  0.00    -0.296 NA
ATOM      7  C   UNL     1      -4.438 -12.058  17.782  0.00  0.00    +0.002 C 
ATOM      8  C   UNL     1      -4.535 -10.703  17.026  0.00  0.00    +0.055 C 
ATOM      9  C   UNL     1      -5.652 -12.936  17.414  0.00  0.00    +0.026 C 
ATOM     10  C   UNL     1      -6.942 -12.273  17.944  0.00  0.00    +0.095 C 
ATOM     11  C   UNL     1      -5.974 -10.152  17.246  0.00  0.00    +0.094 C 
ATOM     12  C   UNL     1      -4.550 -11.736  19.288  0.00  0.00    +0.019 C 
ATOM     13  C   UNL     1      -5.805 -10.879  19.530  0.00  0.00    +0.085 C 
ENDROOT
BRANCH   8  14
ATOM      4  N   UNL     1      -2.817 -10.649  15.158  0.00  0.00    -0.271 N 
ATOM      5  N   UNL     1      -2.662 -10.616  13.824  0.00  0.00    -0.176 NA
ATOM     14  C   UNL     1      -4.120 -10.665  15.563  0.00  0.00    +0.044 A 
ATOM     16  C   UNL     1      -4.870 -10.641  14.412  0.00  0.00    +0.048 A 
ATOM     18  C   UNL     1      -3.920 -10.612  13.373  0.00  0.00    +0.066 A 
ATOM     23  C   UNL     1      -1.646 -10.661  16.004  0.00  0.00    +0.172 C 
BRANCH  18  17
ATOM     17  C   UNL     1      -4.184 -10.578  11.885  0.00  0.00    +0.040 C 
ATOM     19  C   UNL     1      -5.032  -9.365  11.463  0.00  0.00    +0.010 C 
ATOM     20  C   UNL     1      -2.914 -10.523  11.010  0.00  0.00    +0.010 C 
ATOM     21  C   UNL     1      -4.488  -8.968  10.100  0.00  0.00    +0.001 C 
ATOM     22  C   UNL     1      -2.996  -9.208  10.243  0.00  0.00    +0.001 C 
ENDBRANCH  18  17
ENDBRANCH   8  14
BRANCH  10  15
ATOM     15  C   UNL     1      -8.098 -12.399  16.949  0.00  0.00    +0.252 C 
BRANCH  15   1
ATOM      1  O   UNL     1      -8.970 -13.415  17.403  0.00  0.00    -0.449 OA
BRANCH   1  24
ATOM      2  O   UNL     1     -10.268 -12.161  18.823  0.00  0.00    -0.226 OA
ATOM      6  N   UNL     1      -9.446 -14.237  19.455  0.00  0.00    -0.279 N 
ATOM     24  C   UNL     1      -9.624 -13.178  18.589  0.00  0.00    +0.401 C 
ATOM     28  H   UNL     1      -8.927 -15.041  19.116  0.00  0.00    +0.152 HD
BRANCH   6  25
ATOM     25  C   UNL     1     -10.010 -14.289  20.783  0.00  0.00    +0.070 C 
ATOM     26  C   UNL     1      -9.046 -14.979  21.740  0.00  0.00    +0.027 C 
ATOM     27  C   UNL     1     -11.363 -14.989  20.764  0.00  0.00    +0.027 C 
ENDBRANCH   6  25
ENDBRANCH   1  24
ENDBRANCH  15   1
ENDBRANCH  10  15
TORSDOF 6
ENDMDL
MODEL 9
REMARK VINA RESULT:      -5.8     21.192     24.542
REMARK  Name = 40779157
REMARK  9 active torsions:
REMARK  status: ('A' for Active; 'I' for Inactive)
REMARK    1  A    between atoms: O_1  and  C_15
REMARK    2  A    between atoms: O_1  and  C_24
REMARK    3  A    between atoms: N_4  and  C_23
REMARK    4  A    between atoms: N_6  and  C_25
REMARK    5  A    between atoms: C_8  and  C_14
REMARK    6  A    between atoms: C_10  and  C_15
REMARK    7  A    between atoms: C_17  and  C_18
REMARK    8  A    between atoms: C_25  and  C_26
REMARK    9  A    between atoms: C_25  and  C_27
REMARK                            x       y       z     vdW  Elec       q    Type
REMARK                         _______ _______ _______ _____ _____    ______ ____
ROOT
ATOM      3  N   UNL     1      -3.308  10.873   5.821  0.00  0.00    -0.296 NA
ATOM      7  C   UNL     1      -1.732   8.956   5.031  0.00  0.00    +0.002 C 
ATOM      8  C   UNL     1      -1.552  10.213   4.135  0.00  0.00    +0.055 C 
ATOM      9  C   UNL     1      -3.211   8.520   5.007  0.00  0.00    +0.026 C 
ATOM     10  C   UNL     1      -4.079   9.612   5.669  0.00  0.00    +0.095 C 
ATOM     11  C   UNL     1      -2.658  11.231   4.535  0.00  0.00    +0.094 C 
ATOM     12  C   UNL     1      -1.412   9.393   6.478  0.00  0.00    +0.019 C 
ATOM     13  C   UNL     1      -2.245  10.638   6.827  0.00  0.00    +0.085 C 
ENDROOT
BRANCH   8  14
ATOM      4  N   UNL     1      -0.322  10.204   1.914  0.00  0.00    -0.271 N 
ATOM      5  N   UNL     1      -0.458   9.976   0.597  0.00  0.00    -0.176 NA
ATOM     14  C   UNL     1      -1.469  10.014   2.628  0.00  0.00    +0.044 A 
ATOM     16  C   UNL     1      -2.421   9.636   1.713  0.00  0.00    +0.048 A 
ATOM     18  C   UNL     1      -1.742   9.629   0.480  0.00  0.00    +0.066 A 
ATOM     23  C   UNL     1       0.964  10.612   2.430  0.00  0.00    +0.172 C 
BRANCH  18  17
ATOM     17  C   UNL     1      -2.307   9.285  -0.880  0.00  0.00    +0.040 C 
ATOM     19  C   UNL     1      -3.629  10.016  -1.172  0.00  0.00    +0.010 C 
ATOM     20  C   UNL     1      -1.375   9.618  -2.063  0.00  0.00    +0.010 C 
ATOM     21  C   UNL     1      -3.584  10.314  -2.664  0.00  0.00    +0.001 C 
ATOM     22  C   UNL     1      -2.123  10.648  -2.902  0.00  0.00    +0.001 C 
ENDBRANCH  18  17
ENDBRANCH   8  14
BRANCH  10  15
ATOM     15  C   UNL     1      -5.398   9.822   4.924  0.00  0.00    +0.252 C 
BRANCH  15   1
ATOM      1  O   UNL     1      -5.585   8.739   4.033  0.00  0.00    -0.449 OA
BRANCH   1  24
ATOM      2  O   UNL     1      -7.560   8.161   3.012  0.00  0.00    -0.226 OA
ATOM      6  N   UNL     1      -7.155   7.646   5.238  0.00  0.00    -0.279 N 
ATOM     24  C   UNL     1      -6.839   8.177   4.005  0.00  0.00    +0.401 C 
ATOM     28  H   UNL     1      -6.445   7.685   5.964  0.00  0.00    +0.152 HD
BRANCH   6  25
ATOM     25  C   UNL     1      -8.405   6.984   5.530  0.00  0.00    +0.070 C 
ATOM     26  C   UNL     1      -8.943   7.442   6.880  0.00  0.00    +0.027 C 
ATOM     27  C   UNL     1      -8.232   5.471   5.490  0.00  0.00    +0.027 C 
ENDBRANCH   6  25
ENDBRANCH   1  24
ENDBRANCH  15   1
ENDBRANCH  10  15
TORSDOF 6
ENDMDL
MODEL 10
REMARK VINA RESULT:      -5.8      3.071      5.466
REMARK  Name = 40779157
REMARK  9 active torsions:
REMARK  status: ('A' for Active; 'I' for Inactive)
REMARK    1  A    between atoms: O_1  and  C_15
REMARK    2  A    between atoms: O_1  and  C_24
REMARK    3  A    between atoms: N_4  and  C_23
REMARK    4  A    between atoms: N_6  and  C_25
REMARK    5  A    between atoms: C_8  and  C_14
REMARK    6  A    between atoms: C_10  and  C_15
REMARK    7  A    between atoms: C_17  and  C_18
REMARK    8  A    between atoms: C_25  and  C_26
REMARK    9  A    between atoms: C_25  and  C_27
REMARK                            x       y       z     vdW  Elec       q    Type
REMARK                         _______ _______ _______ _____ _____    ______ ____
ROOT
ATOM      3  N   UNL     1      14.621   8.213  19.123  0.00  0.00    -0.296 NA
ATOM      7  C   UNL     1      12.040   8.360  19.445  0.00  0.00    +0.002 C 
ATOM      8  C   UNL     1      12.678   9.776  19.508  0.00  0.00    +0.055 C 
ATOM      9  C   UNL     1      12.694   7.458  20.513  0.00  0.00    +0.026 C 
ATOM     10  C   UNL     1      14.183   7.244  20.160  0.00  0.00    +0.095 C 
ATOM     11  C   UNL     1      14.223   9.589  19.511  0.00  0.00    +0.094 C 
ATOM     12  C   UNL     1      12.406   7.768  18.066  0.00  0.00    +0.019 C 
ATOM     13  C   UNL     1      13.927   7.870  17.858  0.00  0.00    +0.085 C 
ENDROOT
BRANCH   8  14
ATOM      4  N   UNL     1      12.403  12.076  20.545  0.00  0.00    -0.271 N 
ATOM      5  N   UNL     1      11.914  12.739  21.607  0.00  0.00    -0.176 NA
ATOM     14  C   UNL     1      12.209  10.727  20.600  0.00  0.00    +0.044 A 
ATOM     16  C   UNL     1      11.548  10.491  21.780  0.00  0.00    +0.048 A 
ATOM     18  C   UNL     1      11.392  11.765  22.358  0.00  0.00    +0.066 A 
ATOM     23  C   UNL     1      13.060  12.817  19.493  0.00  0.00    +0.172 C 
BRANCH  18  17
ATOM     17  C   UNL     1      10.728  12.105  23.673  0.00  0.00    +0.040 C 
ATOM     19  C   UNL     1      11.716  12.101  24.852  0.00  0.00    +0.010 C 
ATOM     20  C   UNL     1      10.044  13.487  23.706  0.00  0.00    +0.010 C 
ATOM     21  C   UNL     1      11.235  13.220  25.764  0.00  0.00    +0.001 C 
ATOM     22  C   UNL     1      10.769  14.282  24.786  0.00  0.00    +0.001 C 
ENDBRANCH  18  17
ENDBRANCH   8  14
BRANCH  10  15
ATOM     15  C   UNL     1      15.074   7.277  21.404  0.00  0.00    +0.252 C 
BRANCH  15   1
ATOM      1  O   UNL     1      16.010   6.222  21.311  0.00  0.00    -0.449 OA
BRANCH   1  24
ATOM      2  O   UNL     1      17.646   6.649  19.756  0.00  0.00    -0.226 OA
ATOM      6  N   UNL     1      18.076   6.789  22.032  0.00  0.00    -0.279 N 
ATOM     24  C   UNL     1      17.284   6.564  20.926  0.00  0.00    +0.401 C 
ATOM     28  H   UNL     1      17.637   6.730  22.946  0.00  0.00    +0.152 HD
BRANCH   6  25
ATOM     25  C   UNL     1      19.468   7.166  21.959  0.00  0.00    +0.070 C 
ATOM     26  C   UNL     1      19.604   8.584  21.418  0.00  0.00    +0.027 C 
ATOM     27  C   UNL     1      20.248   6.173  21.108  0.00  0.00    +0.027 C 
ENDBRANCH   6  25
ENDBRANCH   1  24
ENDBRANCH  15   1
ENDBRANCH  10  15
TORSDOF 6
ENDMDL
