MODEL 1
REMARK VINA RESULT:      -7.1      0.000      0.000
REMARK  Name = 11882863
REMARK  11 active torsions:
REMARK  status: ('A' for Active; 'I' for Inactive)
REMARK    1  A    between atoms: O_3  and  C_15
REMARK    2  A    between atoms: O_4  and  C_20
REMARK    3  A    between atoms: N_8  and  C_26
REMARK    4  A    between atoms: N_8  and  C_27
REMARK    5  A    between atoms: C_10  and  C_18
REMARK    6  A    between atoms: C_12  and  C_20
REMARK    7  A    between atoms: C_12  and  C_21
REMARK    8  A    between atoms: C_13  and  C_23
REMARK    9  A    between atoms: C_23  and  C_24
REMARK   10  A    between atoms: C_26  and  C_29
REMARK   11  A    between atoms: C_28  and  C_30
REMARK                            x       y       z     vdW  Elec       q    Type
REMARK                         _______ _______ _______ _____ _____    ______ ____
ROOT
ATOM      1  S   UNL     1      17.807   5.951  19.514  0.00  0.00    -0.057 S 
ATOM      6  O   UNL     1      20.968   8.049  22.212  0.00  0.00    -0.270 OA
ATOM      7  N   UNL     1      18.227   7.947  21.104  0.00  0.00    -0.229 NA
ATOM      9  N   UNL     1      20.078   6.450  20.727  0.00  0.00    -0.261 N 
ATOM     10  C   UNL     1      14.713   9.246  20.193  0.00  0.00    -0.019 C 
ATOM     11  C   UNL     1      14.144   7.776  19.963  0.00  0.00    +0.011 C 
ATOM     12  C   UNL     1      12.668   7.657  19.419  0.00  0.00    +0.021 C 
ATOM     13  C   UNL     1      16.002   9.133  21.131  0.00  0.00    +0.054 C 
ATOM     14  C   UNL     1      13.648  10.103  20.924  0.00  0.00    +0.010 C 
ATOM     15  C   UNL     1      11.745   8.612  20.230  0.00  0.00    +0.123 C 
ATOM     16  C   UNL     1      15.166   6.882  19.202  0.00  0.00    +0.049 C 
ATOM     17  C   UNL     1      12.266  10.043  20.290  0.00  0.00    +0.032 C 
ATOM     18  C   UNL     1      15.098   9.954  18.871  0.00  0.00    +0.012 C 
ATOM     19  C   UNL     1      16.920   8.036  20.661  0.00  0.00    +0.058 A 
ATOM     21  C   UNL     1      12.156   6.207  19.657  0.00  0.00    +0.016 C 
ATOM     22  C   UNL     1      16.520   7.025  19.810  0.00  0.00    +0.015 A 
ATOM     25  C   UNL     1      18.792   6.892  20.559  0.00  0.00    +0.165 A 
ATOM     28  C   UNL     1      21.071   7.038  21.525  0.00  0.00    +0.250 C 
ATOM     43  H   UNL     1      20.275   5.584  20.235  0.00  0.00    +0.157 HD
ENDROOT
BRANCH  28  30
ATOM      2  F   UNL     1      25.998   4.343  21.607  0.00  0.00    -0.205 F 
ATOM     30  C   UNL     1      22.376   6.325  21.546  0.00  0.00    +0.037 A 
ATOM     33  C   UNL     1      23.330   6.644  22.514  0.00  0.00    +0.016 A 
ATOM     34  C   UNL     1      22.646   5.337  20.600  0.00  0.00    +0.016 A 
ATOM     38  C   UNL     1      24.553   5.974  22.534  0.00  0.00    +0.039 A 
ATOM     39  C   UNL     1      23.870   4.667  20.620  0.00  0.00    +0.039 A 
ATOM     40  C   UNL     1      24.824   4.986  21.587  0.00  0.00    +0.123 A 
ENDBRANCH  28  30
BRANCH  15   3
ATOM      3  O   UNL     1      10.428   8.624  19.680  0.00  0.00    -0.391 OA
ATOM     41  H   UNL     1      10.152   7.699  19.556  0.00  0.00    +0.210 HD
ENDBRANCH  15   3
BRANCH  12  20
ATOM     20  C   UNL     1      12.521   7.906  17.902  0.00  0.00    +0.165 C 
BRANCH  20   4
ATOM      4  O   UNL     1      11.749   6.856  17.365  0.00  0.00    -0.394 OA
ATOM     42  H   UNL     1      12.365   6.217  16.969  0.00  0.00    +0.209 HD
ENDBRANCH  20   4
ENDBRANCH  12  20
BRANCH  13  23
ATOM     23  C   UNL     1      16.760  10.453  21.332  0.00  0.00    +0.106 C 
BRANCH  23  24
ATOM      5  O   UNL     1      15.601  11.099  23.328  0.00  0.00    -0.276 OA
ATOM      8  N   UNL     1      15.769  12.692  21.651  0.00  0.00    -0.300 N 
ATOM     24  C   UNL     1      15.992  11.427  22.205  0.00  0.00    +0.216 C 
ATOM     27  C   UNL     1      16.240  13.057  20.320  0.00  0.00    +0.132 C 
BRANCH   8  26
ATOM     26  C   UNL     1      15.047  13.743  22.363  0.00  0.00    +0.142 C 
BRANCH  26  29
ATOM     29  C   UNL     1      13.558  13.584  22.242  0.00  0.00    -0.030 A 
ATOM     31  C   UNL     1      12.813  13.144  23.335  0.00  0.00    +0.005 A 
ATOM     32  C   UNL     1      12.922  13.877  21.036  0.00  0.00    +0.005 A 
ATOM     35  C   UNL     1      11.431  12.995  23.223  0.00  0.00    +0.000 A 
ATOM     36  C   UNL     1      11.540  13.728  20.924  0.00  0.00    +0.000 A 
ATOM     37  C   UNL     1      10.794  13.288  22.016  0.00  0.00    +0.000 A 
ENDBRANCH  26  29
ENDBRANCH   8  26
ENDBRANCH  23  24
ENDBRANCH  13  23
TORSDOF 8
ENDMDL
MODEL 2
REMARK VINA RESULT:      -7.1     30.193     33.820
REMARK  Name = 11882863
REMARK  11 active torsions:
REMARK  status: ('A' for Active; 'I' for Inactive)
REMARK    1  A    between atoms: O_3  and  C_15
REMARK    2  A    between atoms: O_4  and  C_20
REMARK    3  A    between atoms: N_8  and  C_26
REMARK    4  A    between atoms: N_8  and  C_27
REMARK    5  A    between atoms: C_10  and  C_18
REMARK    6  A    between atoms: C_12  and  C_20
REMARK    7  A    between atoms: C_12  and  C_21
REMARK    8  A    between atoms: C_13  and  C_23
REMARK    9  A    between atoms: C_23  and  C_24
REMARK   10  A    between atoms: C_26  and  C_29
REMARK   11  A    between atoms: C_28  and  C_30
REMARK                            x       y       z     vdW  Elec       q    Type
REMARK                         _______ _______ _______ _____ _____    ______ ____
ROOT
ATOM      1  S   UNL     1     -11.770 -10.503  19.033  0.00  0.00    -0.057 S 
ATOM      6  O   UNL     1      -7.998  -8.965  16.780  0.00  0.00    -0.270 OA
ATOM      7  N   UNL     1     -10.929  -8.914  17.173  0.00  0.00    -0.229 NA
ATOM      9  N   UNL     1      -9.260 -10.213  18.330  0.00  0.00    -0.261 N 
ATOM     10  C   UNL     1     -14.615  -8.165  16.325  0.00  0.00    -0.019 C 
ATOM     11  C   UNL     1     -15.086  -8.379  17.831  0.00  0.00    +0.011 C 
ATOM     12  C   UNL     1     -16.637  -8.314  18.111  0.00  0.00    +0.021 C 
ATOM     13  C   UNL     1     -13.051  -7.835  16.341  0.00  0.00    +0.054 C 
ATOM     14  C   UNL     1     -15.365  -6.952  15.717  0.00  0.00    +0.010 C 
ATOM     15  C   UNL     1     -17.235  -7.069  17.395  0.00  0.00    +0.123 C 
ATOM     16  C   UNL     1     -14.384  -9.608  18.478  0.00  0.00    +0.049 C 
ATOM     17  C   UNL     1     -16.873  -6.996  15.916  0.00  0.00    +0.032 C 
ATOM     18  C   UNL     1     -14.871  -9.404  15.433  0.00  0.00    +0.012 C 
ATOM     19  C   UNL     1     -12.305  -8.791  17.234  0.00  0.00    +0.058 A 
ATOM     21  C   UNL     1     -16.869  -8.125  19.638  0.00  0.00    +0.016 C 
ATOM     22  C   UNL     1     -12.920  -9.564  18.199  0.00  0.00    +0.015 A 
ATOM     25  C   UNL     1     -10.538  -9.794  18.069  0.00  0.00    +0.165 A 
ATOM     28  C   UNL     1      -8.088  -9.785  17.687  0.00  0.00    +0.250 C 
ATOM     43  H   UNL     1      -9.200 -10.872  19.100  0.00  0.00    +0.157 HD
ENDROOT
BRANCH  28  30
ATOM      2  F   UNL     1      -3.328 -12.064  19.607  0.00  0.00    -0.205 F 
ATOM     30  C   UNL     1      -6.827 -10.388  18.195  0.00  0.00    +0.037 A 
ATOM     33  C   UNL     1      -6.739 -10.801  19.526  0.00  0.00    +0.016 A 
ATOM     34  C   UNL     1      -5.734 -10.542  17.343  0.00  0.00    +0.016 A 
ATOM     38  C   UNL     1      -5.556 -11.368  20.002  0.00  0.00    +0.039 A 
ATOM     39  C   UNL     1      -4.552 -11.108  17.820  0.00  0.00    +0.039 A 
ATOM     40  C   UNL     1      -4.462 -11.521  19.150  0.00  0.00    +0.123 A 
ENDBRANCH  28  30
BRANCH  15   3
ATOM      3  O   UNL     1     -18.657  -7.052  17.522  0.00  0.00    -0.391 OA
ATOM     41  H   UNL     1     -18.872  -6.596  18.354  0.00  0.00    +0.210 HD
ENDBRANCH  15   3
BRANCH  12  20
ATOM     20  C   UNL     1     -17.412  -9.594  17.730  0.00  0.00    +0.165 C 
BRANCH  20   4
ATOM      4  O   UNL     1     -18.445  -9.771  18.673  0.00  0.00    -0.394 OA
ATOM     42  H   UNL     1     -18.476  -8.969  19.222  0.00  0.00    +0.209 HD
ENDBRANCH  20   4
ENDBRANCH  12  20
BRANCH  13  23
ATOM     23  C   UNL     1     -12.405  -7.744  14.952  0.00  0.00    +0.106 C 
BRANCH  23  24
ATOM      5  O   UNL     1     -11.294  -5.675  15.431  0.00  0.00    -0.276 OA
ATOM      8  N   UNL     1     -12.330  -5.854  13.364  0.00  0.00    -0.300 N 
ATOM     24  C   UNL     1     -11.952  -6.334  14.622  0.00  0.00    +0.216 C 
ATOM     27  C   UNL     1     -13.110  -6.652  12.425  0.00  0.00    +0.132 C 
BRANCH   8  26
ATOM     26  C   UNL     1     -11.972  -4.517  12.896  0.00  0.00    +0.142 C 
BRANCH  26  29
ATOM     29  C   UNL     1     -13.059  -3.905  12.059  0.00  0.00    -0.030 A 
ATOM     31  C   UNL     1     -14.250  -3.495  12.655  0.00  0.00    +0.005 A 
ATOM     32  C   UNL     1     -12.876  -3.749  10.685  0.00  0.00    +0.005 A 
ATOM     35  C   UNL     1     -15.260  -2.927  11.879  0.00  0.00    +0.000 A 
ATOM     36  C   UNL     1     -13.886  -3.180   9.908  0.00  0.00    +0.000 A 
ATOM     37  C   UNL     1     -15.077  -2.769  10.505  0.00  0.00    +0.000 A 
ENDBRANCH  26  29
ENDBRANCH   8  26
ENDBRANCH  23  24
ENDBRANCH  13  23
TORSDOF 8
ENDMDL
MODEL 3
REMARK VINA RESULT:      -6.9     30.254     32.739
REMARK  Name = 11882863
REMARK  11 active torsions:
REMARK  status: ('A' for Active; 'I' for Inactive)
REMARK    1  A    between atoms: O_3  and  C_15
REMARK    2  A    between atoms: O_4  and  C_20
REMARK    3  A    between atoms: N_8  and  C_26
REMARK    4  A    between atoms: N_8  and  C_27
REMARK    5  A    between atoms: C_10  and  C_18
REMARK    6  A    between atoms: C_12  and  C_20
REMARK    7  A    between atoms: C_12  and  C_21
REMARK    8  A    between atoms: C_13  and  C_23
REMARK    9  A    between atoms: C_23  and  C_24
REMARK   10  A    between atoms: C_26  and  C_29
REMARK   11  A    between atoms: C_28  and  C_30
REMARK                            x       y       z     vdW  Elec       q    Type
REMARK                         _______ _______ _______ _____ _____    ______ ____
ROOT
ATOM      1  S   UNL     1      -6.156 -10.673  12.244  0.00  0.00    -0.057 S 
ATOM      6  O   UNL     1      -9.372  -8.210   9.950  0.00  0.00    -0.270 OA
ATOM      7  N   UNL     1      -8.381  -9.375  12.482  0.00  0.00    -0.229 NA
ATOM      9  N   UNL     1      -7.411  -9.475  10.277  0.00  0.00    -0.261 N 
ATOM     10  C   UNL     1      -8.538 -10.572  16.143  0.00  0.00    -0.019 C 
ATOM     11  C   UNL     1      -6.952 -10.604  16.283  0.00  0.00    +0.011 C 
ATOM     12  C   UNL     1      -6.364 -11.170  17.633  0.00  0.00    +0.021 C 
ATOM     13  C   UNL     1      -8.906  -9.588  14.939  0.00  0.00    +0.054 C 
ATOM     14  C   UNL     1      -9.159 -10.004  17.446  0.00  0.00    +0.010 C 
ATOM     15  C   UNL     1      -7.127 -10.534  18.830  0.00  0.00    +0.123 C 
ATOM     16  C   UNL     1      -6.281 -11.196  15.010  0.00  0.00    +0.049 C 
ATOM     17  C   UNL     1      -8.641 -10.665  18.715  0.00  0.00    +0.032 C 
ATOM     18  C   UNL     1      -9.146 -11.969  15.871  0.00  0.00    +0.012 C 
ATOM     19  C   UNL     1      -8.051  -9.866  13.731  0.00  0.00    +0.058 A 
ATOM     21  C   UNL     1      -4.873 -10.742  17.755  0.00  0.00    +0.016 C 
ATOM     22  C   UNL     1      -6.867 -10.574  13.788  0.00  0.00    +0.015 A 
ATOM     25  C   UNL     1      -7.459  -9.744  11.620  0.00  0.00    +0.165 A 
ATOM     28  C   UNL     1      -8.348  -8.740   9.534  0.00  0.00    +0.250 C 
ATOM     43  H   UNL     1      -6.576  -9.831   9.823  0.00  0.00    +0.157 HD
ENDROOT
BRANCH  28  30
ATOM      2  F   UNL     1      -7.138  -8.120   4.085  0.00  0.00    -0.205 F 
ATOM     30  C   UNL     1      -8.028  -8.576   8.091  0.00  0.00    +0.037 A 
ATOM     33  C   UNL     1      -8.658  -7.578   7.346  0.00  0.00    +0.016 A 
ATOM     34  C   UNL     1      -7.098  -9.419   7.482  0.00  0.00    +0.016 A 
ATOM     38  C   UNL     1      -8.356  -7.424   5.992  0.00  0.00    +0.039 A 
ATOM     39  C   UNL     1      -6.798  -9.265   6.129  0.00  0.00    +0.039 A 
ATOM     40  C   UNL     1      -7.427  -8.268   5.383  0.00  0.00    +0.123 A 
ENDBRANCH  28  30
BRANCH  15   3
ATOM      3  O   UNL     1      -6.706 -11.120  20.062  0.00  0.00    -0.391 OA
ATOM     41  H   UNL     1      -5.869 -10.697  20.318  0.00  0.00    +0.210 HD
ENDBRANCH  15   3
BRANCH  12  20
ATOM     20  C   UNL     1      -6.364 -12.711  17.736  0.00  0.00    +0.165 C 
BRANCH  20   4
ATOM      4  O   UNL     1      -5.284 -13.088  18.560  0.00  0.00    -0.394 OA
ATOM     42  H   UNL     1      -4.480 -13.062  18.014  0.00  0.00    +0.209 HD
ENDBRANCH  20   4
ENDBRANCH  12  20
BRANCH  13  23
ATOM     23  C   UNL     1     -10.397  -9.556  14.576  0.00  0.00    +0.106 C 
BRANCH  23  24
ATOM      5  O   UNL     1     -10.368  -7.268  15.291  0.00  0.00    -0.276 OA
ATOM      8  N   UNL     1     -12.273  -7.997  14.187  0.00  0.00    -0.300 N 
ATOM     24  C   UNL     1     -10.994  -8.169  14.726  0.00  0.00    +0.216 C 
ATOM     27  C   UNL     1     -12.993  -9.078  13.523  0.00  0.00    +0.132 C 
BRANCH   8  26
ATOM     26  C   UNL     1     -12.984  -6.723  14.247  0.00  0.00    +0.142 C 
BRANCH  26  29
ATOM     29  C   UNL     1     -12.650  -5.837  13.081  0.00  0.00    -0.030 A 
ATOM     31  C   UNL     1     -12.522  -4.461  13.265  0.00  0.00    +0.005 A 
ATOM     32  C   UNL     1     -12.469  -6.392  11.814  0.00  0.00    +0.005 A 
ATOM     35  C   UNL     1     -12.213  -3.638  12.182  0.00  0.00    +0.000 A 
ATOM     36  C   UNL     1     -12.159  -5.569  10.731  0.00  0.00    +0.000 A 
ATOM     37  C   UNL     1     -12.031  -4.193  10.915  0.00  0.00    +0.000 A 
ENDBRANCH  26  29
ENDBRANCH   8  26
ENDBRANCH  23  24
ENDBRANCH  13  23
TORSDOF 8
ENDMDL
MODEL 4
REMARK VINA RESULT:      -6.8     18.510     22.057
REMARK  Name = 11882863
REMARK  11 active torsions:
REMARK  status: ('A' for Active; 'I' for Inactive)
REMARK    1  A    between atoms: O_3  and  C_15
REMARK    2  A    between atoms: O_4  and  C_20
REMARK    3  A    between atoms: N_8  and  C_26
REMARK    4  A    between atoms: N_8  and  C_27
REMARK    5  A    between atoms: C_10  and  C_18
REMARK    6  A    between atoms: C_12  and  C_20
REMARK    7  A    between atoms: C_12  and  C_21
REMARK    8  A    between atoms: C_13  and  C_23
REMARK    9  A    between atoms: C_23  and  C_24
REMARK   10  A    between atoms: C_26  and  C_29
REMARK   11  A    between atoms: C_28  and  C_30
REMARK                            x       y       z     vdW  Elec       q    Type
REMARK                         _______ _______ _______ _____ _____    ______ ____
ROOT
ATOM      1  S   UNL     1      11.216   3.528   2.413  0.00  0.00    -0.057 S 
ATOM      6  O   UNL     1       9.429   7.020   4.921  0.00  0.00    -0.270 OA
ATOM      7  N   UNL     1      10.299   5.944   2.306  0.00  0.00    -0.229 NA
ATOM      9  N   UNL     1      10.333   4.890   4.473  0.00  0.00    -0.261 N 
ATOM     10  C   UNL     1      11.341   6.038  -1.405  0.00  0.00    -0.019 C 
ATOM     11  C   UNL     1      11.102   4.475  -1.592  0.00  0.00    +0.011 C 
ATOM     12  C   UNL     1      11.501   3.852  -2.986  0.00  0.00    +0.021 C 
ATOM     13  C   UNL     1      10.487   6.519  -0.142  0.00  0.00    +0.054 C 
ATOM     14  C   UNL     1      10.828   6.792  -2.659  0.00  0.00    +0.010 C 
ATOM     15  C   UNL     1      10.949   4.754  -4.127  0.00  0.00    +0.123 C 
ATOM     16  C   UNL     1      11.629   3.667  -0.371  0.00  0.00    +0.049 C 
ATOM     17  C   UNL     1      11.337   6.220  -3.974  0.00  0.00    +0.032 C 
ATOM     18  C   UNL     1      12.831   6.395  -1.185  0.00  0.00    +0.012 C 
ATOM     19  C   UNL     1      10.672   5.584   1.024  0.00  0.00    +0.058 A 
ATOM     21  C   UNL     1      10.825   2.458  -3.130  0.00  0.00    +0.016 C 
ATOM     22  C   UNL     1      11.169   4.302   0.897  0.00  0.00    +0.015 A 
ATOM     25  C   UNL     1      10.547   4.942   3.121  0.00  0.00    +0.165 A 
ATOM     28  C   UNL     1       9.799   5.906   5.279  0.00  0.00    +0.250 C 
ATOM     43  H   UNL     1      10.565   3.991   4.884  0.00  0.00    +0.157 HD
ENDROOT
BRANCH  28  30
ATOM      2  F   UNL     1       9.227   4.615  10.715  0.00  0.00    -0.205 F 
ATOM     30  C   UNL     1       9.649   5.565   6.719  0.00  0.00    +0.037 A 
ATOM     33  C   UNL     1       9.219   6.535   7.625  0.00  0.00    +0.016 A 
ATOM     34  C   UNL     1       9.935   4.274   7.163  0.00  0.00    +0.016 A 
ATOM     38  C   UNL     1       9.077   6.214   8.975  0.00  0.00    +0.039 A 
ATOM     39  C   UNL     1       9.793   3.953   8.514  0.00  0.00    +0.039 A 
ATOM     40  C   UNL     1       9.364   4.923   9.420  0.00  0.00    +0.123 A 
ENDBRANCH  28  30
BRANCH  15   3
ATOM      3  O   UNL     1      11.401   4.288  -5.398  0.00  0.00    -0.391 OA
ATOM     41  H   UNL     1      12.009   4.957  -5.757  0.00  0.00    +0.210 HD
ENDBRANCH  15   3
BRANCH  12  20
ATOM     20  C   UNL     1      13.014   3.600  -3.166  0.00  0.00    +0.165 C 
BRANCH  20   4
ATOM      4  O   UNL     1      13.168   2.491  -4.023  0.00  0.00    -0.394 OA
ATOM     42  H   UNL     1      12.796   2.739  -4.886  0.00  0.00    +0.209 HD
ENDBRANCH  20   4
ENDBRANCH  12  20
BRANCH  13  23
ATOM     23  C   UNL     1      10.721   7.980   0.265  0.00  0.00    +0.106 C 
BRANCH  23  24
ATOM      5  O   UNL     1       8.611   8.453   1.298  0.00  0.00    -0.276 OA
ATOM      8  N   UNL     1       9.221   9.786  -0.499  0.00  0.00    -0.300 N 
ATOM     24  C   UNL     1       9.421   8.747   0.416  0.00  0.00    +0.216 C 
ATOM     27  C   UNL     1      10.195  10.115  -1.534  0.00  0.00    +0.132 C 
BRANCH   8  26
ATOM     26  C   UNL     1       8.023  10.621  -0.486  0.00  0.00    +0.142 C 
BRANCH  26  29
ATOM     29  C   UNL     1       6.805   9.862  -0.930  0.00  0.00    -0.030 A 
ATOM     31  C   UNL     1       6.795   9.221  -2.168  0.00  0.00    +0.005 A 
ATOM     32  C   UNL     1       5.684   9.799  -0.102  0.00  0.00    +0.005 A 
ATOM     35  C   UNL     1       5.664   8.517  -2.580  0.00  0.00    +0.000 A 
ATOM     36  C   UNL     1       4.553   9.094  -0.514  0.00  0.00    +0.000 A 
ATOM     37  C   UNL     1       4.543   8.453  -1.753  0.00  0.00    +0.000 A 
ENDBRANCH  26  29
ENDBRANCH   8  26
ENDBRANCH  23  24
ENDBRANCH  13  23
TORSDOF 8
ENDMDL
MODEL 5
REMARK VINA RESULT:      -6.8     27.904     31.992
REMARK  Name = 11882863
REMARK  11 active torsions:
REMARK  status: ('A' for Active; 'I' for Inactive)
REMARK    1  A    between atoms: O_3  and  C_15
REMARK    2  A    between atoms: O_4  and  C_20
REMARK    3  A    between atoms: N_8  and  C_26
REMARK    4  A    between atoms: N_8  and  C_27
REMARK    5  A    between atoms: C_10  and  C_18
REMARK    6  A    between atoms: C_12  and  C_20
REMARK    7  A    between atoms: C_12  and  C_21
REMARK    8  A    between atoms: C_13  and  C_23
REMARK    9  A    between atoms: C_23  and  C_24
REMARK   10  A    between atoms: C_26  and  C_29
REMARK   11  A    between atoms: C_28  and  C_30
REMARK                            x       y       z     vdW  Elec       q    Type
REMARK                         _______ _______ _______ _____ _____    ______ ____
ROOT
ATOM      1  S   UNL     1      -4.317  -9.578   9.436  0.00  0.00    -0.057 S 
ATOM      6  O   UNL     1      -8.842  -8.600   8.954  0.00  0.00    -0.270 OA
ATOM      7  N   UNL     1      -6.588  -9.454  10.668  0.00  0.00    -0.229 NA
ATOM      9  N   UNL     1      -6.587  -8.874   8.328  0.00  0.00    -0.261 N 
ATOM     10  C   UNL     1      -4.850 -10.972  13.756  0.00  0.00    -0.019 C 
ATOM     11  C   UNL     1      -3.451 -10.301  13.396  0.00  0.00    +0.011 C 
ATOM     12  C   UNL     1      -2.219 -10.680  14.306  0.00  0.00    +0.021 C 
ATOM     13  C   UNL     1      -5.998 -10.138  13.022  0.00  0.00    +0.054 C 
ATOM     14  C   UNL     1      -5.083 -10.885  15.287  0.00  0.00    +0.010 C 
ATOM     15  C   UNL     1      -2.639 -10.586  15.801  0.00  0.00    +0.123 C 
ATOM     16  C   UNL     1      -3.153 -10.390  11.871  0.00  0.00    +0.049 C 
ATOM     17  C   UNL     1      -3.906 -11.372  16.120  0.00  0.00    +0.032 C 
ATOM     18  C   UNL     1      -4.933 -12.456  13.324  0.00  0.00    +0.012 C 
ATOM     19  C   UNL     1      -5.640  -9.872  11.584  0.00  0.00    +0.058 A 
ATOM     21  C   UNL     1      -1.082  -9.643  14.079  0.00  0.00    +0.016 C 
ATOM     22  C   UNL     1      -4.354  -9.973  11.092  0.00  0.00    +0.015 A 
ATOM     25  C   UNL     1      -6.006  -9.276   9.502  0.00  0.00    +0.165 A 
ATOM     28  C   UNL     1      -7.941  -8.565   8.124  0.00  0.00    +0.250 C 
ATOM     43  H   UNL     1      -5.925  -8.766   7.566  0.00  0.00    +0.157 HD
ENDROOT
BRANCH  28  30
ATOM      2  F   UNL     1      -9.269  -6.905   2.926  0.00  0.00    -0.205 F 
ATOM     30  C   UNL     1      -8.292  -8.124   6.747  0.00  0.00    +0.037 A 
ATOM     33  C   UNL     1      -7.460  -8.453   5.676  0.00  0.00    +0.016 A 
ATOM     34  C   UNL     1      -9.453  -7.384   6.527  0.00  0.00    +0.016 A 
ATOM     38  C   UNL     1      -7.791  -8.041   4.385  0.00  0.00    +0.039 A 
ATOM     39  C   UNL     1      -9.783  -6.972   5.235  0.00  0.00    +0.039 A 
ATOM     40  C   UNL     1      -8.952  -7.300   4.165  0.00  0.00    +0.123 A 
ENDBRANCH  28  30
BRANCH  15   3
ATOM      3  O   UNL     1      -1.587 -11.046  16.648  0.00  0.00    -0.391 OA
ATOM     41  H   UNL     1      -1.287 -10.291  17.182  0.00  0.00    +0.210 HD
ENDBRANCH  15   3
BRANCH  12  20
ATOM     20  C   UNL     1      -1.593 -12.058  13.996  0.00  0.00    +0.165 C 
BRANCH  20   4
ATOM      4  O   UNL     1      -2.203 -13.009  14.839  0.00  0.00    -0.394 OA
ATOM     42  H   UNL     1      -1.506 -13.613  15.145  0.00  0.00    +0.209 HD
ENDBRANCH  20   4
ENDBRANCH  12  20
BRANCH  13  23
ATOM     23  C   UNL     1      -7.403 -10.743  13.149  0.00  0.00    +0.106 C 
BRANCH  23  24
ATOM      5  O   UNL     1      -8.149  -9.394  14.985  0.00  0.00    -0.276 OA
ATOM      8  N   UNL     1      -8.345 -11.692  15.225  0.00  0.00    -0.300 N 
ATOM     24  C   UNL     1      -7.996 -10.530  14.530  0.00  0.00    +0.216 C 
ATOM     27  C   UNL     1      -8.154 -13.025  14.666  0.00  0.00    +0.132 C 
BRANCH   8  26
ATOM     26  C   UNL     1      -8.928 -11.659  16.564  0.00  0.00    +0.142 C 
BRANCH  26  29
ATOM     29  C   UNL     1      -7.878 -11.543  17.632  0.00  0.00    -0.030 A 
ATOM     31  C   UNL     1      -7.674 -10.326  18.280  0.00  0.00    +0.005 A 
ATOM     32  C   UNL     1      -7.107 -12.654  17.973  0.00  0.00    +0.005 A 
ATOM     35  C   UNL     1      -6.698 -10.219  19.271  0.00  0.00    +0.000 A 
ATOM     36  C   UNL     1      -6.132 -12.547  18.964  0.00  0.00    +0.000 A 
ATOM     37  C   UNL     1      -5.927 -11.330  19.613  0.00  0.00    +0.000 A 
ENDBRANCH  26  29
ENDBRANCH   8  26
ENDBRANCH  23  24
ENDBRANCH  13  23
TORSDOF 8
ENDMDL
MODEL 6
REMARK VINA RESULT:      -6.7     30.132     32.307
REMARK  Name = 11882863
REMARK  11 active torsions:
REMARK  status: ('A' for Active; 'I' for Inactive)
REMARK    1  A    between atoms: O_3  and  C_15
REMARK    2  A    between atoms: O_4  and  C_20
REMARK    3  A    between atoms: N_8  and  C_26
REMARK    4  A    between atoms: N_8  and  C_27
REMARK    5  A    between atoms: C_10  and  C_18
REMARK    6  A    between atoms: C_12  and  C_20
REMARK    7  A    between atoms: C_12  and  C_21
REMARK    8  A    between atoms: C_13  and  C_23
REMARK    9  A    between atoms: C_23  and  C_24
REMARK   10  A    between atoms: C_26  and  C_29
REMARK   11  A    between atoms: C_28  and  C_30
REMARK                            x       y       z     vdW  Elec       q    Type
REMARK                         _______ _______ _______ _____ _____    ______ ____
ROOT
ATOM      1  S   UNL     1      -4.726 -12.258  12.061  0.00  0.00    -0.057 S 
ATOM      6  O   UNL     1      -7.429  -9.558  14.721  0.00  0.00    -0.270 OA
ATOM      7  N   UNL     1      -6.600 -10.476  12.034  0.00  0.00    -0.229 NA
ATOM      9  N   UNL     1      -5.776 -11.154  14.196  0.00  0.00    -0.261 N 
ATOM     10  C   UNL     1      -6.294 -10.400   8.192  0.00  0.00    -0.019 C 
ATOM     11  C   UNL     1      -5.862 -11.930   8.117  0.00  0.00    +0.011 C 
ATOM     12  C   UNL     1      -5.456 -12.492   6.700  0.00  0.00    +0.021 C 
ATOM     13  C   UNL     1      -7.063 -10.172   9.574  0.00  0.00    +0.054 C 
ATOM     14  C   UNL     1      -7.271 -10.083   7.029  0.00  0.00    +0.010 C 
ATOM     15  C   UNL     1      -6.514 -12.045   5.650  0.00  0.00    +0.123 C 
ATOM     16  C   UNL     1      -4.853 -12.293   9.247  0.00  0.00    +0.049 C 
ATOM     17  C   UNL     1      -6.778 -10.544   5.666  0.00  0.00    +0.032 C 
ATOM     18  C   UNL     1      -5.090  -9.430   8.106  0.00  0.00    +0.012 C 
ATOM     19  C   UNL     1      -6.314 -10.798  10.720  0.00  0.00    +0.058 A 
ATOM     21  C   UNL     1      -5.477 -14.047   6.745  0.00  0.00    +0.016 C 
ATOM     22  C   UNL     1      -5.339 -11.761  10.553  0.00  0.00    +0.015 A 
ATOM     25  C   UNL     1      -5.820 -11.178  12.826  0.00  0.00    +0.165 A 
ATOM     28  C   UNL     1      -6.564 -10.364  15.047  0.00  0.00    +0.250 C 
ATOM     43  H   UNL     1      -5.118 -11.818  14.591  0.00  0.00    +0.157 HD
ENDROOT
BRANCH  28  30
ATOM      2  F   UNL     1      -5.663 -11.119  20.539  0.00  0.00    -0.205 F 
ATOM     30  C   UNL     1      -6.325 -10.563  16.502  0.00  0.00    +0.037 A 
ATOM     33  C   UNL     1      -7.378 -10.423  17.407  0.00  0.00    +0.016 A 
ATOM     34  C   UNL     1      -5.050 -10.891  16.961  0.00  0.00    +0.016 A 
ATOM     38  C   UNL     1      -7.153 -10.611  18.771  0.00  0.00    +0.039 A 
ATOM     39  C   UNL     1      -4.826 -11.079  18.325  0.00  0.00    +0.039 A 
ATOM     40  C   UNL     1      -5.878 -10.939  19.230  0.00  0.00    +0.123 A 
ENDBRANCH  28  30
BRANCH  15   3
ATOM      3  O   UNL     1      -6.109 -12.428   4.336  0.00  0.00    -0.391 OA
ATOM     41  H   UNL     1      -6.586 -13.244   4.108  0.00  0.00    +0.210 HD
ENDBRANCH  15   3
BRANCH  12  20
ATOM     20  C   UNL     1      -4.031 -12.109   6.243  0.00  0.00    +0.165 C 
BRANCH  20   4
ATOM      4  O   UNL     1      -3.515 -13.186   5.493  0.00  0.00    -0.394 OA
ATOM     42  H   UNL     1      -4.023 -13.978   5.737  0.00  0.00    +0.209 HD
ENDBRANCH  20   4
ENDBRANCH  12  20
BRANCH  13  23
ATOM     23  C   UNL     1      -7.422  -8.709   9.869  0.00  0.00    +0.106 C 
BRANCH  23  24
ATOM      5  O   UNL     1      -9.784  -9.063  10.077  0.00  0.00    -0.276 OA
ATOM      8  N   UNL     1      -9.100  -7.345   8.677  0.00  0.00    -0.300 N 
ATOM     24  C   UNL     1      -8.877  -8.404   9.563  0.00  0.00    +0.216 C 
ATOM     27  C   UNL     1      -8.010  -6.580   8.082  0.00  0.00    +0.132 C 
BRANCH   8  26
ATOM     26  C   UNL     1     -10.442  -6.924   8.282  0.00  0.00    +0.142 C 
BRANCH  26  29
ATOM     29  C   UNL     1     -10.953  -5.801   9.137  0.00  0.00    -0.030 A 
ATOM     31  C   UNL     1     -10.661  -4.479   8.801  0.00  0.00    +0.005 A 
ATOM     32  C   UNL     1     -11.721  -6.080  10.268  0.00  0.00    +0.005 A 
ATOM     35  C   UNL     1     -11.135  -3.436   9.596  0.00  0.00    +0.000 A 
ATOM     36  C   UNL     1     -12.196  -5.036  11.062  0.00  0.00    +0.000 A 
ATOM     37  C   UNL     1     -11.903  -3.714  10.726  0.00  0.00    +0.000 A 
ENDBRANCH  26  29
ENDBRANCH   8  26
ENDBRANCH  23  24
ENDBRANCH  13  23
TORSDOF 8
ENDMDL
MODEL 7
REMARK VINA RESULT:      -6.7     16.338     20.048
REMARK  Name = 11882863
REMARK  11 active torsions:
REMARK  status: ('A' for Active; 'I' for Inactive)
REMARK    1  A    between atoms: O_3  and  C_15
REMARK    2  A    between atoms: O_4  and  C_20
REMARK    3  A    between atoms: N_8  and  C_26
REMARK    4  A    between atoms: N_8  and  C_27
REMARK    5  A    between atoms: C_10  and  C_18
REMARK    6  A    between atoms: C_12  and  C_20
REMARK    7  A    between atoms: C_12  and  C_21
REMARK    8  A    between atoms: C_13  and  C_23
REMARK    9  A    between atoms: C_23  and  C_24
REMARK   10  A    between atoms: C_26  and  C_29
REMARK   11  A    between atoms: C_28  and  C_30
REMARK                            x       y       z     vdW  Elec       q    Type
REMARK                         _______ _______ _______ _____ _____    ______ ____
ROOT
ATOM      1  S   UNL     1      15.465   8.112   6.101  0.00  0.00    -0.057 S 
ATOM      6  O   UNL     1      12.647   6.830   2.625  0.00  0.00    -0.270 OA
ATOM      7  N   UNL     1      15.320   7.689   3.554  0.00  0.00    -0.229 NA
ATOM      9  N   UNL     1      13.304   7.341   4.829  0.00  0.00    -0.261 N 
ATOM     10  C   UNL     1      18.922   9.033   3.257  0.00  0.00    -0.019 C 
ATOM     11  C   UNL     1      19.318   8.513   4.710  0.00  0.00    +0.011 C 
ATOM     12  C   UNL     1      20.753   8.899   5.241  0.00  0.00    +0.021 C 
ATOM     13  C   UNL     1      17.662   8.186   2.759  0.00  0.00    +0.054 C 
ATOM     14  C   UNL     1      20.099   8.780   2.280  0.00  0.00    +0.010 C 
ATOM     15  C   UNL     1      21.802   8.627   4.125  0.00  0.00    +0.123 C 
ATOM     16  C   UNL     1      18.179   8.773   5.738  0.00  0.00    +0.049 C 
ATOM     17  C   UNL     1      21.444   9.275   2.792  0.00  0.00    +0.032 C 
ATOM     18  C   UNL     1      18.572  10.541   3.234  0.00  0.00    +0.012 C 
ATOM     19  C   UNL     1      16.613   8.091   3.836  0.00  0.00    +0.058 A 
ATOM     21  C   UNL     1      21.111   7.981   6.445  0.00  0.00    +0.016 C 
ATOM     22  C   UNL     1      16.871   8.340   5.169  0.00  0.00    +0.015 A 
ATOM     25  C   UNL     1      14.625   7.672   4.670  0.00  0.00    +0.165 A 
ATOM     28  C   UNL     1      12.410   6.948   3.822  0.00  0.00    +0.250 C 
ATOM     43  H   UNL     1      12.997   7.361   5.796  0.00  0.00    +0.157 HD
ENDROOT
BRANCH  28  30
ATOM      2  F   UNL     1       7.221   5.696   5.568  0.00  0.00    -0.205 F 
ATOM     30  C   UNL     1      11.036   6.616   4.286  0.00  0.00    +0.037 A 
ATOM     33  C   UNL     1      10.001   7.537   4.113  0.00  0.00    +0.016 A 
ATOM     34  C   UNL     1      10.781   5.386   4.890  0.00  0.00    +0.016 A 
ATOM     38  C   UNL     1       8.712   7.225   4.547  0.00  0.00    +0.039 A 
ATOM     39  C   UNL     1       9.492   5.075   5.324  0.00  0.00    +0.039 A 
ATOM     40  C   UNL     1       8.457   5.994   5.152  0.00  0.00    +0.123 A 
ENDBRANCH  28  30
BRANCH  15   3
ATOM      3  O   UNL     1      23.093   9.084   4.526  0.00  0.00    -0.391 OA
ATOM     41  H   UNL     1      23.351   9.803   3.924  0.00  0.00    +0.210 HD
ENDBRANCH  15   3
BRANCH  12  20
ATOM     20  C   UNL     1      20.874  10.345   5.770  0.00  0.00    +0.165 C 
BRANCH  20   4
ATOM      4  O   UNL     1      21.758  10.330   6.868  0.00  0.00    -0.394 OA
ATOM     42  H   UNL     1      22.486  10.940   6.662  0.00  0.00    +0.209 HD
ENDBRANCH  20   4
ENDBRANCH  12  20
BRANCH  13  23
ATOM     23  C   UNL     1      17.060   8.662   1.430  0.00  0.00    +0.106 C 
BRANCH  23  24
ATOM      5  O   UNL     1      17.656   6.712   0.171  0.00  0.00    -0.276 OA
ATOM      8  N   UNL     1      15.455   7.426   0.018  0.00  0.00    -0.300 N 
ATOM     24  C   UNL     1      16.770   7.510   0.487  0.00  0.00    +0.216 C 
ATOM     27  C   UNL     1      14.424   8.382   0.406  0.00  0.00    +0.132 C 
BRANCH   8  26
ATOM     26  C   UNL     1      15.014   6.375  -0.895  0.00  0.00    +0.142 C 
BRANCH  26  29
ATOM     29  C   UNL     1      14.298   5.268  -0.174  0.00  0.00    -0.030 A 
ATOM     31  C   UNL     1      14.935   4.583   0.860  0.00  0.00    +0.005 A 
ATOM     32  C   UNL     1      12.997   4.926  -0.540  0.00  0.00    +0.005 A 
ATOM     35  C   UNL     1      14.271   3.555   1.529  0.00  0.00    +0.000 A 
ATOM     36  C   UNL     1      12.332   3.898   0.129  0.00  0.00    +0.000 A 
ATOM     37  C   UNL     1      12.969   3.213   1.163  0.00  0.00    +0.000 A 
ENDBRANCH  26  29
ENDBRANCH   8  26
ENDBRANCH  23  24
ENDBRANCH  13  23
TORSDOF 8
ENDMDL
MODEL 8
REMARK VINA RESULT:      -6.6     28.892     32.896
REMARK  Name = 11882863
REMARK  11 active torsions:
REMARK  status: ('A' for Active; 'I' for Inactive)
REMARK    1  A    between atoms: O_3  and  C_15
REMARK    2  A    between atoms: O_4  and  C_20
REMARK    3  A    between atoms: N_8  and  C_26
REMARK    4  A    between atoms: N_8  and  C_27
REMARK    5  A    between atoms: C_10  and  C_18
REMARK    6  A    between atoms: C_12  and  C_20
REMARK    7  A    between atoms: C_12  and  C_21
REMARK    8  A    between atoms: C_13  and  C_23
REMARK    9  A    between atoms: C_23  and  C_24
REMARK   10  A    between atoms: C_26  and  C_29
REMARK   11  A    between atoms: C_28  and  C_30
REMARK                            x       y       z     vdW  Elec       q    Type
REMARK                         _______ _______ _______ _____ _____    ______ ____
ROOT
ATOM      1  S   UNL     1      -7.186 -10.318  11.370  0.00  0.00    -0.057 S 
ATOM      6  O   UNL     1     -11.260  -9.140  13.291  0.00  0.00    -0.270 OA
ATOM      7  N   UNL     1      -8.427  -9.930  13.606  0.00  0.00    -0.229 NA
ATOM      9  N   UNL     1      -9.702  -9.609  11.586  0.00  0.00    -0.261 N 
ATOM     10  C   UNL     1      -5.274 -11.199  15.427  0.00  0.00    -0.019 C 
ATOM     11  C   UNL     1      -4.302 -10.654  14.289  0.00  0.00    +0.011 C 
ATOM     12  C   UNL     1      -2.770 -11.001  14.429  0.00  0.00    +0.021 C 
ATOM     13  C   UNL     1      -6.646 -10.386  15.333  0.00  0.00    +0.054 C 
ATOM     14  C   UNL     1      -4.640 -10.933  16.817  0.00  0.00    +0.010 C 
ATOM     15  C   UNL     1      -2.312 -10.721  15.889  0.00  0.00    +0.123 C 
ATOM     16  C   UNL     1      -4.879 -10.925  12.869  0.00  0.00    +0.049 C 
ATOM     17  C   UNL     1      -3.195 -11.393  16.935  0.00  0.00    +0.032 C 
ATOM     18  C   UNL     1      -5.563 -12.714  15.295  0.00  0.00    +0.012 C 
ATOM     19  C   UNL     1      -7.129 -10.300  13.909  0.00  0.00    +0.058 A 
ATOM     21  C   UNL     1      -1.949 -10.062  13.499  0.00  0.00    +0.016 C 
ATOM     22  C   UNL     1      -6.315 -10.528  12.818  0.00  0.00    +0.015 A 
ATOM     25  C   UNL     1      -8.572  -9.914  12.300  0.00  0.00    +0.165 A 
ATOM     28  C   UNL     1     -10.953  -9.248  12.109  0.00  0.00    +0.250 C 
ATOM     43  H   UNL     1      -9.562  -9.624  10.581  0.00  0.00    +0.157 HD
ENDROOT
BRANCH  28  30
ATOM      2  F   UNL     1     -14.905  -8.083   8.292  0.00  0.00    -0.205 F 
ATOM     30  C   UNL     1     -12.000  -8.940  11.098  0.00  0.00    +0.037 A 
ATOM     33  C   UNL     1     -13.193  -8.332  11.492  0.00  0.00    +0.016 A 
ATOM     34  C   UNL     1     -11.790  -9.258   9.756  0.00  0.00    +0.016 A 
ATOM     38  C   UNL     1     -14.174  -8.043  10.543  0.00  0.00    +0.039 A 
ATOM     39  C   UNL     1     -12.771  -8.968   8.808  0.00  0.00    +0.039 A 
ATOM     40  C   UNL     1     -13.964  -8.361   9.202  0.00  0.00    +0.123 A 
ENDBRANCH  28  30
BRANCH  15   3
ATOM      3  O   UNL     1      -0.964 -11.145  16.084  0.00  0.00    -0.391 OA
ATOM     41  H   UNL     1      -0.443 -10.364  16.337  0.00  0.00    +0.210 HD
ENDBRANCH  15   3
BRANCH  12  20
ATOM     20  C   UNL     1      -2.397 -12.438  14.002  0.00  0.00    +0.165 C 
BRANCH  20   4
ATOM      4  O   UNL     1      -1.602 -12.350  12.841  0.00  0.00    -0.394 OA
ATOM     42  H   UNL     1      -1.193 -13.222  12.703  0.00  0.00    +0.209 HD
ENDBRANCH  20   4
ENDBRANCH  12  20
BRANCH  13  23
ATOM     23  C   UNL     1      -7.751 -10.891  16.272  0.00  0.00    +0.106 C 
BRANCH  23  24
ATOM      5  O   UNL     1      -7.802  -8.825  17.486  0.00  0.00    -0.276 OA
ATOM      8  N   UNL     1      -9.842  -9.848  17.071  0.00  0.00    -0.300 N 
ATOM     24  C   UNL     1      -8.448  -9.756  16.999  0.00  0.00    +0.216 C 
ATOM     27  C   UNL     1     -10.583 -10.960  16.488  0.00  0.00    +0.132 C 
BRANCH   8  26
ATOM     26  C   UNL     1     -10.660  -8.837  17.735  0.00  0.00    +0.142 C 
BRANCH  26  29
ATOM     29  C   UNL     1     -11.293  -7.893  16.754  0.00  0.00    -0.030 A 
ATOM     31  C   UNL     1     -10.532  -6.882  16.168  0.00  0.00    +0.005 A 
ATOM     32  C   UNL     1     -12.643  -8.027  16.430  0.00  0.00    +0.005 A 
ATOM     35  C   UNL     1     -11.120  -6.005  15.257  0.00  0.00    +0.000 A 
ATOM     36  C   UNL     1     -13.231  -7.150  15.518  0.00  0.00    +0.000 A 
ATOM     37  C   UNL     1     -12.470  -6.139  14.932  0.00  0.00    +0.000 A 
ENDBRANCH  26  29
ENDBRANCH   8  26
ENDBRANCH  23  24
ENDBRANCH  13  23
TORSDOF 8
ENDMDL
MODEL 9
REMARK VINA RESULT:      -6.6     16.033     18.727
REMARK  Name = 11882863
REMARK  11 active torsions:
REMARK  status: ('A' for Active; 'I' for Inactive)
REMARK    1  A    between atoms: O_3  and  C_15
REMARK    2  A    between atoms: O_4  and  C_20
REMARK    3  A    between atoms: N_8  and  C_26
REMARK    4  A    between atoms: N_8  and  C_27
REMARK    5  A    between atoms: C_10  and  C_18
REMARK    6  A    between atoms: C_12  and  C_20
REMARK    7  A    between atoms: C_12  and  C_21
REMARK    8  A    between atoms: C_13  and  C_23
REMARK    9  A    between atoms: C_23  and  C_24
REMARK   10  A    between atoms: C_26  and  C_29
REMARK   11  A    between atoms: C_28  and  C_30
REMARK                            x       y       z     vdW  Elec       q    Type
REMARK                         _______ _______ _______ _____ _____    ______ ____
ROOT
ATOM      1  S   UNL     1      12.947   5.656   1.248  0.00  0.00    -0.057 S 
ATOM      6  O   UNL     1      17.303   7.273   0.959  0.00  0.00    -0.270 OA
ATOM      7  N   UNL     1      14.771   7.025   2.468  0.00  0.00    -0.229 NA
ATOM      9  N   UNL     1      15.344   6.140   0.300  0.00  0.00    -0.261 N 
ATOM     10  C   UNL     1      12.157   7.845   5.181  0.00  0.00    -0.019 C 
ATOM     11  C   UNL     1      11.394   6.463   4.974  0.00  0.00    +0.011 C 
ATOM     12  C   UNL     1      10.061   6.252   5.791  0.00  0.00    +0.021 C 
ATOM     13  C   UNL     1      13.647   7.671   4.632  0.00  0.00    +0.054 C 
ATOM     14  C   UNL     1      12.229   8.173   6.696  0.00  0.00    +0.010 C 
ATOM     15  C   UNL     1      10.296   6.670   7.271  0.00  0.00    +0.123 C 
ATOM     16  C   UNL     1      11.267   6.103   3.465  0.00  0.00    +0.049 C 
ATOM     17  C   UNL     1      10.892   8.066   7.414  0.00  0.00    +0.032 C 
ATOM     18  C   UNL     1      11.473   9.025   4.450  0.00  0.00    +0.012 C 
ATOM     19  C   UNL     1      13.653   7.004   3.281  0.00  0.00    +0.058 A 
ATOM     21  C   UNL     1       9.699   4.739   5.790  0.00  0.00    +0.016 C 
ATOM     22  C   UNL     1      12.581   6.290   2.785  0.00  0.00    +0.015 A 
ATOM     25  C   UNL     1      14.511   6.354   1.367  0.00  0.00    +0.165 A 
ATOM     28  C   UNL     1      16.662   6.600   0.158  0.00  0.00    +0.250 C 
ATOM     43  H   UNL     1      14.935   5.553  -0.420  0.00  0.00    +0.157 HD
ENDROOT
BRANCH  28  30
ATOM      2  F   UNL     1      19.250   5.062  -4.583  0.00  0.00    -0.205 F 
ATOM     30  C   UNL     1      17.346   6.193  -1.098  0.00  0.00    +0.037 A 
ATOM     33  C   UNL     1      18.244   7.065  -1.717  0.00  0.00    +0.016 A 
ATOM     34  C   UNL     1      17.093   4.941  -1.656  0.00  0.00    +0.016 A 
ATOM     38  C   UNL     1      18.887   6.682  -2.895  0.00  0.00    +0.039 A 
ATOM     39  C   UNL     1      17.736   4.559  -2.834  0.00  0.00    +0.039 A 
ATOM     40  C   UNL     1      18.633   5.429  -3.453  0.00  0.00    +0.123 A 
ENDBRANCH  28  30
BRANCH  15   3
ATOM      3  O   UNL     1       9.075   6.613   8.009  0.00  0.00    -0.391 OA
ATOM     41  H   UNL     1       9.259   6.155   8.847  0.00  0.00    +0.210 HD
ENDBRANCH  15   3
BRANCH  12  20
ATOM     20  C   UNL     1       8.828   6.974   5.204  0.00  0.00    +0.165 C 
BRANCH  20   4
ATOM      4  O   UNL     1       7.687   6.213   5.530  0.00  0.00    -0.394 OA
ATOM     42  H   UNL     1       7.612   5.506   4.867  0.00  0.00    +0.209 HD
ENDBRANCH  20   4
ENDBRANCH  12  20
BRANCH  13  23
ATOM     23  C   UNL     1      14.478   8.962   4.624  0.00  0.00    +0.106 C 
BRANCH  23  24
ATOM      5  O   UNL     1      15.733   7.998   6.424  0.00  0.00    -0.276 OA
ATOM      8  N   UNL     1      16.627   9.885   5.415  0.00  0.00    -0.300 N 
ATOM     24  C   UNL     1      15.658   8.889   5.574  0.00  0.00    +0.216 C 
ATOM     27  C   UNL     1      16.516  10.929   4.403  0.00  0.00    +0.132 C 
BRANCH   8  26
ATOM     26  C   UNL     1      17.824   9.954   6.249  0.00  0.00    +0.142 C 
BRANCH  26  29
ATOM     29  C   UNL     1      18.874   8.975   5.808  0.00  0.00    -0.030 A 
ATOM     31  C   UNL     1      18.892   8.517   4.491  0.00  0.00    +0.005 A 
ATOM     32  C   UNL     1      19.832   8.524   6.717  0.00  0.00    +0.005 A 
ATOM     35  C   UNL     1      19.866   7.608   4.082  0.00  0.00    +0.000 A 
ATOM     36  C   UNL     1      20.807   7.615   6.307  0.00  0.00    +0.000 A 
ATOM     37  C   UNL     1      20.824   7.157   4.990  0.00  0.00    +0.000 A 
ENDBRANCH  26  29
ENDBRANCH   8  26
ENDBRANCH  23  24
ENDBRANCH  13  23
TORSDOF 8
ENDMDL
MODEL 10
REMARK VINA RESULT:      -6.5     29.654     33.777
REMARK  Name = 11882863
REMARK  11 active torsions:
REMARK  status: ('A' for Active; 'I' for Inactive)
REMARK    1  A    between atoms: O_3  and  C_15
REMARK    2  A    between atoms: O_4  and  C_20
REMARK    3  A    between atoms: N_8  and  C_26
REMARK    4  A    between atoms: N_8  and  C_27
REMARK    5  A    between atoms: C_10  and  C_18
REMARK    6  A    between atoms: C_12  and  C_20
REMARK    7  A    between atoms: C_12  and  C_21
REMARK    8  A    between atoms: C_13  and  C_23
REMARK    9  A    between atoms: C_23  and  C_24
REMARK   10  A    between atoms: C_26  and  C_29
REMARK   11  A    between atoms: C_28  and  C_30
REMARK                            x       y       z     vdW  Elec       q    Type
REMARK                         _______ _______ _______ _____ _____    ______ ____
ROOT
ATOM      1  S   UNL     1      -5.690 -11.111   5.112  0.00  0.00    -0.057 S 
ATOM      6  O   UNL     1      -6.135  -8.994   9.234  0.00  0.00    -0.270 OA
ATOM      7  N   UNL     1      -7.108  -9.432   6.475  0.00  0.00    -0.229 NA
ATOM      9  N   UNL     1      -5.210 -10.411   7.594  0.00  0.00    -0.261 N 
ATOM     10  C   UNL     1      -9.124  -8.726   3.265  0.00  0.00    -0.019 C 
ATOM     11  C   UNL     1      -8.911 -10.204   2.713  0.00  0.00    +0.011 C 
ATOM     12  C   UNL     1      -9.454 -10.512   1.264  0.00  0.00    +0.021 C 
ATOM     13  C   UNL     1      -8.914  -8.757   4.849  0.00  0.00    +0.054 C 
ATOM     14  C   UNL     1     -10.577  -8.270   2.972  0.00  0.00    +0.010 C 
ATOM     15  C   UNL     1     -10.898  -9.950   1.128  0.00  0.00    +0.123 C 
ATOM     16  C   UNL     1      -7.455 -10.699   2.955  0.00  0.00    +0.049 C 
ATOM     17  C   UNL     1     -11.012  -8.484   1.530  0.00  0.00    +0.032 C 
ATOM     18  C   UNL     1      -8.146  -7.703   2.636  0.00  0.00    +0.012 C 
ATOM     19  C   UNL     1      -7.671  -9.526   5.216  0.00  0.00    +0.058 A 
ATOM     21  C   UNL     1      -9.539 -12.054   1.072  0.00  0.00    +0.016 C 
ATOM     22  C   UNL     1      -7.044 -10.405   4.357  0.00  0.00    +0.015 A 
ATOM     25  C   UNL     1      -6.055 -10.217   6.532  0.00  0.00    +0.165 A 
ATOM     28  C   UNL     1      -5.295  -9.803   8.856  0.00  0.00    +0.250 C 
ATOM     43  H   UNL     1      -4.487 -11.101   7.414  0.00  0.00    +0.157 HD
ENDROOT
BRANCH  28  30
ATOM      2  F   UNL     1      -1.376 -11.384  12.555  0.00  0.00    -0.205 F 
ATOM     30  C   UNL     1      -4.256 -10.223   9.834  0.00  0.00    +0.037 A 
ATOM     33  C   UNL     1      -3.233  -9.341  10.185  0.00  0.00    +0.016 A 
ATOM     34  C   UNL     1      -4.307 -11.495  10.403  0.00  0.00    +0.016 A 
ATOM     38  C   UNL     1      -2.260  -9.735  11.105  0.00  0.00    +0.039 A 
ATOM     39  C   UNL     1      -3.333 -11.888  11.322  0.00  0.00    +0.039 A 
ATOM     40  C   UNL     1      -2.309 -11.008  11.673  0.00  0.00    +0.123 A 
ENDBRANCH  28  30
BRANCH  15   3
ATOM      3  O   UNL     1     -11.371 -10.098  -0.210  0.00  0.00    -0.391 OA
ATOM     41  H   UNL     1     -11.336  -9.223  -0.633  0.00  0.00    +0.210 HD
ENDBRANCH  15   3
BRANCH  12  20
ATOM     20  C   UNL     1      -8.553  -9.999   0.120  0.00  0.00    +0.165 C 
BRANCH  20   4
ATOM      4  O   UNL     1      -7.835 -11.100  -0.391  0.00  0.00    -0.394 OA
ATOM     42  H   UNL     1      -7.419 -10.814  -1.222  0.00  0.00    +0.209 HD
ENDBRANCH  20   4
ENDBRANCH  12  20
BRANCH  13  23
ATOM     23  C   UNL     1      -8.941  -7.378   5.522  0.00  0.00    +0.106 C 
BRANCH  23  24
ATOM      5  O   UNL     1     -11.062  -7.746   6.576  0.00  0.00    -0.276 OA
ATOM      8  N   UNL     1      -9.397  -6.790   7.877  0.00  0.00    -0.300 N 
ATOM     24  C   UNL     1      -9.907  -7.330   6.691  0.00  0.00    +0.216 C 
ATOM     27  C   UNL     1      -8.027  -6.303   7.989  0.00  0.00    +0.132 C 
BRANCH   8  26
ATOM     26  C   UNL     1     -10.198  -6.675   9.093  0.00  0.00    +0.142 C 
BRANCH  26  29
ATOM     29  C   UNL     1     -11.142  -5.508   9.035  0.00  0.00    -0.030 A 
ATOM     31  C   UNL     1     -12.515  -5.725   8.932  0.00  0.00    +0.005 A 
ATOM     32  C   UNL     1     -10.643  -4.206   9.084  0.00  0.00    +0.005 A 
ATOM     35  C   UNL     1     -13.391  -4.642   8.878  0.00  0.00    +0.000 A 
ATOM     36  C   UNL     1     -11.520  -3.122   9.030  0.00  0.00    +0.000 A 
ATOM     37  C   UNL     1     -12.893  -3.340   8.927  0.00  0.00    +0.000 A 
ENDBRANCH  26  29
ENDBRANCH   8  26
ENDBRANCH  23  24
ENDBRANCH  13  23
TORSDOF 8
ENDMDL
