MODEL 1
REMARK VINA RESULT:      -6.4      0.000      0.000
REMARK  Name = 25338211
REMARK  4 active torsions:
REMARK  status: ('A' for Active; 'I' for Inactive)
REMARK    1  A    between atoms: O_4  and  C_10
REMARK    2  A    between atoms: N_6  and  C_9
REMARK    3  A    between atoms: N_7  and  C_11
REMARK    4  A    between atoms: N_8  and  C_21
REMARK                            x       y       z     vdW  Elec       q    Type
REMARK                         _______ _______ _______ _____ _____    ______ ____
ROOT
ATOM      2  O   UNL     1      10.291   8.333   5.705  0.00  0.00    -0.342 OA
ATOM      3  O   UNL     1       9.629   7.893   7.884  0.00  0.00    -0.347 OA
ATOM      9  C   UNL     1      11.974   7.712   7.316  0.00  0.00    +0.143 C 
ATOM     10  C   UNL     1      11.794   6.218   6.959  0.00  0.00    +0.159 C 
ATOM     11  C   UNL     1      10.819   5.981   5.786  0.00  0.00    +0.136 C 
ATOM     12  C   UNL     1      10.663   8.485   7.081  0.00  0.00    +0.270 C 
ATOM     13  C   UNL     1       9.692   7.033   5.709  0.00  0.00    +0.170 C 
ATOM     14  C   UNL     1       8.843   7.124   6.962  0.00  0.00    +0.196 C 
ENDROOT
BRANCH  11   7
ATOM      5  O   UNL     1      10.249   4.324   3.520  0.00  0.00    -0.252 OA
ATOM      7  N   UNL     1      11.545   5.948   4.533  0.00  0.00    -0.291 N 
ATOM      8  N   UNL     1      12.072   5.293   2.402  0.00  0.00    -0.269 N 
ATOM     20  C   UNL     1      11.196   5.105   3.476  0.00  0.00    +0.304 C 
ATOM     27  H   UNL     1      12.388   6.507   4.451  0.00  0.00    +0.151 HD
ATOM     29  H   UNL     1      12.809   5.983   2.529  0.00  0.00    +0.156 HD
BRANCH   8  21
ATOM      1  F   UNL     1      12.035   2.717  -2.506  0.00  0.00    -0.205 F 
ATOM     21  C   UNL     1      12.063   4.636   1.150  0.00  0.00    +0.035 A 
ATOM     22  C   UNL     1      11.017   4.858   0.254  0.00  0.00    +0.026 A 
ATOM     23  C   UNL     1      13.099   3.766   0.810  0.00  0.00    +0.026 A 
ATOM     24  C   UNL     1      11.007   4.209  -0.982  0.00  0.00    +0.040 A 
ATOM     25  C   UNL     1      13.090   3.117  -0.424  0.00  0.00    +0.040 A 
ATOM     26  C   UNL     1      12.043   3.339  -1.320  0.00  0.00    +0.124 A 
ENDBRANCH   8  21
ENDBRANCH  11   7
BRANCH   9   6
ATOM      6  N   UNL     1      13.046   8.297   6.512  0.00  0.00    -0.293 NA
ATOM     15  C   UNL     1      14.258   7.471   6.591  0.00  0.00    +0.085 C 
ATOM     16  C   UNL     1      13.315   9.677   6.941  0.00  0.00    +0.085 C 
ATOM     17  C   UNL     1      15.374   8.043   5.715  0.00  0.00    +0.015 C 
ATOM     18  C   UNL     1      14.400  10.321   6.076  0.00  0.00    +0.015 C 
ATOM     19  C   UNL     1      15.678   9.491   6.081  0.00  0.00    +0.002 C 
ENDBRANCH   9   6
BRANCH  10   4
ATOM      4  O   UNL     1      11.288   5.549   8.121  0.00  0.00    -0.388 OA
ATOM     28  H   UNL     1      11.900   4.822   8.331  0.00  0.00    +0.210 HD
ENDBRANCH  10   4
TORSDOF 4
ENDMDL
MODEL 2
REMARK VINA RESULT:      -6.1     26.115     28.594
REMARK  Name = 25338211
REMARK  4 active torsions:
REMARK  status: ('A' for Active; 'I' for Inactive)
REMARK    1  A    between atoms: O_4  and  C_10
REMARK    2  A    between atoms: N_6  and  C_9
REMARK    3  A    between atoms: N_7  and  C_11
REMARK    4  A    between atoms: N_8  and  C_21
REMARK                            x       y       z     vdW  Elec       q    Type
REMARK                         _______ _______ _______ _____ _____    ______ ____
ROOT
ATOM      2  O   UNL     1      -4.839 -10.279  18.102  0.00  0.00    -0.342 OA
ATOM      3  O   UNL     1      -4.455 -12.324  19.127  0.00  0.00    -0.347 OA
ATOM      9  C   UNL     1      -4.786 -12.261  16.731  0.00  0.00    +0.143 C 
ATOM     10  C   UNL     1      -6.309 -12.453  16.915  0.00  0.00    +0.159 C 
ATOM     11  C   UNL     1      -6.983 -11.304  17.696  0.00  0.00    +0.136 C 
ATOM     12  C   UNL     1      -4.181 -11.544  17.952  0.00  0.00    +0.270 C 
ATOM     13  C   UNL     1      -6.057 -10.660  18.749  0.00  0.00    +0.170 C 
ATOM     14  C   UNL     1      -5.526 -11.632  19.786  0.00  0.00    +0.196 C 
ENDROOT
BRANCH  11   7
ATOM      5  O   UNL     1      -9.561 -10.056  17.717  0.00  0.00    -0.252 OA
ATOM      7  N   UNL     1      -7.462 -10.291  16.779  0.00  0.00    -0.291 N 
ATOM      8  N   UNL     1      -8.919  -8.786  15.850  0.00  0.00    -0.269 N 
ATOM     20  C   UNL     1      -8.739  -9.734  16.862  0.00  0.00    +0.304 C 
ATOM     27  H   UNL     1      -6.869 -10.032  15.997  0.00  0.00    +0.151 HD
ATOM     29  H   UNL     1      -8.133  -8.637  15.220  0.00  0.00    +0.156 HD
BRANCH   8  21
ATOM      1  F   UNL     1     -13.415  -5.712  14.824  0.00  0.00    -0.205 F 
ATOM     21  C   UNL     1     -10.066  -8.002  15.588  0.00  0.00    +0.035 A 
ATOM     22  C   UNL     1     -10.915  -8.339  14.534  0.00  0.00    +0.026 A 
ATOM     23  C   UNL     1     -10.349  -6.892  16.384  0.00  0.00    +0.026 A 
ATOM     24  C   UNL     1     -12.047  -7.565  14.275  0.00  0.00    +0.040 A 
ATOM     25  C   UNL     1     -11.480  -6.118  16.126  0.00  0.00    +0.040 A 
ATOM     26  C   UNL     1     -12.328  -6.454  15.071  0.00  0.00    +0.124 A 
ENDBRANCH   8  21
ENDBRANCH  11   7
BRANCH   9   6
ATOM      6  N   UNL     1      -4.518 -11.489  15.519  0.00  0.00    -0.293 NA
ATOM     15  C   UNL     1      -5.269 -12.039  14.382  0.00  0.00    +0.085 C 
ATOM     16  C   UNL     1      -3.075 -11.458  15.238  0.00  0.00    +0.085 C 
ATOM     17  C   UNL     1      -5.037 -11.212  13.117  0.00  0.00    +0.015 C 
ATOM     18  C   UNL     1      -2.772 -10.612  14.001  0.00  0.00    +0.015 C 
ATOM     19  C   UNL     1      -3.553 -11.105  12.787  0.00  0.00    +0.002 C 
ENDBRANCH   9   6
BRANCH  10   4
ATOM      4  O   UNL     1      -6.512 -13.678  17.631  0.00  0.00    -0.388 OA
ATOM     28  H   UNL     1      -6.097 -14.391  17.115  0.00  0.00    +0.210 HD
ENDBRANCH  10   4
TORSDOF 4
ENDMDL
MODEL 3
REMARK VINA RESULT:      -5.9     25.822     28.109
REMARK  Name = 25338211
REMARK  4 active torsions:
REMARK  status: ('A' for Active; 'I' for Inactive)
REMARK    1  A    between atoms: O_4  and  C_10
REMARK    2  A    between atoms: N_6  and  C_9
REMARK    3  A    between atoms: N_7  and  C_11
REMARK    4  A    between atoms: N_8  and  C_21
REMARK                            x       y       z     vdW  Elec       q    Type
REMARK                         _______ _______ _______ _____ _____    ______ ____
ROOT
ATOM      2  O   UNL     1      -9.019 -12.256  17.475  0.00  0.00    -0.342 OA
ATOM      3  O   UNL     1      -8.487 -12.132  19.729  0.00  0.00    -0.347 OA
ATOM      9  C   UNL     1      -8.947 -10.086  18.523  0.00  0.00    +0.143 C 
ATOM     10  C   UNL     1      -7.451  -9.938  18.160  0.00  0.00    +0.159 C 
ATOM     11  C   UNL     1      -6.912 -11.097  17.294  0.00  0.00    +0.136 C 
ATOM     12  C   UNL     1      -9.316 -11.570  18.698  0.00  0.00    +0.270 C 
ATOM     13  C   UNL     1      -7.605 -12.446  17.584  0.00  0.00    +0.170 C 
ATOM     14  C   UNL     1      -7.498 -12.901  19.027  0.00  0.00    +0.196 C 
ENDROOT
BRANCH  11   7
ATOM      5  O   UNL     1      -4.789 -10.433  15.491  0.00  0.00    -0.252 OA
ATOM      7  N   UNL     1      -7.040 -10.772  15.889  0.00  0.00    -0.291 N 
ATOM      8  N   UNL     1      -6.374 -10.190  13.776  0.00  0.00    -0.269 N 
ATOM     20  C   UNL     1      -5.946 -10.459  15.080  0.00  0.00    +0.304 C 
ATOM     27  H   UNL     1      -7.973 -10.694  15.497  0.00  0.00    +0.151 HD
ATOM     29  H   UNL     1      -7.374 -10.256  13.600  0.00  0.00    +0.156 HD
BRANCH   8  21
ATOM      1  F   UNL     1      -3.272  -8.797   9.398  0.00  0.00    -0.205 F 
ATOM     21  C   UNL     1      -5.582  -9.835  12.659  0.00  0.00    +0.035 A 
ATOM     22  C   UNL     1      -5.988  -8.797  11.819  0.00  0.00    +0.026 A 
ATOM     23  C   UNL     1      -4.397 -10.521  12.397  0.00  0.00    +0.026 A 
ATOM     24  C   UNL     1      -5.207  -8.446  10.717  0.00  0.00    +0.040 A 
ATOM     25  C   UNL     1      -3.617 -10.171  11.295  0.00  0.00    +0.040 A 
ATOM     26  C   UNL     1      -4.022  -9.134  10.455  0.00  0.00    +0.124 A 
ENDBRANCH   8  21
ENDBRANCH  11   7
BRANCH   9   6
ATOM      6  N   UNL     1      -9.780  -9.487  17.481  0.00  0.00    -0.293 NA
ATOM     15  C   UNL     1      -9.250  -8.175  17.089  0.00  0.00    +0.085 C 
ATOM     16  C   UNL     1     -11.174  -9.383  17.934  0.00  0.00    +0.085 C 
ATOM     17  C   UNL     1     -10.082  -7.557  15.964  0.00  0.00    +0.015 C 
ATOM     18  C   UNL     1     -12.069  -8.806  16.836  0.00  0.00    +0.015 C 
ATOM     19  C   UNL     1     -11.552  -7.455  16.353  0.00  0.00    +0.002 C 
ENDBRANCH   9   6
BRANCH  10   4
ATOM      4  O   UNL     1      -6.707  -9.892  19.385  0.00  0.00    -0.388 OA
ATOM     28  H   UNL     1      -5.765  -9.810  19.153  0.00  0.00    +0.210 HD
ENDBRANCH  10   4
TORSDOF 4
ENDMDL
MODEL 4
REMARK VINA RESULT:      -5.9     37.378     38.624
REMARK  Name = 25338211
REMARK  4 active torsions:
REMARK  status: ('A' for Active; 'I' for Inactive)
REMARK    1  A    between atoms: O_4  and  C_10
REMARK    2  A    between atoms: N_6  and  C_9
REMARK    3  A    between atoms: N_7  and  C_11
REMARK    4  A    between atoms: N_8  and  C_21
REMARK                            x       y       z     vdW  Elec       q    Type
REMARK                         _______ _______ _______ _____ _____    ______ ____
ROOT
ATOM      2  O   UNL     1     -11.544   9.269  32.399  0.00  0.00    -0.342 OA
ATOM      3  O   UNL     1     -12.665  11.295  32.535  0.00  0.00    -0.347 OA
ATOM      9  C   UNL     1     -12.559   9.884  34.498  0.00  0.00    +0.143 C 
ATOM     10  C   UNL     1     -13.875   9.182  34.090  0.00  0.00    +0.159 C 
ATOM     11  C   UNL     1     -13.779   8.432  32.743  0.00  0.00    +0.136 C 
ATOM     12  C   UNL     1     -11.809  10.390  33.252  0.00  0.00    +0.270 C 
ATOM     13  C   UNL     1     -12.806   9.096  31.746  0.00  0.00    +0.170 C 
ATOM     14  C   UNL     1     -13.144  10.536  31.414  0.00  0.00    +0.196 C 
ENDROOT
BRANCH  11   7
ATOM      5  O   UNL     1     -15.054   6.101  31.676  0.00  0.00    -0.252 OA
ATOM      7  N   UNL     1     -13.391   7.055  32.965  0.00  0.00    -0.291 N 
ATOM      8  N   UNL     1     -13.472   4.772  32.791  0.00  0.00    -0.269 N 
ATOM     20  C   UNL     1     -14.072   5.974  32.403  0.00  0.00    +0.304 C 
ATOM     27  H   UNL     1     -12.638   6.868  33.620  0.00  0.00    +0.151 HD
ATOM     29  H   UNL     1     -12.660   4.843  33.401  0.00  0.00    +0.156 HD
BRANCH   8  21
ATOM      1  F   UNL     1     -14.977  -0.382  31.414  0.00  0.00    -0.205 F 
ATOM     21  C   UNL     1     -13.856   3.457  32.439  0.00  0.00    +0.035 A 
ATOM     22  C   UNL     1     -14.493   2.643  33.377  0.00  0.00    +0.026 A 
ATOM     23  C   UNL     1     -13.598   2.974  31.157  0.00  0.00    +0.026 A 
ATOM     24  C   UNL     1     -14.872   1.345  33.030  0.00  0.00    +0.040 A 
ATOM     25  C   UNL     1     -13.976   1.677  30.810  0.00  0.00    +0.040 A 
ATOM     26  C   UNL     1     -14.613   0.863  31.747  0.00  0.00    +0.124 A 
ENDBRANCH   8  21
ENDBRANCH  11   7
BRANCH   9   6
ATOM      6  N   UNL     1     -11.708   8.964  35.249  0.00  0.00    -0.293 NA
ATOM     15  C   UNL     1     -12.479   8.293  36.304  0.00  0.00    +0.085 C 
ATOM     16  C   UNL     1     -10.550   9.675  35.809  0.00  0.00    +0.085 C 
ATOM     17  C   UNL     1     -11.614   7.290  37.068  0.00  0.00    +0.015 C 
ATOM     18  C   UNL     1      -9.621   8.716  36.556  0.00  0.00    +0.015 C 
ATOM     19  C   UNL     1     -10.370   7.955  37.644  0.00  0.00    +0.002 C 
ENDBRANCH   9   6
BRANCH  10   4
ATOM      4  O   UNL     1     -14.893  10.186  33.988  0.00  0.00    -0.388 OA
ATOM     28  H   UNL     1     -14.675  10.890  34.623  0.00  0.00    +0.210 HD
ENDBRANCH  10   4
TORSDOF 4
ENDMDL
MODEL 5
REMARK VINA RESULT:      -5.8      2.006      3.942
REMARK  Name = 25338211
REMARK  4 active torsions:
REMARK  status: ('A' for Active; 'I' for Inactive)
REMARK    1  A    between atoms: O_4  and  C_10
REMARK    2  A    between atoms: N_6  and  C_9
REMARK    3  A    between atoms: N_7  and  C_11
REMARK    4  A    between atoms: N_8  and  C_21
REMARK                            x       y       z     vdW  Elec       q    Type
REMARK                         _______ _______ _______ _____ _____    ______ ____
ROOT
ATOM      2  O   UNL     1      13.782   7.095   6.597  0.00  0.00    -0.342 OA
ATOM      3  O   UNL     1      14.135   9.364   6.918  0.00  0.00    -0.347 OA
ATOM      9  C   UNL     1      12.056   8.635   5.920  0.00  0.00    +0.143 C 
ATOM     10  C   UNL     1      12.674   8.737   4.506  0.00  0.00    +0.159 C 
ATOM     11  C   UNL     1      13.870   7.785   4.288  0.00  0.00    +0.136 C 
ATOM     12  C   UNL     1      13.144   8.325   6.964  0.00  0.00    +0.270 C 
ATOM     13  C   UNL     1      14.684   7.529   5.574  0.00  0.00    +0.170 C 
ATOM     14  C   UNL     1      15.244   8.784   6.214  0.00  0.00    +0.196 C 
ENDROOT
BRANCH  11   7
ATOM      5  O   UNL     1      13.309   7.222   1.537  0.00  0.00    -0.252 OA
ATOM      7  N   UNL     1      13.412   6.527   3.739  0.00  0.00    -0.291 N 
ATOM      8  N   UNL     1      12.734   5.028   2.143  0.00  0.00    -0.269 N 
ATOM     20  C   UNL     1      13.162   6.339   2.378  0.00  0.00    +0.304 C 
ATOM     27  H   UNL     1      13.190   5.773   4.382  0.00  0.00    +0.151 HD
ATOM     29  H   UNL     1      12.665   4.418   2.955  0.00  0.00    +0.156 HD
BRANCH   8  21
ATOM      1  F   UNL     1      11.346   2.718  -2.701  0.00  0.00    -0.205 F 
ATOM     21  C   UNL     1      12.380   4.439   0.907  0.00  0.00    +0.035 A 
ATOM     22  C   UNL     1      11.133   4.705   0.340  0.00  0.00    +0.026 A 
ATOM     23  C   UNL     1      13.276   3.592   0.255  0.00  0.00    +0.026 A 
ATOM     24  C   UNL     1      10.783   4.123  -0.879  0.00  0.00    +0.040 A 
ATOM     25  C   UNL     1      12.927   3.011  -0.963  0.00  0.00    +0.040 A 
ATOM     26  C   UNL     1      11.681   3.276  -1.530  0.00  0.00    +0.124 A 
ENDBRANCH   8  21
ENDBRANCH  11   7
BRANCH   9   6
ATOM      6  N   UNL     1      11.031   7.593   5.948  0.00  0.00    -0.293 NA
ATOM     15  C   UNL     1      10.175   7.680   4.757  0.00  0.00    +0.085 C 
ATOM     16  C   UNL     1      10.236   7.687   7.181  0.00  0.00    +0.085 C 
ATOM     17  C   UNL     1       9.128   6.565   4.747  0.00  0.00    +0.015 C 
ATOM     18  C   UNL     1       9.191   6.572   7.250  0.00  0.00    +0.015 C 
ATOM     19  C   UNL     1       8.290   6.579   6.020  0.00  0.00    +0.002 C 
ENDBRANCH   9   6
BRANCH  10   4
ATOM      4  O   UNL     1      13.118  10.087   4.320  0.00  0.00    -0.388 OA
ATOM     28  H   UNL     1      12.419  10.563   3.839  0.00  0.00    +0.210 HD
ENDBRANCH  10   4
TORSDOF 4
ENDMDL
MODEL 6
REMARK VINA RESULT:      -5.8     27.467     29.845
REMARK  Name = 25338211
REMARK  4 active torsions:
REMARK  status: ('A' for Active; 'I' for Inactive)
REMARK    1  A    between atoms: O_4  and  C_10
REMARK    2  A    between atoms: N_6  and  C_9
REMARK    3  A    between atoms: N_7  and  C_11
REMARK    4  A    between atoms: N_8  and  C_21
REMARK                            x       y       z     vdW  Elec       q    Type
REMARK                         _______ _______ _______ _____ _____    ______ ____
ROOT
ATOM      2  O   UNL     1     -10.899 -12.174  17.511  0.00  0.00    -0.342 OA
ATOM      3  O   UNL     1     -11.970 -12.126  19.568  0.00  0.00    -0.347 OA
ATOM      9  C   UNL     1     -11.238 -10.041  18.583  0.00  0.00    +0.143 C 
ATOM     10  C   UNL     1      -9.871 -10.160  19.296  0.00  0.00    +0.159 C 
ATOM     11  C   UNL     1      -9.061 -11.403  18.867  0.00  0.00    +0.136 C 
ATOM     12  C   UNL     1     -11.830 -11.438  18.315  0.00  0.00    +0.270 C 
ATOM     13  C   UNL     1      -9.949 -12.607  18.490  0.00  0.00    +0.170 C 
ATOM     14  C   UNL     1     -10.881 -13.061  19.597  0.00  0.00    +0.196 C 
ENDROOT
BRANCH  11   7
ATOM      5  O   UNL     1      -6.329 -12.199  18.545  0.00  0.00    -0.252 OA
ATOM      7  N   UNL     1      -8.188 -11.072  17.761  0.00  0.00    -0.291 N 
ATOM      8  N   UNL     1      -6.269 -11.033  16.508  0.00  0.00    -0.269 N 
ATOM     20  C   UNL     1      -6.862 -11.505  17.684  0.00  0.00    +0.304 C 
ATOM     27  H   UNL     1      -8.533 -10.434  17.050  0.00  0.00    +0.151 HD
ATOM     29  H   UNL     1      -6.853 -10.466  15.898  0.00  0.00    +0.156 HD
BRANCH   8  21
ATOM      1  F   UNL     1      -1.082 -11.869  14.743  0.00  0.00    -0.205 F 
ATOM     21  C   UNL     1      -4.946 -11.247  16.058  0.00  0.00    +0.035 A 
ATOM     22  C   UNL     1      -3.906 -10.455  16.548  0.00  0.00    +0.026 A 
ATOM     23  C   UNL     1      -4.679 -12.248  15.125  0.00  0.00    +0.026 A 
ATOM     24  C   UNL     1      -2.600 -10.665  16.103  0.00  0.00    +0.040 A 
ATOM     25  C   UNL     1      -3.374 -12.458  14.680  0.00  0.00    +0.040 A 
ATOM     26  C   UNL     1      -2.335 -11.667  15.169  0.00  0.00    +0.124 A 
ENDBRANCH   8  21
ENDBRANCH  11   7
BRANCH   9   6
ATOM      6  N   UNL     1     -11.088  -9.316  17.323  0.00  0.00    -0.293 NA
ATOM     15  C   UNL     1     -10.192  -8.165  17.495  0.00  0.00    +0.085 C 
ATOM     16  C   UNL     1     -12.401  -8.895  16.813  0.00  0.00    +0.085 C 
ATOM     17  C   UNL     1      -9.985  -7.424  16.173  0.00  0.00    +0.015 C 
ATOM     18  C   UNL     1     -12.267  -8.179  15.468  0.00  0.00    +0.015 C 
ATOM     19  C   UNL     1     -11.315  -6.992  15.566  0.00  0.00    +0.002 C 
ENDBRANCH   9   6
BRANCH  10   4
ATOM      4  O   UNL     1     -10.118 -10.234  20.706  0.00  0.00    -0.388 OA
ATOM     28  H   UNL     1      -9.292  -9.995  21.162  0.00  0.00    +0.210 HD
ENDBRANCH  10   4
TORSDOF 4
ENDMDL
MODEL 7
REMARK VINA RESULT:      -5.5     18.478     21.239
REMARK  Name = 25338211
REMARK  4 active torsions:
REMARK  status: ('A' for Active; 'I' for Inactive)
REMARK    1  A    between atoms: O_4  and  C_10
REMARK    2  A    between atoms: N_6  and  C_9
REMARK    3  A    between atoms: N_7  and  C_11
REMARK    4  A    between atoms: N_8  and  C_21
REMARK                            x       y       z     vdW  Elec       q    Type
REMARK                         _______ _______ _______ _____ _____    ______ ____
ROOT
ATOM      2  O   UNL     1      22.065   3.723  23.836  0.00  0.00    -0.342 OA
ATOM      3  O   UNL     1      24.356   4.055  23.701  0.00  0.00    -0.347 OA
ATOM      9  C   UNL     1      23.002   5.702  24.844  0.00  0.00    +0.143 C 
ATOM     10  C   UNL     1      22.809   6.489  23.527  0.00  0.00    +0.159 C 
ATOM     11  C   UNL     1      22.073   5.685  22.434  0.00  0.00    +0.136 C 
ATOM     12  C   UNL     1      23.209   4.204  24.553  0.00  0.00    +0.270 C 
ATOM     13  C   UNL     1      22.348   4.168  22.505  0.00  0.00    +0.170 C 
ATOM     14  C   UNL     1      23.815   3.798  22.397  0.00  0.00    +0.196 C 
ENDROOT
BRANCH  11   7
ATOM      5  O   UNL     1      20.437   6.913  20.430  0.00  0.00    -0.252 OA
ATOM      7  N   UNL     1      20.648   5.929  22.510  0.00  0.00    -0.291 N 
ATOM      8  N   UNL     1      18.576   6.639  21.836  0.00  0.00    -0.269 N 
ATOM     20  C   UNL     1      19.925   6.536  21.481  0.00  0.00    +0.304 C 
ATOM     27  H   UNL     1      20.170   5.718  23.381  0.00  0.00    +0.151 HD
ATOM     29  H   UNL     1      18.315   6.275  22.750  0.00  0.00    +0.156 HD
BRANCH   8  21
ATOM      1  F   UNL     1      14.431   8.802  18.858  0.00  0.00    -0.205 F 
ATOM     21  C   UNL     1      17.519   7.191  21.076  0.00  0.00    +0.035 A 
ATOM     22  C   UNL     1      17.146   8.522  21.264  0.00  0.00    +0.026 A 
ATOM     23  C   UNL     1      16.848   6.404  20.139  0.00  0.00    +0.026 A 
ATOM     24  C   UNL     1      16.103   9.067  20.515  0.00  0.00    +0.040 A 
ATOM     25  C   UNL     1      15.805   6.949  19.390  0.00  0.00    +0.040 A 
ATOM     26  C   UNL     1      15.432   8.279  19.578  0.00  0.00    +0.124 A 
ENDBRANCH   8  21
ENDBRANCH  11   7
BRANCH   9   6
ATOM      6  N   UNL     1      21.841   5.883  25.714  0.00  0.00    -0.293 NA
ATOM     15  C   UNL     1      21.433   7.294  25.742  0.00  0.00    +0.085 C 
ATOM     16  C   UNL     1      22.130   5.386  27.067  0.00  0.00    +0.085 C 
ATOM     17  C   UNL     1      20.188   7.491  26.609  0.00  0.00    +0.015 C 
ATOM     18  C   UNL     1      20.908   5.521  27.977  0.00  0.00    +0.015 C 
ATOM     19  C   UNL     1      20.406   6.960  28.020  0.00  0.00    +0.002 C 
ENDBRANCH   9   6
BRANCH  10   4
ATOM      4  O   UNL     1      24.108   6.849  23.039  0.00  0.00    -0.388 OA
ATOM     28  H   UNL     1      24.353   7.695  23.452  0.00  0.00    +0.210 HD
ENDBRANCH  10   4
TORSDOF 4
ENDMDL
MODEL 8
REMARK VINA RESULT:      -5.5     17.778     20.683
REMARK  Name = 25338211
REMARK  4 active torsions:
REMARK  status: ('A' for Active; 'I' for Inactive)
REMARK    1  A    between atoms: O_4  and  C_10
REMARK    2  A    between atoms: N_6  and  C_9
REMARK    3  A    between atoms: N_7  and  C_11
REMARK    4  A    between atoms: N_8  and  C_21
REMARK                            x       y       z     vdW  Elec       q    Type
REMARK                         _______ _______ _______ _____ _____    ______ ____
ROOT
ATOM      2  O   UNL     1      24.981   5.117  20.031  0.00  0.00    -0.342 OA
ATOM      3  O   UNL     1      26.589   6.400  21.101  0.00  0.00    -0.347 OA
ATOM      9  C   UNL     1      25.049   5.101  22.441  0.00  0.00    +0.143 C 
ATOM     10  C   UNL     1      24.062   6.290  22.496  0.00  0.00    +0.159 C 
ATOM     11  C   UNL     1      23.526   6.708  21.110  0.00  0.00    +0.136 C 
ATOM     12  C   UNL     1      25.881   5.150  21.146  0.00  0.00    +0.270 C 
ATOM     13  C   UNL     1      24.541   6.477  19.971  0.00  0.00    +0.170 C 
ATOM     14  C   UNL     1      25.861   7.202  20.159  0.00  0.00    +0.196 C 
ENDROOT
BRANCH  11   7
ATOM      5  O   UNL     1      20.917   7.861  20.861  0.00  0.00    -0.252 OA
ATOM      7  N   UNL     1      22.294   6.006  20.818  0.00  0.00    -0.291 N 
ATOM      8  N   UNL     1      20.054   5.721  20.427  0.00  0.00    -0.269 N 
ATOM     20  C   UNL     1      21.059   6.650  20.714  0.00  0.00    +0.304 C 
ATOM     27  H   UNL     1      22.320   4.993  20.764  0.00  0.00    +0.151 HD
ATOM     29  H   UNL     1      20.343   4.749  20.336  0.00  0.00    +0.156 HD
BRANCH   8  21
ATOM      1  F   UNL     1      14.642   6.679  19.712  0.00  0.00    -0.205 F 
ATOM     21  C   UNL     1      18.673   5.965  20.244  0.00  0.00    +0.035 A 
ATOM     22  C   UNL     1      18.063   5.645  19.031  0.00  0.00    +0.026 A 
ATOM     23  C   UNL     1      17.921   6.526  21.277  0.00  0.00    +0.026 A 
ATOM     24  C   UNL     1      16.701   5.887  18.851  0.00  0.00    +0.040 A 
ATOM     25  C   UNL     1      16.560   6.767  21.097  0.00  0.00    +0.040 A 
ATOM     26  C   UNL     1      15.950   6.448  19.884  0.00  0.00    +0.124 A 
ENDBRANCH   8  21
ENDBRANCH  11   7
BRANCH   9   6
ATOM      6  N   UNL     1      24.320   3.836  22.514  0.00  0.00    -0.293 NA
ATOM     15  C   UNL     1      23.464   3.804  23.707  0.00  0.00    +0.085 C 
ATOM     16  C   UNL     1      25.255   2.702  22.501  0.00  0.00    +0.085 C 
ATOM     17  C   UNL     1      22.656   2.506  23.772  0.00  0.00    +0.015 C 
ATOM     18  C   UNL     1      24.506   1.369  22.526  0.00  0.00    +0.015 C 
ATOM     19  C   UNL     1      23.565   1.284  23.722  0.00  0.00    +0.002 C 
ENDBRANCH   9   6
BRANCH  10   4
ATOM      4  O   UNL     1      24.750   7.403  23.080  0.00  0.00    -0.388 OA
ATOM     28  H   UNL     1      24.929   8.044  22.370  0.00  0.00    +0.210 HD
ENDBRANCH  10   4
TORSDOF 4
ENDMDL
MODEL 9
REMARK VINA RESULT:      -5.4      2.943      6.175
REMARK  Name = 25338211
REMARK  4 active torsions:
REMARK  status: ('A' for Active; 'I' for Inactive)
REMARK    1  A    between atoms: O_4  and  C_10
REMARK    2  A    between atoms: N_6  and  C_9
REMARK    3  A    between atoms: N_7  and  C_11
REMARK    4  A    between atoms: N_8  and  C_21
REMARK                            x       y       z     vdW  Elec       q    Type
REMARK                         _______ _______ _______ _____ _____    ______ ____
ROOT
ATOM      2  O   UNL     1      10.530   5.527   6.956  0.00  0.00    -0.342 OA
ATOM      3  O   UNL     1       8.509   6.649   6.763  0.00  0.00    -0.347 OA
ATOM      9  C   UNL     1      10.038   6.663   4.888  0.00  0.00    +0.143 C 
ATOM     10  C   UNL     1      10.706   7.954   5.415  0.00  0.00    +0.159 C 
ATOM     11  C   UNL     1      11.372   7.781   6.797  0.00  0.00    +0.136 C 
ATOM     12  C   UNL     1       9.461   5.839   6.054  0.00  0.00    +0.270 C 
ATOM     13  C   UNL     1      10.655   6.748   7.692  0.00  0.00    +0.170 C 
ATOM     14  C   UNL     1       9.195   7.062   7.955  0.00  0.00    +0.196 C 
ENDROOT
BRANCH  11   7
ATOM      5  O   UNL     1      13.406   9.297   5.469  0.00  0.00    -0.252 OA
ATOM      7  N   UNL     1      12.762   7.410   6.637  0.00  0.00    -0.291 N 
ATOM      8  N   UNL     1      14.948   7.601   5.976  0.00  0.00    -0.269 N 
ATOM     20  C   UNL     1      13.691   8.213   5.972  0.00  0.00    +0.304 C 
ATOM     27  H   UNL     1      13.055   6.492   6.956  0.00  0.00    +0.151 HD
ATOM     29  H   UNL     1      15.014   6.697   6.440  0.00  0.00    +0.156 HD
BRANCH   8  21
ATOM      1  F   UNL     1      19.661   9.496   3.758  0.00  0.00    -0.205 F 
ATOM     21  C   UNL     1      16.151   8.084   5.410  0.00  0.00    +0.035 A 
ATOM     22  C   UNL     1      17.059   8.788   6.201  0.00  0.00    +0.026 A 
ATOM     23  C   UNL     1      16.428   7.857   4.062  0.00  0.00    +0.026 A 
ATOM     24  C   UNL     1      18.246   9.266   5.643  0.00  0.00    +0.040 A 
ATOM     25  C   UNL     1      17.614   8.334   3.504  0.00  0.00    +0.040 A 
ATOM     26  C   UNL     1      18.522   9.039   4.294  0.00  0.00    +0.124 A 
ENDBRANCH   8  21
ENDBRANCH  11   7
BRANCH   9   6
ATOM      6  N   UNL     1      11.008   5.860   4.145  0.00  0.00    -0.293 NA
ATOM     15  C   UNL     1      11.755   6.700   3.199  0.00  0.00    +0.085 C 
ATOM     16  C   UNL     1      10.336   4.751   3.454  0.00  0.00    +0.085 C 
ATOM     17  C   UNL     1      12.809   5.884   2.449  0.00  0.00    +0.015 C 
ATOM     18  C   UNL     1      11.344   3.871   2.713  0.00  0.00    +0.015 C 
ATOM     19  C   UNL     1      12.184   4.690   1.739  0.00  0.00    +0.002 C 
ENDBRANCH   9   6
BRANCH  10   4
ATOM      4  O   UNL     1       9.691   8.962   5.515  0.00  0.00    -0.388 OA
ATOM     28  H   UNL     1      10.054   9.782   5.138  0.00  0.00    +0.210 HD
ENDBRANCH  10   4
TORSDOF 4
ENDMDL
MODEL 10
REMARK VINA RESULT:      -5.3     29.671     32.140
REMARK  Name = 25338211
REMARK  4 active torsions:
REMARK  status: ('A' for Active; 'I' for Inactive)
REMARK    1  A    between atoms: O_4  and  C_10
REMARK    2  A    between atoms: N_6  and  C_9
REMARK    3  A    between atoms: N_7  and  C_11
REMARK    4  A    between atoms: N_8  and  C_21
REMARK                            x       y       z     vdW  Elec       q    Type
REMARK                         _______ _______ _______ _____ _____    ______ ____
ROOT
ATOM      2  O   UNL     1       8.385  -8.345  35.444  0.00  0.00    -0.342 OA
ATOM      3  O   UNL     1       6.590  -7.121  36.256  0.00  0.00    -0.347 OA
ATOM      9  C   UNL     1       6.721  -7.569  33.882  0.00  0.00    +0.143 C 
ATOM     10  C   UNL     1       7.513  -6.260  33.657  0.00  0.00    +0.159 C 
ATOM     11  C   UNL     1       8.872  -6.232  34.390  0.00  0.00    +0.136 C 
ATOM     12  C   UNL     1       6.977  -8.119  35.297  0.00  0.00    +0.270 C 
ATOM     13  C   UNL     1       8.865  -7.024  35.714  0.00  0.00    +0.170 C 
ATOM     14  C   UNL     1       7.826  -6.553  36.714  0.00  0.00    +0.196 C 
ENDROOT
BRANCH  11   7
ATOM      5  O   UNL     1      11.019  -4.722  33.245  0.00  0.00    -0.252 OA
ATOM      7  N   UNL     1       9.917  -6.734  33.523  0.00  0.00    -0.291 N 
ATOM      8  N   UNL     1      11.792  -6.681  32.207  0.00  0.00    -0.269 N 
ATOM     20  C   UNL     1      10.930  -5.924  33.007  0.00  0.00    +0.304 C 
ATOM     27  H   UNL     1       9.865  -7.701  33.217  0.00  0.00    +0.151 HD
ATOM     29  H   UNL     1      11.576  -7.671  32.113  0.00  0.00    +0.156 HD
BRANCH   8  21
ATOM      1  F   UNL     1      16.280  -4.946  29.455  0.00  0.00    -0.205 F 
ATOM     21  C   UNL     1      12.938  -6.239  31.505  0.00  0.00    +0.035 A 
ATOM     22  C   UNL     1      13.726  -5.216  32.033  0.00  0.00    +0.026 A 
ATOM     23  C   UNL     1      13.278  -6.825  30.286  0.00  0.00    +0.026 A 
ATOM     24  C   UNL     1      14.856  -4.778  31.340  0.00  0.00    +0.040 A 
ATOM     25  C   UNL     1      14.407  -6.388  29.594  0.00  0.00    +0.040 A 
ATOM     26  C   UNL     1      15.195  -5.365  30.120  0.00  0.00    +0.124 A 
ENDBRANCH   8  21
ENDBRANCH  11   7
BRANCH   9   6
ATOM      6  N   UNL     1       7.103  -8.568  32.885  0.00  0.00    -0.293 NA
ATOM     15  C   UNL     1       6.711  -8.128  31.539  0.00  0.00    +0.085 C 
ATOM     16  C   UNL     1       6.510  -9.872  33.211  0.00  0.00    +0.085 C 
ATOM     17  C   UNL     1       7.148  -9.140  30.478  0.00  0.00    +0.015 C 
ATOM     18  C   UNL     1       6.941 -10.941  32.205  0.00  0.00    +0.015 C 
ATOM     19  C   UNL     1       6.599 -10.529  30.778  0.00  0.00    +0.002 C 
ENDBRANCH   9   6
BRANCH  10   4
ATOM      4  O   UNL     1       6.708  -5.175  34.134  0.00  0.00    -0.388 OA
ATOM     28  H   UNL     1       6.782  -4.449  33.489  0.00  0.00    +0.210 HD
ENDBRANCH  10   4
TORSDOF 4
ENDMDL
