MODEL 1
REMARK VINA RESULT:      -6.4      0.000      0.000
REMARK  Name = 7127906
REMARK  13 active torsions:
REMARK  status: ('A' for Active; 'I' for Inactive)
REMARK    1  A    between atoms: S_1  and  C_22
REMARK    2  A    between atoms: S_1  and  C_26
REMARK    3  A    between atoms: O_2  and  C_13
REMARK    4  A    between atoms: O_3  and  C_15
REMARK    5  A    between atoms: N_9  and  C_14
REMARK    6  A    between atoms: N_10  and  C_20
REMARK    7  A    between atoms: N_12  and  C_27
REMARK    8  A    between atoms: C_17  and  C_19
REMARK    9  A    between atoms: C_20  and  C_21
REMARK   10  A    between atoms: C_20  and  C_24
REMARK   11  A    between atoms: C_21  and  C_22
REMARK   12  A    between atoms: C_23  and  C_25
REMARK   13  A    between atoms: C_25  and  C_27
REMARK                            x       y       z     vdW  Elec       q    Type
REMARK                         _______ _______ _______ _____ _____    ______ ____
ROOT
ATOM     13  C   UNL     1      21.141   7.337  21.657  0.00  0.00    +0.167 C 
ATOM     14  C   UNL     1      20.896   5.871  21.250  0.00  0.00    +0.127 C 
ATOM     15  C   UNL     1      19.868   7.985  22.215  0.00  0.00    +0.149 C 
ATOM     16  C   UNL     1      18.692   7.896  21.228  0.00  0.00    +0.074 C 
ATOM     17  C   UNL     1      18.634   6.590  20.488  0.00  0.00    +0.015 C 
ATOM     18  C   UNL     1      19.610   5.669  20.496  0.00  0.00    +0.006 C 
ENDROOT
BRANCH  17  19
ATOM      4  O   UNL     1      17.465   5.546  18.738  0.00  0.00    -0.271 OA
ATOM     10  N   UNL     1      16.293   6.908  20.224  0.00  0.00    -0.300 N 
ATOM     19  C   UNL     1      17.422   6.284  19.721  0.00  0.00    +0.241 C 
ATOM     29  H   UNL     1      16.356   7.516  21.032  0.00  0.00    +0.150 HD
BRANCH  10  20
ATOM     20  C   UNL     1      14.982   6.760  19.635  0.00  0.00    +0.160 C 
BRANCH  20  24
ATOM      8  O   UNL     1      14.502   7.680  17.438  0.00  0.00    -0.274 OA
ATOM     11  N   UNL     1      14.999   9.129  19.149  0.00  0.00    -0.328 N 
ATOM     24  C   UNL     1      14.814   7.874  18.610  0.00  0.00    +0.231 C 
ATOM     32  H   UNL     1      15.213   9.280  20.129  0.00  0.00    +0.145 HD
ATOM     33  H   UNL     1      14.905   9.960  18.574  0.00  0.00    +0.145 HD
ENDBRANCH  20  24
BRANCH  20  21
ATOM     21  C   UNL     1      13.870   6.826  20.684  0.00  0.00    +0.054 C 
BRANCH  21  22
ATOM     22  C   UNL     1      12.482   6.774  20.061  0.00  0.00    +0.168 C 
BRANCH  22   1
ATOM      1  S   UNL     1      11.529   8.196  20.497  0.00  0.00    -0.034 S 
ATOM      6  O   UNL     1      12.442   9.235  20.942  0.00  0.00    -0.175 OA
ATOM      7  O   UNL     1      10.581   8.454  19.428  0.00  0.00    -0.175 OA
ATOM     26  C   UNL     1      10.605   7.652  21.916  0.00  0.00    +0.194 C 
ENDBRANCH  22   1
ENDBRANCH  21  22
ENDBRANCH  20  21
ENDBRANCH  10  20
ENDBRANCH  17  19
BRANCH  14   9
ATOM      5  O   UNL     1      23.314   4.702  22.252  0.00  0.00    -0.276 OA
ATOM      9  N   UNL     1      21.986   5.348  20.462  0.00  0.00    -0.306 N 
ATOM     23  C   UNL     1      23.120   4.800  21.044  0.00  0.00    +0.215 C 
ATOM     28  H   UNL     1      21.936   5.425  19.450  0.00  0.00    +0.149 HD
BRANCH  23  25
ATOM     25  C   UNL     1      24.112   4.322  19.998  0.00  0.00    +0.110 C 
BRANCH  25  27
ATOM     27  C   UNL     1      24.401   2.829  20.113  0.00  0.00    +0.087 C 
BRANCH  27  12
ATOM     12  N   UNL     1      23.172   2.095  20.385  0.00  0.00    -0.330 NA
ATOM     34  H   UNL     1      23.365   1.094  20.371  0.00  0.00    +0.118 HD
ATOM     35  H   UNL     1      22.844   2.309  21.326  0.00  0.00    +0.118 HD
ENDBRANCH  27  12
ENDBRANCH  25  27
ENDBRANCH  23  25
ENDBRANCH  14   9
BRANCH  13   2
ATOM      2  O   UNL     1      21.576   8.084  20.518  0.00  0.00    -0.387 OA
ATOM     30  H   UNL     1      22.532   8.238  20.590  0.00  0.00    +0.210 HD
ENDBRANCH  13   2
BRANCH  15   3
ATOM      3  O   UNL     1      19.513   7.380  23.457  0.00  0.00    -0.389 OA
ATOM     31  H   UNL     1      20.337   7.112  23.899  0.00  0.00    +0.210 HD
ENDBRANCH  15   3
TORSDOF 12
ENDMDL
MODEL 2
REMARK VINA RESULT:      -6.2     15.529     18.798
REMARK  Name = 7127906
REMARK  13 active torsions:
REMARK  status: ('A' for Active; 'I' for Inactive)
REMARK    1  A    between atoms: S_1  and  C_22
REMARK    2  A    between atoms: S_1  and  C_26
REMARK    3  A    between atoms: O_2  and  C_13
REMARK    4  A    between atoms: O_3  and  C_15
REMARK    5  A    between atoms: N_9  and  C_14
REMARK    6  A    between atoms: N_10  and  C_20
REMARK    7  A    between atoms: N_12  and  C_27
REMARK    8  A    between atoms: C_17  and  C_19
REMARK    9  A    between atoms: C_20  and  C_21
REMARK   10  A    between atoms: C_20  and  C_24
REMARK   11  A    between atoms: C_21  and  C_22
REMARK   12  A    between atoms: C_23  and  C_25
REMARK   13  A    between atoms: C_25  and  C_27
REMARK                            x       y       z     vdW  Elec       q    Type
REMARK                         _______ _______ _______ _____ _____    ______ ____
ROOT
ATOM     13  C   UNL     1      12.818   7.242   7.303  0.00  0.00    +0.167 C 
ATOM     14  C   UNL     1      11.527   6.748   6.622  0.00  0.00    +0.127 C 
ATOM     15  C   UNL     1      13.541   8.289   6.446  0.00  0.00    +0.149 C 
ATOM     16  C   UNL     1      13.852   7.766   5.034  0.00  0.00    +0.074 C 
ATOM     17  C   UNL     1      12.753   6.920   4.457  0.00  0.00    +0.015 C 
ATOM     18  C   UNL     1      11.701   6.464   5.154  0.00  0.00    +0.006 C 
ENDROOT
BRANCH  17  19
ATOM      4  O   UNL     1      12.059   7.116   2.221  0.00  0.00    -0.271 OA
ATOM     10  N   UNL     1      13.787   5.640   2.742  0.00  0.00    -0.300 N 
ATOM     19  C   UNL     1      12.817   6.584   3.031  0.00  0.00    +0.241 C 
ATOM     29  H   UNL     1      14.356   5.242   3.480  0.00  0.00    +0.150 HD
BRANCH  10  20
ATOM     20  C   UNL     1      14.036   5.148   1.406  0.00  0.00    +0.160 C 
BRANCH  20  24
ATOM      8  O   UNL     1      13.363   2.815   1.317  0.00  0.00    -0.274 OA
ATOM     11  N   UNL     1      15.558   3.307   1.779  0.00  0.00    -0.328 N 
ATOM     24  C   UNL     1      14.250   3.644   1.506  0.00  0.00    +0.231 C 
ATOM     32  H   UNL     1      16.292   3.999   1.889  0.00  0.00    +0.145 HD
ATOM     33  H   UNL     1      15.838   2.335   1.860  0.00  0.00    +0.145 HD
ENDBRANCH  20  24
BRANCH  20  21
ATOM     21  C   UNL     1      15.250   5.821   0.764  0.00  0.00    +0.054 C 
BRANCH  21  22
ATOM     22  C   UNL     1      15.043   6.098  -0.719  0.00  0.00    +0.168 C 
BRANCH  22   1
ATOM      1  S   UNL     1      15.525   4.714  -1.704  0.00  0.00    -0.034 S 
ATOM      6  O   UNL     1      16.629   4.044  -1.037  0.00  0.00    -0.175 OA
ATOM      7  O   UNL     1      14.328   3.979  -2.072  0.00  0.00    -0.175 OA
ATOM     26  C   UNL     1      16.170   5.466  -3.181  0.00  0.00    +0.194 C 
ENDBRANCH  22   1
ENDBRANCH  21  22
ENDBRANCH  20  21
ENDBRANCH  10  20
ENDBRANCH  17  19
BRANCH  14   9
ATOM      5  O   UNL     1       9.096   6.571   8.129  0.00  0.00    -0.276 OA
ATOM      9  N   UNL     1      11.003   5.569   7.266  0.00  0.00    -0.306 N 
ATOM     23  C   UNL     1       9.811   5.585   7.976  0.00  0.00    +0.215 C 
ATOM     28  H   UNL     1      11.549   4.711   7.232  0.00  0.00    +0.149 HD
BRANCH  23  25
ATOM     25  C   UNL     1       9.483   4.218   8.553  0.00  0.00    +0.110 C 
BRANCH  25  27
ATOM     27  C   UNL     1       9.353   4.248  10.072  0.00  0.00    +0.087 C 
BRANCH  27  12
ATOM     12  N   UNL     1      10.457   4.994  10.662  0.00  0.00    -0.330 NA
ATOM     34  H   UNL     1      11.341   4.598  10.345  0.00  0.00    +0.118 HD
ATOM     35  H   UNL     1      10.439   5.957  10.328  0.00  0.00    +0.118 HD
ENDBRANCH  27  12
ENDBRANCH  25  27
ENDBRANCH  23  25
ENDBRANCH  14   9
BRANCH  13   2
ATOM      2  O   UNL     1      13.699   6.138   7.520  0.00  0.00    -0.387 OA
ATOM     30  H   UNL     1      13.172   5.356   7.753  0.00  0.00    +0.210 HD
ENDBRANCH  13   2
BRANCH  15   3
ATOM      3  O   UNL     1      12.763   9.482   6.368  0.00  0.00    -0.389 OA
ATOM     31  H   UNL     1      12.095   9.350   5.673  0.00  0.00    +0.210 HD
ENDBRANCH  15   3
TORSDOF 12
ENDMDL
MODEL 3
REMARK VINA RESULT:      -5.9     14.780     18.142
REMARK  Name = 7127906
REMARK  13 active torsions:
REMARK  status: ('A' for Active; 'I' for Inactive)
REMARK    1  A    between atoms: S_1  and  C_22
REMARK    2  A    between atoms: S_1  and  C_26
REMARK    3  A    between atoms: O_2  and  C_13
REMARK    4  A    between atoms: O_3  and  C_15
REMARK    5  A    between atoms: N_9  and  C_14
REMARK    6  A    between atoms: N_10  and  C_20
REMARK    7  A    between atoms: N_12  and  C_27
REMARK    8  A    between atoms: C_17  and  C_19
REMARK    9  A    between atoms: C_20  and  C_21
REMARK   10  A    between atoms: C_20  and  C_24
REMARK   11  A    between atoms: C_21  and  C_22
REMARK   12  A    between atoms: C_23  and  C_25
REMARK   13  A    between atoms: C_25  and  C_27
REMARK                            x       y       z     vdW  Elec       q    Type
REMARK                         _______ _______ _______ _____ _____    ______ ____
ROOT
ATOM     13  C   UNL     1      12.671   7.406   7.292  0.00  0.00    +0.167 C 
ATOM     14  C   UNL     1      11.398   6.805   6.665  0.00  0.00    +0.127 C 
ATOM     15  C   UNL     1      13.320   8.440   6.363  0.00  0.00    +0.149 C 
ATOM     16  C   UNL     1      13.634   7.856   4.976  0.00  0.00    +0.074 C 
ATOM     17  C   UNL     1      12.574   6.920   4.470  0.00  0.00    +0.015 C 
ATOM     18  C   UNL     1      11.561   6.448   5.213  0.00  0.00    +0.006 C 
ENDROOT
BRANCH  17  19
ATOM      4  O   UNL     1      11.777   6.878   2.260  0.00  0.00    -0.271 OA
ATOM     10  N   UNL     1      13.713   5.690   2.785  0.00  0.00    -0.300 N 
ATOM     19  C   UNL     1      12.631   6.508   3.064  0.00  0.00    +0.241 C 
ATOM     29  H   UNL     1      14.359   5.421   3.517  0.00  0.00    +0.150 HD
BRANCH  10  20
ATOM     20  C   UNL     1      13.978   5.155   1.469  0.00  0.00    +0.160 C 
BRANCH  20  24
ATOM      8  O   UNL     1      13.405   2.802   1.265  0.00  0.00    -0.274 OA
ATOM     11  N   UNL     1      15.445   3.360   2.161  0.00  0.00    -0.328 N 
ATOM     24  C   UNL     1      14.210   3.658   1.623  0.00  0.00    +0.231 C 
ATOM     32  H   UNL     1      16.121   4.074   2.412  0.00  0.00    +0.145 HD
ATOM     33  H   UNL     1      15.729   2.397   2.306  0.00  0.00    +0.145 HD
ENDBRANCH  20  24
BRANCH  20  21
ATOM     21  C   UNL     1      15.189   5.820   0.813  0.00  0.00    +0.054 C 
BRANCH  21  22
ATOM     22  C   UNL     1      14.870   7.211   0.283  0.00  0.00    +0.168 C 
BRANCH  22   1
ATOM      1  S   UNL     1      15.629   8.463   1.271  0.00  0.00    -0.034 S 
ATOM      6  O   UNL     1      16.074   7.855   2.513  0.00  0.00    -0.175 OA
ATOM      7  O   UNL     1      16.560   9.200   0.435  0.00  0.00    -0.175 OA
ATOM     26  C   UNL     1      14.279   9.553   1.662  0.00  0.00    +0.194 C 
ENDBRANCH  22   1
ENDBRANCH  21  22
ENDBRANCH  20  21
ENDBRANCH  10  20
ENDBRANCH  17  19
BRANCH  14   9
ATOM      5  O   UNL     1       9.084   6.624   8.347  0.00  0.00    -0.276 OA
ATOM      9  N   UNL     1      10.952   5.637   7.385  0.00  0.00    -0.306 N 
ATOM     23  C   UNL     1       9.812   5.650   8.177  0.00  0.00    +0.215 C 
ATOM     28  H   UNL     1      11.516   4.792   7.342  0.00  0.00    +0.149 HD
BRANCH  23  25
ATOM     25  C   UNL     1       9.562   4.298   8.822  0.00  0.00    +0.110 C 
BRANCH  25  27
ATOM     27  C   UNL     1       9.519   4.382  10.344  0.00  0.00    +0.087 C 
BRANCH  27  12
ATOM     12  N   UNL     1       8.200   4.808  10.792  0.00  0.00    -0.330 NA
ATOM     34  H   UNL     1       8.042   5.775  10.510  0.00  0.00    +0.118 HD
ATOM     35  H   UNL     1       7.482   4.254  10.325  0.00  0.00    +0.118 HD
ENDBRANCH  27  12
ENDBRANCH  25  27
ENDBRANCH  23  25
ENDBRANCH  14   9
BRANCH  13   2
ATOM      2  O   UNL     1      13.616   6.366   7.551  0.00  0.00    -0.387 OA
ATOM     30  H   UNL     1      13.326   5.866   8.332  0.00  0.00    +0.210 HD
ENDBRANCH  13   2
BRANCH  15   3
ATOM      3  O   UNL     1      12.475   9.583   6.234  0.00  0.00    -0.389 OA
ATOM     31  H   UNL     1      11.676   9.417   6.763  0.00  0.00    +0.210 HD
ENDBRANCH  15   3
TORSDOF 12
ENDMDL
MODEL 4
REMARK VINA RESULT:      -5.9      3.853      6.599
REMARK  Name = 7127906
REMARK  13 active torsions:
REMARK  status: ('A' for Active; 'I' for Inactive)
REMARK    1  A    between atoms: S_1  and  C_22
REMARK    2  A    between atoms: S_1  and  C_26
REMARK    3  A    between atoms: O_2  and  C_13
REMARK    4  A    between atoms: O_3  and  C_15
REMARK    5  A    between atoms: N_9  and  C_14
REMARK    6  A    between atoms: N_10  and  C_20
REMARK    7  A    between atoms: N_12  and  C_27
REMARK    8  A    between atoms: C_17  and  C_19
REMARK    9  A    between atoms: C_20  and  C_21
REMARK   10  A    between atoms: C_20  and  C_24
REMARK   11  A    between atoms: C_21  and  C_22
REMARK   12  A    between atoms: C_23  and  C_25
REMARK   13  A    between atoms: C_25  and  C_27
REMARK                            x       y       z     vdW  Elec       q    Type
REMARK                         _______ _______ _______ _____ _____    ______ ____
ROOT
ATOM     13  C   UNL     1      13.691   6.776  19.763  0.00  0.00    +0.167 C 
ATOM     14  C   UNL     1      14.879   7.552  19.161  0.00  0.00    +0.127 C 
ATOM     15  C   UNL     1      12.351   7.289  19.219  0.00  0.00    +0.149 C 
ATOM     16  C   UNL     1      12.173   8.798  19.450  0.00  0.00    +0.074 C 
ATOM     17  C   UNL     1      13.438   9.585  19.255  0.00  0.00    +0.015 C 
ATOM     18  C   UNL     1      14.656   9.039  19.116  0.00  0.00    +0.006 C 
ENDROOT
BRANCH  17  19
ATOM      4  O   UNL     1      13.412  11.639  18.115  0.00  0.00    -0.271 OA
ATOM     10  N   UNL     1      13.167  11.631  20.434  0.00  0.00    -0.300 N 
ATOM     19  C   UNL     1      13.339  11.046  19.191  0.00  0.00    +0.241 C 
ATOM     29  H   UNL     1      13.136  11.062  21.272  0.00  0.00    +0.150 HD
BRANCH  10  20
ATOM     20  C   UNL     1      13.047  13.058  20.625  0.00  0.00    +0.160 C 
BRANCH  20  24
ATOM      8  O   UNL     1      15.077  14.309  20.159  0.00  0.00    -0.274 OA
ATOM     11  N   UNL     1      14.886  13.244  22.184  0.00  0.00    -0.328 N 
ATOM     24  C   UNL     1      14.438  13.597  20.929  0.00  0.00    +0.231 C 
ATOM     32  H   UNL     1      14.331  12.692  22.830  0.00  0.00    +0.145 HD
ATOM     33  H   UNL     1      15.795  13.548  22.515  0.00  0.00    +0.145 HD
ENDBRANCH  20  24
BRANCH  20  21
ATOM     21  C   UNL     1      12.078  13.407  21.756  0.00  0.00    +0.054 C 
BRANCH  21  22
ATOM     22  C   UNL     1      11.011  12.339  21.956  0.00  0.00    +0.168 C 
BRANCH  22   1
ATOM      1  S   UNL     1      11.348  11.356  23.384  0.00  0.00    -0.034 S 
ATOM      6  O   UNL     1      12.780  11.389  23.631  0.00  0.00    -0.175 OA
ATOM      7  O   UNL     1      10.409  11.731  24.426  0.00  0.00    -0.175 OA
ATOM     26  C   UNL     1      10.935   9.709  22.855  0.00  0.00    +0.194 C 
ENDBRANCH  22   1
ENDBRANCH  21  22
ENDBRANCH  20  21
ENDBRANCH  10  20
ENDBRANCH  17  19
BRANCH  14   9
ATOM      5  O   UNL     1      16.806   5.525  18.536  0.00  0.00    -0.276 OA
ATOM      9  N   UNL     1      16.104   7.286  19.875  0.00  0.00    -0.306 N 
ATOM     23  C   UNL     1      16.976   6.276  19.492  0.00  0.00    +0.215 C 
ATOM     28  H   UNL     1      16.311   7.829  20.709  0.00  0.00    +0.149 HD
BRANCH  23  25
ATOM     25  C   UNL     1      18.188   6.206  20.404  0.00  0.00    +0.110 C 
BRANCH  25  27
ATOM     27  C   UNL     1      18.674   7.588  20.828  0.00  0.00    +0.087 C 
BRANCH  27  12
ATOM     12  N   UNL     1      18.187   7.909  22.164  0.00  0.00    -0.330 NA
ATOM     34  H   UNL     1      18.667   7.326  22.848  0.00  0.00    +0.118 HD
ATOM     35  H   UNL     1      18.422   8.873  22.394  0.00  0.00    +0.118 HD
ENDBRANCH  27  12
ENDBRANCH  25  27
ENDBRANCH  23  25
ENDBRANCH  14   9
BRANCH  13   2
ATOM      2  O   UNL     1      13.694   6.920  21.185  0.00  0.00    -0.387 OA
ATOM     30  H   UNL     1      12.859   7.332  21.461  0.00  0.00    +0.210 HD
ENDBRANCH  13   2
BRANCH  15   3
ATOM      3  O   UNL     1      12.239   6.989  17.829  0.00  0.00    -0.389 OA
ATOM     31  H   UNL     1      12.277   7.830  17.343  0.00  0.00    +0.210 HD
ENDBRANCH  15   3
TORSDOF 12
ENDMDL
MODEL 5
REMARK VINA RESULT:      -5.6     16.907     20.186
REMARK  Name = 7127906
REMARK  13 active torsions:
REMARK  status: ('A' for Active; 'I' for Inactive)
REMARK    1  A    between atoms: S_1  and  C_22
REMARK    2  A    between atoms: S_1  and  C_26
REMARK    3  A    between atoms: O_2  and  C_13
REMARK    4  A    between atoms: O_3  and  C_15
REMARK    5  A    between atoms: N_9  and  C_14
REMARK    6  A    between atoms: N_10  and  C_20
REMARK    7  A    between atoms: N_12  and  C_27
REMARK    8  A    between atoms: C_17  and  C_19
REMARK    9  A    between atoms: C_20  and  C_21
REMARK   10  A    between atoms: C_20  and  C_24
REMARK   11  A    between atoms: C_21  and  C_22
REMARK   12  A    between atoms: C_23  and  C_25
REMARK   13  A    between atoms: C_25  and  C_27
REMARK                            x       y       z     vdW  Elec       q    Type
REMARK                         _______ _______ _______ _____ _____    ______ ____
ROOT
ATOM     13  C   UNL     1      11.000   8.238   4.070  0.00  0.00    +0.167 C 
ATOM     14  C   UNL     1      10.265   6.943   4.464  0.00  0.00    +0.127 C 
ATOM     15  C   UNL     1      11.255   8.302   2.559  0.00  0.00    +0.149 C 
ATOM     16  C   UNL     1      12.029   7.075   2.050  0.00  0.00    +0.074 C 
ATOM     17  C   UNL     1      11.611   5.792   2.710  0.00  0.00    +0.015 C 
ATOM     18  C   UNL     1      10.814   5.717   3.787  0.00  0.00    +0.006 C 
ENDROOT
BRANCH  17  19
ATOM      4  O   UNL     1      11.532   3.464   2.395  0.00  0.00    -0.271 OA
ATOM     10  N   UNL     1      13.179   4.697   1.297  0.00  0.00    -0.300 N 
ATOM     19  C   UNL     1      12.086   4.531   2.130  0.00  0.00    +0.241 C 
ATOM     29  H   UNL     1      13.581   5.615   1.150  0.00  0.00    +0.150 HD
BRANCH  10  20
ATOM     20  C   UNL     1      13.824   3.600   0.613  0.00  0.00    +0.160 C 
BRANCH  20  24
ATOM      8  O   UNL     1      16.200   3.893   0.198  0.00  0.00    -0.274 OA
ATOM     11  N   UNL     1      15.514   3.384   2.329  0.00  0.00    -0.328 N 
ATOM     24  C   UNL     1      15.299   3.631   0.990  0.00  0.00    +0.231 C 
ATOM     32  H   UNL     1      14.758   3.212   2.984  0.00  0.00    +0.145 HD
ATOM     33  H   UNL     1      16.453   3.386   2.713  0.00  0.00    +0.145 HD
ENDBRANCH  20  24
BRANCH  20  21
ATOM     21  C   UNL     1      13.656   3.691  -0.904  0.00  0.00    +0.054 C 
BRANCH  21  22
ATOM     22  C   UNL     1      12.281   3.227  -1.365  0.00  0.00    +0.168 C 
BRANCH  22   1
ATOM      1  S   UNL     1      11.181   4.593  -1.575  0.00  0.00    -0.034 S 
ATOM      6  O   UNL     1       9.988   4.341  -0.784  0.00  0.00    -0.175 OA
ATOM      7  O   UNL     1      11.939   5.819  -1.399  0.00  0.00    -0.175 OA
ATOM     26  C   UNL     1      10.718   4.488  -3.289  0.00  0.00    +0.194 C 
ENDBRANCH  22   1
ENDBRANCH  21  22
ENDBRANCH  20  21
ENDBRANCH  10  20
ENDBRANCH  17  19
BRANCH  14   9
ATOM      5  O   UNL     1       8.076   6.039   6.080  0.00  0.00    -0.276 OA
ATOM      9  N   UNL     1      10.283   6.734   5.891  0.00  0.00    -0.306 N 
ATOM     23  C   UNL     1       9.166   6.293   6.586  0.00  0.00    +0.215 C 
ATOM     28  H   UNL     1      11.130   6.959   6.407  0.00  0.00    +0.149 HD
BRANCH  23  25
ATOM     25  C   UNL     1       9.448   6.153   8.072  0.00  0.00    +0.110 C 
BRANCH  25  27
ATOM     27  C   UNL     1       9.795   4.720   8.462  0.00  0.00    +0.087 C 
BRANCH  27  12
ATOM     12  N   UNL     1      10.093   3.929   7.275  0.00  0.00    -0.330 NA
ATOM     34  H   UNL     1      10.883   4.342   6.782  0.00  0.00    +0.118 HD
ATOM     35  H   UNL     1      10.386   2.992   7.550  0.00  0.00    +0.118 HD
ENDBRANCH  27  12
ENDBRANCH  25  27
ENDBRANCH  23  25
ENDBRANCH  14   9
BRANCH  13   2
ATOM      2  O   UNL     1      12.255   8.303   4.750  0.00  0.00    -0.387 OA
ATOM     30  H   UNL     1      12.863   8.859   4.235  0.00  0.00    +0.210 HD
ENDBRANCH  13   2
BRANCH  15   3
ATOM      3  O   UNL     1      10.019   8.428   1.857  0.00  0.00    -0.389 OA
ATOM     31  H   UNL     1       9.850   9.376   1.729  0.00  0.00    +0.210 HD
ENDBRANCH  15   3
TORSDOF 12
ENDMDL
MODEL 6
REMARK VINA RESULT:      -5.6      6.565      9.223
REMARK  Name = 7127906
REMARK  13 active torsions:
REMARK  status: ('A' for Active; 'I' for Inactive)
REMARK    1  A    between atoms: S_1  and  C_22
REMARK    2  A    between atoms: S_1  and  C_26
REMARK    3  A    between atoms: O_2  and  C_13
REMARK    4  A    between atoms: O_3  and  C_15
REMARK    5  A    between atoms: N_9  and  C_14
REMARK    6  A    between atoms: N_10  and  C_20
REMARK    7  A    between atoms: N_12  and  C_27
REMARK    8  A    between atoms: C_17  and  C_19
REMARK    9  A    between atoms: C_20  and  C_21
REMARK   10  A    between atoms: C_20  and  C_24
REMARK   11  A    between atoms: C_21  and  C_22
REMARK   12  A    between atoms: C_23  and  C_25
REMARK   13  A    between atoms: C_25  and  C_27
REMARK                            x       y       z     vdW  Elec       q    Type
REMARK                         _______ _______ _______ _____ _____    ______ ____
ROOT
ATOM     13  C   UNL     1      14.233   8.859  19.948  0.00  0.00    +0.167 C 
ATOM     14  C   UNL     1      12.750   8.695  19.565  0.00  0.00    +0.127 C 
ATOM     15  C   UNL     1      14.462   8.590  21.440  0.00  0.00    +0.149 C 
ATOM     16  C   UNL     1      13.580   9.481  22.331  0.00  0.00    +0.074 C 
ATOM     17  C   UNL     1      12.196   9.684  21.785  0.00  0.00    +0.015 C 
ATOM     18  C   UNL     1      11.807   9.329  20.551  0.00  0.00    +0.006 C 
ENDROOT
BRANCH  17  19
ATOM      4  O   UNL     1      10.242   9.635  23.090  0.00  0.00    -0.271 OA
ATOM     10  N   UNL     1      11.439  11.629  22.925  0.00  0.00    -0.300 N 
ATOM     19  C   UNL     1      11.190  10.292  22.663  0.00  0.00    +0.241 C 
ATOM     29  H   UNL     1      12.239  12.095  22.513  0.00  0.00    +0.150 HD
BRANCH  10  20
ATOM     20  C   UNL     1      10.586  12.441  23.762  0.00  0.00    +0.160 C 
BRANCH  20  24
ATOM      8  O   UNL     1       9.571  14.574  23.191  0.00  0.00    -0.274 OA
ATOM     11  N   UNL     1      11.768  14.218  22.625  0.00  0.00    -0.328 N 
ATOM     24  C   UNL     1      10.555  13.840  23.161  0.00  0.00    +0.231 C 
ATOM     32  H   UNL     1      12.588  13.620  22.645  0.00  0.00    +0.145 HD
ATOM     33  H   UNL     1      11.885  15.133  22.202  0.00  0.00    +0.145 HD
ENDBRANCH  20  24
BRANCH  20  21
ATOM     21  C   UNL     1      11.079  12.489  25.209  0.00  0.00    +0.054 C 
BRANCH  21  22
ATOM     22  C   UNL     1      12.442  11.833  25.379  0.00  0.00    +0.168 C 
BRANCH  22   1
ATOM      1  S   UNL     1      13.666  13.010  25.864  0.00  0.00    -0.034 S 
ATOM      6  O   UNL     1      13.261  14.315  25.370  0.00  0.00    -0.175 OA
ATOM      7  O   UNL     1      13.956  12.811  27.273  0.00  0.00    -0.175 OA
ATOM     26  C   UNL     1      15.104  12.512  24.944  0.00  0.00    +0.194 C 
ENDBRANCH  22   1
ENDBRANCH  21  22
ENDBRANCH  20  21
ENDBRANCH  10  20
ENDBRANCH  17  19
BRANCH  14   9
ATOM      5  O   UNL     1      13.147   7.345  17.068  0.00  0.00    -0.276 OA
ATOM      9  N   UNL     1      12.477   9.226  18.252  0.00  0.00    -0.306 N 
ATOM     23  C   UNL     1      12.705   8.490  17.097  0.00  0.00    +0.215 C 
ATOM     28  H   UNL     1      12.148  10.185  18.171  0.00  0.00    +0.149 HD
BRANCH  23  25
ATOM     25  C   UNL     1      12.335   9.274  15.850  0.00  0.00    +0.110 C 
BRANCH  25  27
ATOM     27  C   UNL     1      10.836   9.242  15.570  0.00  0.00    +0.087 C 
BRANCH  27  12
ATOM     12  N   UNL     1      10.205   8.158  16.312  0.00  0.00    -0.330 NA
ATOM     34  H   UNL     1      10.792   7.327  16.263  0.00  0.00    +0.118 HD
ATOM     35  H   UNL     1      10.144   8.407  17.299  0.00  0.00    +0.118 HD
ENDBRANCH  27  12
ENDBRANCH  25  27
ENDBRANCH  23  25
ENDBRANCH  14   9
BRANCH  13   2
ATOM      2  O   UNL     1      14.661  10.190  19.651  0.00  0.00    -0.387 OA
ATOM     30  H   UNL     1      15.161  10.536  20.408  0.00  0.00    +0.210 HD
ENDBRANCH  13   2
BRANCH  15   3
ATOM      3  O   UNL     1      14.222   7.214  21.733  0.00  0.00    -0.389 OA
ATOM     31  H   UNL     1      14.398   6.707  20.922  0.00  0.00    +0.210 HD
ENDBRANCH  15   3
TORSDOF 12
ENDMDL
MODEL 7
REMARK VINA RESULT:      -5.5     26.713     30.715
REMARK  Name = 7127906
REMARK  13 active torsions:
REMARK  status: ('A' for Active; 'I' for Inactive)
REMARK    1  A    between atoms: S_1  and  C_22
REMARK    2  A    between atoms: S_1  and  C_26
REMARK    3  A    between atoms: O_2  and  C_13
REMARK    4  A    between atoms: O_3  and  C_15
REMARK    5  A    between atoms: N_9  and  C_14
REMARK    6  A    between atoms: N_10  and  C_20
REMARK    7  A    between atoms: N_12  and  C_27
REMARK    8  A    between atoms: C_17  and  C_19
REMARK    9  A    between atoms: C_20  and  C_21
REMARK   10  A    between atoms: C_20  and  C_24
REMARK   11  A    between atoms: C_21  and  C_22
REMARK   12  A    between atoms: C_23  and  C_25
REMARK   13  A    between atoms: C_25  and  C_27
REMARK                            x       y       z     vdW  Elec       q    Type
REMARK                         _______ _______ _______ _____ _____    ______ ____
ROOT
ATOM     13  C   UNL     1      -8.239 -10.405  18.324  0.00  0.00    +0.167 C 
ATOM     14  C   UNL     1      -7.545  -9.500  17.288  0.00  0.00    +0.127 C 
ATOM     15  C   UNL     1      -7.222 -11.080  19.253  0.00  0.00    +0.149 C 
ATOM     16  C   UNL     1      -6.165 -11.878  18.472  0.00  0.00    +0.074 C 
ATOM     17  C   UNL     1      -5.726 -11.203  17.204  0.00  0.00    +0.015 C 
ATOM     18  C   UNL     1      -6.329 -10.131  16.666  0.00  0.00    +0.006 C 
ENDROOT
BRANCH  17  19
ATOM      4  O   UNL     1      -4.113 -12.855  16.769  0.00  0.00    -0.271 OA
ATOM     10  N   UNL     1      -4.016 -10.845  15.591  0.00  0.00    -0.300 N 
ATOM     19  C   UNL     1      -4.546 -11.732  16.513  0.00  0.00    +0.241 C 
ATOM     29  H   UNL     1      -4.431  -9.930  15.459  0.00  0.00    +0.150 HD
BRANCH  10  20
ATOM     20  C   UNL     1      -2.851 -11.142  14.790  0.00  0.00    +0.160 C 
BRANCH  20  24
ATOM      8  O   UNL     1      -1.043  -9.527  14.956  0.00  0.00    -0.274 OA
ATOM     11  N   UNL     1      -1.370 -10.991  16.696  0.00  0.00    -0.328 N 
ATOM     24  C   UNL     1      -1.657 -10.468  15.453  0.00  0.00    +0.231 C 
ATOM     32  H   UNL     1      -1.912 -11.739  17.115  0.00  0.00    +0.145 HD
ATOM     33  H   UNL     1      -0.603 -10.622  17.249  0.00  0.00    +0.145 HD
ENDBRANCH  20  24
BRANCH  20  21
ATOM     21  C   UNL     1      -3.008 -10.658  13.348  0.00  0.00    +0.054 C 
BRANCH  21  22
ATOM     22  C   UNL     1      -4.457 -10.359  12.991  0.00  0.00    +0.168 C 
BRANCH  22   1
ATOM      1  S   UNL     1      -5.270 -11.791  12.352  0.00  0.00    -0.034 S 
ATOM      6  O   UNL     1      -4.336 -12.497  11.492  0.00  0.00    -0.175 OA
ATOM      7  O   UNL     1      -5.919 -12.475  13.456  0.00  0.00    -0.175 OA
ATOM     26  C   UNL     1      -6.545 -11.112  11.315  0.00  0.00    +0.194 C 
ENDBRANCH  22   1
ENDBRANCH  21  22
ENDBRANCH  20  21
ENDBRANCH  10  20
ENDBRANCH  17  19
BRANCH  14   9
ATOM      5  O   UNL     1      -9.758  -7.698  17.546  0.00  0.00    -0.276 OA
ATOM      9  N   UNL     1      -8.450  -9.100  16.239  0.00  0.00    -0.306 N 
ATOM     23  C   UNL     1      -9.497  -8.218  16.465  0.00  0.00    +0.215 C 
ATOM     28  H   UNL     1      -8.341  -9.513  15.316  0.00  0.00    +0.149 HD
BRANCH  23  25
ATOM     25  C   UNL     1     -10.298  -7.961  15.200  0.00  0.00    +0.110 C 
BRANCH  25  27
ATOM     27  C   UNL     1     -11.410  -6.940  15.417  0.00  0.00    +0.087 C 
BRANCH  27  12
ATOM     12  N   UNL     1     -10.846  -5.635  15.736  0.00  0.00    -0.330 NA
ATOM     34  H   UNL     1      -9.835  -5.665  15.617  0.00  0.00    +0.118 HD
ATOM     35  H   UNL     1     -11.192  -4.940  15.075  0.00  0.00    +0.118 HD
ENDBRANCH  27  12
ENDBRANCH  25  27
ENDBRANCH  23  25
ENDBRANCH  14   9
BRANCH  13   2
ATOM      2  O   UNL     1      -8.988 -11.419  17.650  0.00  0.00    -0.387 OA
ATOM     30  H   UNL     1      -8.679 -12.289  17.950  0.00  0.00    +0.210 HD
ENDBRANCH  13   2
BRANCH  15   3
ATOM      3  O   UNL     1      -6.588 -10.103  20.078  0.00  0.00    -0.389 OA
ATOM     31  H   UNL     1      -6.677 -10.397  21.000  0.00  0.00    +0.210 HD
ENDBRANCH  15   3
TORSDOF 12
ENDMDL
MODEL 8
REMARK VINA RESULT:      -5.5     27.733     29.988
REMARK  Name = 7127906
REMARK  13 active torsions:
REMARK  status: ('A' for Active; 'I' for Inactive)
REMARK    1  A    between atoms: S_1  and  C_22
REMARK    2  A    between atoms: S_1  and  C_26
REMARK    3  A    between atoms: O_2  and  C_13
REMARK    4  A    between atoms: O_3  and  C_15
REMARK    5  A    between atoms: N_9  and  C_14
REMARK    6  A    between atoms: N_10  and  C_20
REMARK    7  A    between atoms: N_12  and  C_27
REMARK    8  A    between atoms: C_17  and  C_19
REMARK    9  A    between atoms: C_20  and  C_21
REMARK   10  A    between atoms: C_20  and  C_24
REMARK   11  A    between atoms: C_21  and  C_22
REMARK   12  A    between atoms: C_23  and  C_25
REMARK   13  A    between atoms: C_25  and  C_27
REMARK                            x       y       z     vdW  Elec       q    Type
REMARK                         _______ _______ _______ _____ _____    ______ ____
ROOT
ATOM     13  C   UNL     1      -1.890 -10.895  13.513  0.00  0.00    +0.167 C 
ATOM     14  C   UNL     1      -3.341 -10.922  12.997  0.00  0.00    +0.127 C 
ATOM     15  C   UNL     1      -1.755 -11.635  14.850  0.00  0.00    +0.149 C 
ATOM     16  C   UNL     1      -2.711 -11.080  15.919  0.00  0.00    +0.074 C 
ATOM     17  C   UNL     1      -4.060 -10.706  15.375  0.00  0.00    +0.015 C 
ATOM     18  C   UNL     1      -4.359 -10.640  14.068  0.00  0.00    +0.006 C 
ENDROOT
BRANCH  17  19
ATOM      4  O   UNL     1      -5.789  -9.377  16.248  0.00  0.00    -0.271 OA
ATOM     10  N   UNL     1      -5.292 -11.406  17.283  0.00  0.00    -0.300 N 
ATOM     19  C   UNL     1      -5.133 -10.414  16.330  0.00  0.00    +0.241 C 
ATOM     29  H   UNL     1      -4.691 -12.222  17.284  0.00  0.00    +0.150 HD
BRANCH  10  20
ATOM     20  C   UNL     1      -6.285 -11.341  18.331  0.00  0.00    +0.160 C 
BRANCH  20  24
ATOM      8  O   UNL     1      -6.060 -11.116  20.741  0.00  0.00    -0.274 OA
ATOM     11  N   UNL     1      -4.256 -11.871  19.537  0.00  0.00    -0.328 N 
ATOM     24  C   UNL     1      -5.547 -11.404  19.662  0.00  0.00    +0.231 C 
ATOM     32  H   UNL     1      -3.857 -12.148  18.646  0.00  0.00    +0.145 HD
ATOM     33  H   UNL     1      -3.659 -11.972  20.351  0.00  0.00    +0.145 HD
ENDBRANCH  20  24
BRANCH  20  21
ATOM     21  C   UNL     1      -7.304 -12.476  18.229  0.00  0.00    +0.054 C 
BRANCH  21  22
ATOM     22  C   UNL     1      -8.704 -11.972  17.905  0.00  0.00    +0.168 C 
BRANCH  22   1
ATOM      1  S   UNL     1      -9.735 -11.976  19.339  0.00  0.00    -0.034 S 
ATOM      6  O   UNL     1      -9.350 -10.854  20.178  0.00  0.00    -0.175 OA
ATOM      7  O   UNL     1     -11.112 -12.138  18.908  0.00  0.00    -0.175 OA
ATOM     26  C   UNL     1      -9.258 -13.466  20.184  0.00  0.00    +0.194 C 
ENDBRANCH  22   1
ENDBRANCH  21  22
ENDBRANCH  20  21
ENDBRANCH  10  20
ENDBRANCH  17  19
BRANCH  14   9
ATOM      5  O   UNL     1      -3.347 -11.548  10.200  0.00  0.00    -0.276 OA
ATOM      9  N   UNL     1      -3.537  -9.992  11.911  0.00  0.00    -0.306 N 
ATOM     23  C   UNL     1      -3.522 -10.395  10.583  0.00  0.00    +0.215 C 
ATOM     28  H   UNL     1      -3.647  -9.005  12.128  0.00  0.00    +0.149 HD
BRANCH  23  25
ATOM     25  C   UNL     1      -3.754  -9.228   9.640  0.00  0.00    +0.110 C 
BRANCH  25  27
ATOM     27  C   UNL     1      -5.237  -8.936   9.434  0.00  0.00    +0.087 C 
BRANCH  27  12
ATOM     12  N   UNL     1      -6.046 -10.028   9.960  0.00  0.00    -0.330 NA
ATOM     34  H   UNL     1      -5.464 -10.634  10.536  0.00  0.00    +0.118 HD
ATOM     35  H   UNL     1      -6.768  -9.655  10.576  0.00  0.00    +0.118 HD
ENDBRANCH  27  12
ENDBRANCH  25  27
ENDBRANCH  23  25
ENDBRANCH  14   9
BRANCH  13   2
ATOM      2  O   UNL     1      -1.470  -9.541  13.695  0.00  0.00    -0.387 OA
ATOM     30  H   UNL     1      -0.761  -9.518  14.358  0.00  0.00    +0.210 HD
ENDBRANCH  13   2
BRANCH  15   3
ATOM      3  O   UNL     1      -1.986 -13.031  14.663  0.00  0.00    -0.389 OA
ATOM     31  H   UNL     1      -2.796 -13.261  15.148  0.00  0.00    +0.210 HD
ENDBRANCH  15   3
TORSDOF 12
ENDMDL
MODEL 9
REMARK VINA RESULT:      -5.5     28.037     30.621
REMARK  Name = 7127906
REMARK  13 active torsions:
REMARK  status: ('A' for Active; 'I' for Inactive)
REMARK    1  A    between atoms: S_1  and  C_22
REMARK    2  A    between atoms: S_1  and  C_26
REMARK    3  A    between atoms: O_2  and  C_13
REMARK    4  A    between atoms: O_3  and  C_15
REMARK    5  A    between atoms: N_9  and  C_14
REMARK    6  A    between atoms: N_10  and  C_20
REMARK    7  A    between atoms: N_12  and  C_27
REMARK    8  A    between atoms: C_17  and  C_19
REMARK    9  A    between atoms: C_20  and  C_21
REMARK   10  A    between atoms: C_20  and  C_24
REMARK   11  A    between atoms: C_21  and  C_22
REMARK   12  A    between atoms: C_23  and  C_25
REMARK   13  A    between atoms: C_25  and  C_27
REMARK                            x       y       z     vdW  Elec       q    Type
REMARK                         _______ _______ _______ _____ _____    ______ ____
ROOT
ATOM     13  C   UNL     1      -7.827 -10.482  18.208  0.00  0.00    +0.167 C 
ATOM     14  C   UNL     1      -7.330  -9.349  17.290  0.00  0.00    +0.127 C 
ATOM     15  C   UNL     1      -6.721 -10.965  19.154  0.00  0.00    +0.149 C 
ATOM     16  C   UNL     1      -5.462 -11.411  18.393  0.00  0.00    +0.074 C 
ATOM     17  C   UNL     1      -5.143 -10.543  17.209  0.00  0.00    +0.015 C 
ATOM     18  C   UNL     1      -5.966  -9.609  16.710  0.00  0.00    +0.006 C 
ENDROOT
BRANCH  17  19
ATOM      4  O   UNL     1      -2.825 -10.929  17.231  0.00  0.00    -0.271 OA
ATOM     10  N   UNL     1      -3.892 -10.578  15.188  0.00  0.00    -0.300 N 
ATOM     19  C   UNL     1      -3.835 -10.706  16.565  0.00  0.00    +0.241 C 
ATOM     29  H   UNL     1      -4.770 -10.376  14.725  0.00  0.00    +0.150 HD
BRANCH  10  20
ATOM     20  C   UNL     1      -2.731 -10.697  14.336  0.00  0.00    +0.160 C 
BRANCH  20  24
ATOM      8  O   UNL     1      -4.348 -10.203  12.591  0.00  0.00    -0.274 OA
ATOM     11  N   UNL     1      -2.175 -10.626  11.984  0.00  0.00    -0.328 N 
ATOM     24  C   UNL     1      -3.196 -10.496  12.900  0.00  0.00    +0.231 C 
ATOM     32  H   UNL     1      -1.217 -10.824  12.254  0.00  0.00    +0.145 HD
ATOM     33  H   UNL     1      -2.349 -10.505  10.991  0.00  0.00    +0.145 HD
ENDBRANCH  20  24
BRANCH  20  21
ATOM     21  C   UNL     1      -2.042 -12.054  14.491  0.00  0.00    +0.054 C 
BRANCH  21  22
ATOM     22  C   UNL     1      -2.994 -13.218  14.255  0.00  0.00    +0.168 C 
BRANCH  22   1
ATOM      1  S   UNL     1      -2.379 -14.309  13.010  0.00  0.00    -0.034 S 
ATOM      6  O   UNL     1      -2.742 -13.767  11.712  0.00  0.00    -0.175 OA
ATOM      7  O   UNL     1      -0.994 -14.618  13.321  0.00  0.00    -0.175 OA
ATOM     26  C   UNL     1      -3.329 -15.792  13.257  0.00  0.00    +0.194 C 
ENDBRANCH  22   1
ENDBRANCH  21  22
ENDBRANCH  20  21
ENDBRANCH  10  20
ENDBRANCH  17  19
BRANCH  14   9
ATOM      5  O   UNL     1      -9.740  -7.806  17.445  0.00  0.00    -0.276 OA
ATOM      9  N   UNL     1      -8.254  -9.094  16.212  0.00  0.00    -0.306 N 
ATOM     23  C   UNL     1      -9.400  -8.331  16.388  0.00  0.00    +0.215 C 
ATOM     28  H   UNL     1      -8.080  -9.524  15.307  0.00  0.00    +0.149 HD
BRANCH  23  25
ATOM     25  C   UNL     1     -10.199  -8.212  15.102  0.00  0.00    +0.110 C 
BRANCH  25  27
ATOM     27  C   UNL     1     -11.161  -7.029  15.125  0.00  0.00    +0.087 C 
BRANCH  27  12
ATOM     12  N   UNL     1     -10.471  -5.823  15.562  0.00  0.00    -0.330 NA
ATOM     34  H   UNL     1     -10.713  -5.625  16.531  0.00  0.00    +0.118 HD
ATOM     35  H   UNL     1      -9.463  -5.977  15.545  0.00  0.00    +0.118 HD
ENDBRANCH  27  12
ENDBRANCH  25  27
ENDBRANCH  23  25
ENDBRANCH  14   9
BRANCH  13   2
ATOM      2  O   UNL     1      -8.266 -11.587  17.414  0.00  0.00    -0.387 OA
ATOM     30  H   UNL     1      -8.635 -11.248  16.582  0.00  0.00    +0.210 HD
ENDBRANCH  13   2
BRANCH  15   3
ATOM      3  O   UNL     1      -6.391  -9.939  20.088  0.00  0.00    -0.389 OA
ATOM     31  H   UNL     1      -6.571 -10.284  20.979  0.00  0.00    +0.210 HD
ENDBRANCH  15   3
TORSDOF 12
ENDMDL
MODEL 10
REMARK VINA RESULT:      -5.5     27.995     29.887
REMARK  Name = 7127906
REMARK  13 active torsions:
REMARK  status: ('A' for Active; 'I' for Inactive)
REMARK    1  A    between atoms: S_1  and  C_22
REMARK    2  A    between atoms: S_1  and  C_26
REMARK    3  A    between atoms: O_2  and  C_13
REMARK    4  A    between atoms: O_3  and  C_15
REMARK    5  A    between atoms: N_9  and  C_14
REMARK    6  A    between atoms: N_10  and  C_20
REMARK    7  A    between atoms: N_12  and  C_27
REMARK    8  A    between atoms: C_17  and  C_19
REMARK    9  A    between atoms: C_20  and  C_21
REMARK   10  A    between atoms: C_20  and  C_24
REMARK   11  A    between atoms: C_21  and  C_22
REMARK   12  A    between atoms: C_23  and  C_25
REMARK   13  A    between atoms: C_25  and  C_27
REMARK                            x       y       z     vdW  Elec       q    Type
REMARK                         _______ _______ _______ _____ _____    ______ ____
ROOT
ATOM     13  C   UNL     1      -2.732 -11.758  11.960  0.00  0.00    +0.167 C 
ATOM     14  C   UNL     1      -4.029 -11.226  12.601  0.00  0.00    +0.127 C 
ATOM     15  C   UNL     1      -2.072 -12.832  12.834  0.00  0.00    +0.149 C 
ATOM     16  C   UNL     1      -1.793 -12.327  14.259  0.00  0.00    +0.074 C 
ATOM     17  C   UNL     1      -2.883 -11.450  14.805  0.00  0.00    +0.015 C 
ATOM     18  C   UNL     1      -3.896 -10.956  14.075  0.00  0.00    +0.006 C 
ENDROOT
BRANCH  17  19
ATOM      4  O   UNL     1      -1.820 -10.745  16.778  0.00  0.00    -0.271 OA
ATOM     10  N   UNL     1      -4.086 -11.293  16.849  0.00  0.00    -0.300 N 
ATOM     19  C   UNL     1      -2.857 -11.123  16.234  0.00  0.00    +0.241 C 
ATOM     29  H   UNL     1      -4.884 -11.627  16.323  0.00  0.00    +0.150 HD
BRANCH  10  20
ATOM     20  C   UNL     1      -4.306 -11.037  18.254  0.00  0.00    +0.160 C 
BRANCH  20  24
ATOM      8  O   UNL     1      -3.253 -12.289  20.050  0.00  0.00    -0.274 OA
ATOM     11  N   UNL     1      -4.424 -13.445  18.448  0.00  0.00    -0.328 N 
ATOM     24  C   UNL     1      -3.914 -12.296  19.015  0.00  0.00    +0.231 C 
ATOM     32  H   UNL     1      -5.006 -13.435  17.616  0.00  0.00    +0.145 HD
ATOM     33  H   UNL     1      -4.245 -14.353  18.864  0.00  0.00    +0.145 HD
ENDBRANCH  20  24
BRANCH  20  21
ATOM     21  C   UNL     1      -5.760 -10.664  18.548  0.00  0.00    +0.054 C 
BRANCH  21  22
ATOM     22  C   UNL     1      -6.599 -10.556  17.282  0.00  0.00    +0.168 C 
BRANCH  22   1
ATOM      1  S   UNL     1      -7.550 -12.020  17.015  0.00  0.00    -0.034 S 
ATOM      6  O   UNL     1      -8.788 -11.643  16.355  0.00  0.00    -0.175 OA
ATOM      7  O   UNL     1      -6.681 -13.028  16.435  0.00  0.00    -0.175 OA
ATOM     26  C   UNL     1      -7.961 -12.549  18.663  0.00  0.00    +0.194 C 
ENDBRANCH  22   1
ENDBRANCH  21  22
ENDBRANCH  20  21
ENDBRANCH  10  20
ENDBRANCH  17  19
BRANCH  14   9
ATOM      5  O   UNL     1      -6.345 -10.987  10.930  0.00  0.00    -0.276 OA
ATOM      9  N   UNL     1      -4.492 -10.027  11.947  0.00  0.00    -0.306 N 
ATOM     23  C   UNL     1      -5.631 -10.013  11.154  0.00  0.00    +0.215 C 
ATOM     28  H   UNL     1      -3.941  -9.178  12.038  0.00  0.00    +0.149 HD
BRANCH  23  25
ATOM     25  C   UNL     1      -5.902  -8.631  10.586  0.00  0.00    +0.110 C 
BRANCH  25  27
ATOM     27  C   UNL     1      -5.215  -8.414   9.241  0.00  0.00    +0.087 C 
BRANCH  27  12
ATOM     12  N   UNL     1      -4.323  -9.526   8.942  0.00  0.00    -0.330 NA
ATOM     34  H   UNL     1      -4.791 -10.404   9.161  0.00  0.00    +0.118 HD
ATOM     35  H   UNL     1      -4.125  -9.550   7.942  0.00  0.00    +0.118 HD
ENDBRANCH  27  12
ENDBRANCH  25  27
ENDBRANCH  23  25
ENDBRANCH  14   9
BRANCH  13   2
ATOM      2  O   UNL     1      -1.809 -10.682  11.780  0.00  0.00    -0.387 OA
ATOM     30  H   UNL     1      -0.914 -10.998  11.987  0.00  0.00    +0.210 HD
ENDBRANCH  13   2
BRANCH  15   3
ATOM      3  O   UNL     1      -2.891 -14.000  12.879  0.00  0.00    -0.389 OA
ATOM     31  H   UNL     1      -3.171 -14.126  13.801  0.00  0.00    +0.210 HD
ENDBRANCH  15   3
TORSDOF 12
ENDMDL
