MODEL 1
REMARK VINA RESULT:      -6.8      0.000      0.000
REMARK  Name = 51136658
REMARK  8 active torsions:
REMARK  status: ('A' for Active; 'I' for Inactive)
REMARK    1  A    between atoms: O_2  and  C_18
REMARK    2  A    between atoms: O_5  and  C_26
REMARK    3  A    between atoms: O_5  and  C_30
REMARK    4  A    between atoms: C_8  and  C_12
REMARK    5  A    between atoms: C_9  and  C_14
REMARK    6  A    between atoms: C_12  and  C_15
REMARK    7  A    between atoms: C_14  and  C_18
REMARK    8  A    between atoms: C_16  and  C_22
REMARK                            x       y       z     vdW  Elec       q    Type
REMARK                         _______ _______ _______ _____ _____    ______ ____
ROOT
ATOM      1  O   UNL     1      10.519   8.391  17.122  0.00  0.00    -0.267 OA
ATOM      6  N   UNL     1      12.817   8.815  17.230  0.00  0.00    -0.295 N 
ATOM      8  C   UNL     1      14.700  10.293  17.895  0.00  0.00    +0.016 C 
ATOM      9  C   UNL     1      14.848  10.708  16.409  0.00  0.00    +0.006 C 
ATOM     10  C   UNL     1      13.519  10.568  15.649  0.00  0.00    +0.023 C 
ATOM     11  C   UNL     1      14.073   8.890  17.989  0.00  0.00    +0.112 C 
ATOM     13  C   UNL     1      12.930   9.170  15.817  0.00  0.00    +0.108 C 
ATOM     16  C   UNL     1      11.574   8.449  17.752  0.00  0.00    +0.282 C 
ENDROOT
BRANCH  16  22
ATOM      4  O   UNL     1      11.989   6.892  19.559  0.00  0.00    -0.458 OA
ATOM     22  C   UNL     1      11.498   8.100  19.174  0.00  0.00    +0.189 A 
ATOM     27  C   UNL     1      11.004   8.787  20.257  0.00  0.00    +0.054 A 
ATOM     28  C   UNL     1      11.204   7.949  21.380  0.00  0.00    +0.042 A 
ATOM     29  C   UNL     1      11.806   6.808  20.902  0.00  0.00    +0.196 A 
ENDBRANCH  16  22
BRANCH   8  12
ATOM     12  C   UNL     1      13.901  11.291  18.744  0.00  0.00    +0.061 C 
BRANCH  12  15
ATOM      7  N   UNL     1      15.450  10.732  20.493  0.00  0.00    -0.287 NA
ATOM     15  C   UNL     1      14.251  11.121  20.203  0.00  0.00    +0.044 C 
ATOM     17  C   UNL     1      13.211  11.398  21.225  0.00  0.00    -0.001 A 
ATOM     19  C   UNL     1      13.429  10.872  22.505  0.00  0.00    -0.033 A 
ATOM     20  C   UNL     1      14.669  10.064  22.751  0.00  0.00    +0.059 C 
ATOM     21  C   UNL     1      15.809  10.624  21.911  0.00  0.00    +0.146 C 
ATOM     23  C   UNL     1      12.057  12.131  20.948  0.00  0.00    +0.013 A 
ATOM     24  C   UNL     1      12.468  11.063  23.502  0.00  0.00    +0.050 A 
ATOM     25  C   UNL     1      11.111  12.331  21.954  0.00  0.00    +0.046 A 
ATOM     26  C   UNL     1      11.314  11.796  23.227  0.00  0.00    +0.120 A 
BRANCH  26   5
ATOM      5  O   UNL     1      10.383  11.987  24.202  0.00  0.00    -0.495 OA
ATOM     30  C   UNL     1      10.781  12.756  25.337  0.00  0.00    +0.277 C 
ENDBRANCH  26   5
ENDBRANCH  12  15
ENDBRANCH   8  12
BRANCH   9  14
ATOM     14  C   UNL     1      15.425  12.113  16.233  0.00  0.00    +0.124 C 
BRANCH  14  18
ATOM      3  O   UNL     1      16.053  13.254  14.172  0.00  0.00    -0.251 OA
ATOM     18  C   UNL     1      16.098  12.272  14.898  0.00  0.00    +0.305 C 
BRANCH  18   2
ATOM      2  O   UNL     1      16.786  11.140  14.595  0.00  0.00    -0.481 OA
ATOM     31  H   UNL     1      17.741  11.318  14.459  0.00  0.00    +0.295 HD
ENDBRANCH  18   2
ENDBRANCH  14  18
ENDBRANCH   9  14
TORSDOF 7
ENDMDL
MODEL 2
REMARK VINA RESULT:      -6.1     26.111     28.978
REMARK  Name = 51136658
REMARK  8 active torsions:
REMARK  status: ('A' for Active; 'I' for Inactive)
REMARK    1  A    between atoms: O_2  and  C_18
REMARK    2  A    between atoms: O_5  and  C_26
REMARK    3  A    between atoms: O_5  and  C_30
REMARK    4  A    between atoms: C_8  and  C_12
REMARK    5  A    between atoms: C_9  and  C_14
REMARK    6  A    between atoms: C_12  and  C_15
REMARK    7  A    between atoms: C_14  and  C_18
REMARK    8  A    between atoms: C_16  and  C_22
REMARK                            x       y       z     vdW  Elec       q    Type
REMARK                         _______ _______ _______ _____ _____    ______ ____
ROOT
ATOM      1  O   UNL     1      -8.054 -11.450  18.619  0.00  0.00    -0.267 OA
ATOM      6  N   UNL     1      -6.351 -10.357  17.446  0.00  0.00    -0.295 N 
ATOM      8  C   UNL     1      -4.701 -10.322  15.588  0.00  0.00    +0.016 C 
ATOM      9  C   UNL     1      -3.587 -10.622  16.624  0.00  0.00    +0.006 C 
ATOM     10  C   UNL     1      -4.141 -11.367  17.849  0.00  0.00    +0.023 C 
ATOM     11  C   UNL     1      -5.878  -9.605  16.275  0.00  0.00    +0.112 C 
ATOM     13  C   UNL     1      -5.330 -10.627  18.456  0.00  0.00    +0.108 C 
ATOM     16  C   UNL     1      -7.656 -10.815  17.644  0.00  0.00    +0.282 C 
ENDROOT
BRANCH  16  22
ATOM      4  O   UNL     1      -9.560  -9.544  16.857  0.00  0.00    -0.458 OA
ATOM     22  C   UNL     1      -8.653 -10.526  16.609  0.00  0.00    +0.189 A 
ATOM     27  C   UNL     1      -8.867 -11.078  15.368  0.00  0.00    +0.054 A 
ATOM     28  C   UNL     1      -9.976 -10.391  14.818  0.00  0.00    +0.042 A 
ATOM     29  C   UNL     1     -10.361  -9.469  15.763  0.00  0.00    +0.196 A 
ENDBRANCH  16  22
BRANCH   8  12
ATOM     12  C   UNL     1      -5.200 -11.562  14.835  0.00  0.00    +0.061 C 
BRANCH  12  15
ATOM      7  N   UNL     1      -3.666 -12.521  13.253  0.00  0.00    -0.287 NA
ATOM     15  C   UNL     1      -4.567 -11.618  13.464  0.00  0.00    +0.044 C 
ATOM     17  C   UNL     1      -5.002 -10.640  12.436  0.00  0.00    -0.001 A 
ATOM     19  C   UNL     1      -4.152 -10.461  11.336  0.00  0.00    -0.033 A 
ATOM     20  C   UNL     1      -2.874 -11.245  11.278  0.00  0.00    +0.059 C 
ATOM     21  C   UNL     1      -3.095 -12.615  11.905  0.00  0.00    +0.146 C 
ATOM     23  C   UNL     1      -6.186  -9.910  12.541  0.00  0.00    +0.013 A 
ATOM     24  C   UNL     1      -4.484  -9.525  10.353  0.00  0.00    +0.050 A 
ATOM     25  C   UNL     1      -6.517  -8.989  11.546  0.00  0.00    +0.046 A 
ATOM     26  C   UNL     1      -5.667  -8.794  10.456  0.00  0.00    +0.120 A 
BRANCH  26   5
ATOM      5  O   UNL     1      -5.992  -7.888   9.494  0.00  0.00    -0.495 OA
ATOM     30  C   UNL     1      -7.258  -8.049   8.853  0.00  0.00    +0.277 C 
ENDBRANCH  26   5
ENDBRANCH  12  15
ENDBRANCH   8  12
BRANCH   9  14
ATOM     14  C   UNL     1      -2.398 -11.374  16.026  0.00  0.00    +0.124 C 
BRANCH  14  18
ATOM      3  O   UNL     1      -1.510  -9.917  14.284  0.00  0.00    -0.251 OA
ATOM     18  C   UNL     1      -1.413 -10.434  15.387  0.00  0.00    +0.305 C 
BRANCH  18   2
ATOM      2  O   UNL     1      -0.367 -10.228  16.228  0.00  0.00    -0.481 OA
ATOM     31  H   UNL     1       0.464 -10.047  15.740  0.00  0.00    +0.295 HD
ENDBRANCH  18   2
ENDBRANCH  14  18
ENDBRANCH   9  14
TORSDOF 7
ENDMDL
MODEL 3
REMARK VINA RESULT:      -6.0     26.300     28.747
REMARK  Name = 51136658
REMARK  8 active torsions:
REMARK  status: ('A' for Active; 'I' for Inactive)
REMARK    1  A    between atoms: O_2  and  C_18
REMARK    2  A    between atoms: O_5  and  C_26
REMARK    3  A    between atoms: O_5  and  C_30
REMARK    4  A    between atoms: C_8  and  C_12
REMARK    5  A    between atoms: C_9  and  C_14
REMARK    6  A    between atoms: C_12  and  C_15
REMARK    7  A    between atoms: C_14  and  C_18
REMARK    8  A    between atoms: C_16  and  C_22
REMARK                            x       y       z     vdW  Elec       q    Type
REMARK                         _______ _______ _______ _____ _____    ______ ____
ROOT
ATOM      1  O   UNL     1      -6.055 -14.687  11.652  0.00  0.00    -0.267 OA
ATOM      6  N   UNL     1      -4.154 -13.347  11.398  0.00  0.00    -0.295 N 
ATOM      8  C   UNL     1      -2.975 -11.194  11.784  0.00  0.00    +0.016 C 
ATOM      9  C   UNL     1      -3.247 -10.825  10.303  0.00  0.00    +0.006 C 
ATOM     10  C   UNL     1      -4.499 -11.537   9.764  0.00  0.00    +0.023 C 
ATOM     11  C   UNL     1      -2.941 -12.725  11.945  0.00  0.00    +0.112 C 
ATOM     13  C   UNL     1      -4.420 -13.044   9.993  0.00  0.00    +0.108 C 
ATOM     16  C   UNL     1      -5.035 -14.170  12.105  0.00  0.00    +0.282 C 
ENDROOT
BRANCH  16  22
ATOM      4  O   UNL     1      -3.894 -15.483  13.788  0.00  0.00    -0.458 OA
ATOM     22  C   UNL     1      -4.736 -14.452  13.512  0.00  0.00    +0.189 A 
ATOM     27  C   UNL     1      -5.159 -13.850  14.674  0.00  0.00    +0.054 A 
ATOM     28  C   UNL     1      -4.537 -14.555  15.732  0.00  0.00    +0.042 A 
ATOM     29  C   UNL     1      -3.779 -15.539  15.141  0.00  0.00    +0.196 A 
ENDBRANCH  16  22
BRANCH   8  12
ATOM     12  C   UNL     1      -3.973 -10.577  12.772  0.00  0.00    +0.061 C 
BRANCH  12  15
ATOM      7  N   UNL     1      -2.053 -10.417  14.208  0.00  0.00    -0.287 NA
ATOM     15  C   UNL     1      -3.344 -10.476  14.141  0.00  0.00    +0.044 C 
ATOM     17  C   UNL     1      -4.226 -10.457  15.335  0.00  0.00    -0.001 A 
ATOM     19  C   UNL     1      -3.628 -10.751  16.567  0.00  0.00    -0.033 A 
ATOM     20  C   UNL     1      -2.164 -11.076  16.598  0.00  0.00    +0.059 C 
ATOM     21  C   UNL     1      -1.445 -10.259  15.533  0.00  0.00    +0.146 C 
ATOM     23  C   UNL     1      -5.591 -10.176  15.260  0.00  0.00    +0.013 A 
ATOM     24  C   UNL     1      -4.412 -10.789  17.723  0.00  0.00    +0.050 A 
ATOM     25  C   UNL     1      -6.363 -10.200  16.422  0.00  0.00    +0.046 A 
ATOM     26  C   UNL     1      -5.777 -10.508  17.650  0.00  0.00    +0.120 A 
BRANCH  26   5
ATOM      5  O   UNL     1      -6.537 -10.538  18.778  0.00  0.00    -0.495 OA
ATOM     30  C   UNL     1      -6.220 -11.536  19.748  0.00  0.00    +0.277 C 
ENDBRANCH  26   5
ENDBRANCH  12  15
ENDBRANCH   8  12
BRANCH   9  14
ATOM     14  C   UNL     1      -3.339  -9.317  10.068  0.00  0.00    +0.124 C 
BRANCH  14  18
ATOM      3  O   UNL     1      -5.697  -8.734  10.286  0.00  0.00    -0.251 OA
ATOM     18  C   UNL     1      -4.707  -8.914   9.591  0.00  0.00    +0.305 C 
BRANCH  18   2
ATOM      2  O   UNL     1      -4.697  -8.772   8.240  0.00  0.00    -0.481 OA
ATOM     31  H   UNL     1      -5.233  -8.003   7.950  0.00  0.00    +0.295 HD
ENDBRANCH  18   2
ENDBRANCH  14  18
ENDBRANCH   9  14
TORSDOF 7
ENDMDL
MODEL 4
REMARK VINA RESULT:      -5.9     26.625     29.121
REMARK  Name = 51136658
REMARK  8 active torsions:
REMARK  status: ('A' for Active; 'I' for Inactive)
REMARK    1  A    between atoms: O_2  and  C_18
REMARK    2  A    between atoms: O_5  and  C_26
REMARK    3  A    between atoms: O_5  and  C_30
REMARK    4  A    between atoms: C_8  and  C_12
REMARK    5  A    between atoms: C_9  and  C_14
REMARK    6  A    between atoms: C_12  and  C_15
REMARK    7  A    between atoms: C_14  and  C_18
REMARK    8  A    between atoms: C_16  and  C_22
REMARK                            x       y       z     vdW  Elec       q    Type
REMARK                         _______ _______ _______ _____ _____    ______ ____
ROOT
ATOM      1  O   UNL     1      -1.458  -9.925  12.166  0.00  0.00    -0.267 OA
ATOM      6  N   UNL     1      -2.729 -11.222  13.640  0.00  0.00    -0.295 N 
ATOM      8  C   UNL     1      -4.581 -11.413  15.286  0.00  0.00    +0.016 C 
ATOM      9  C   UNL     1      -3.521 -11.441  16.417  0.00  0.00    +0.006 C 
ATOM     10  C   UNL     1      -2.230 -10.719  15.999  0.00  0.00    +0.023 C 
ATOM     11  C   UNL     1      -3.967 -11.940  13.977  0.00  0.00    +0.112 C 
ATOM     13  C   UNL     1      -1.698 -11.258  14.674  0.00  0.00    +0.108 C 
ATOM     16  C   UNL     1      -2.489 -10.532  12.449  0.00  0.00    +0.282 C 
ENDROOT
BRANCH  16  22
ATOM      4  O   UNL     1      -4.451  -9.503  11.475  0.00  0.00    -0.458 OA
ATOM     22  C   UNL     1      -3.547 -10.517  11.435  0.00  0.00    +0.189 A 
ATOM     27  C   UNL     1      -3.825 -11.369  10.392  0.00  0.00    +0.054 A 
ATOM     28  C   UNL     1      -4.972 -10.845   9.749  0.00  0.00    +0.042 A 
ATOM     29  C   UNL     1      -5.314  -9.710  10.446  0.00  0.00    +0.196 A 
ENDBRANCH  16  22
BRANCH   8  12
ATOM     12  C   UNL     1      -5.213 -10.033  15.059  0.00  0.00    +0.061 C 
BRANCH  12  15
ATOM      7  N   UNL     1      -7.006 -10.389  13.501  0.00  0.00    -0.287 NA
ATOM     15  C   UNL     1      -6.680 -10.187  14.736  0.00  0.00    +0.044 C 
ATOM     17  C   UNL     1      -7.669 -10.093  15.838  0.00  0.00    -0.001 A 
ATOM     19  C   UNL     1      -9.000  -9.852  15.473  0.00  0.00    -0.033 A 
ATOM     20  C   UNL     1      -9.331  -9.693  14.018  0.00  0.00    +0.059 C 
ATOM     21  C   UNL     1      -8.425 -10.598  13.195  0.00  0.00    +0.146 C 
ATOM     23  C   UNL     1      -7.316 -10.220  17.182  0.00  0.00    +0.013 A 
ATOM     24  C   UNL     1      -9.974  -9.713  16.466  0.00  0.00    +0.050 A 
ATOM     25  C   UNL     1      -8.298 -10.095  18.166  0.00  0.00    +0.046 A 
ATOM     26  C   UNL     1      -9.623  -9.840  17.810  0.00  0.00    +0.120 A 
BRANCH  26   5
ATOM      5  O   UNL     1     -10.574  -9.711  18.775  0.00  0.00    -0.495 OA
ATOM     30  C   UNL     1     -10.398 -10.481  19.965  0.00  0.00    +0.277 C 
ENDBRANCH  26   5
ENDBRANCH  12  15
ENDBRANCH   8  12
BRANCH   9  14
ATOM     14  C   UNL     1      -4.044 -10.890  17.743  0.00  0.00    +0.124 C 
BRANCH  14  18
ATOM      3  O   UNL     1      -5.301 -12.624  18.908  0.00  0.00    -0.251 OA
ATOM     18  C   UNL     1      -4.271 -11.986  18.747  0.00  0.00    +0.305 C 
BRANCH  18   2
ATOM      2  O   UNL     1      -3.141 -12.180  19.475  0.00  0.00    -0.481 OA
ATOM     31  H   UNL     1      -3.316 -12.136  20.440  0.00  0.00    +0.295 HD
ENDBRANCH  18   2
ENDBRANCH  14  18
ENDBRANCH   9  14
TORSDOF 7
ENDMDL
MODEL 5
REMARK VINA RESULT:      -5.9      1.777      6.424
REMARK  Name = 51136658
REMARK  8 active torsions:
REMARK  status: ('A' for Active; 'I' for Inactive)
REMARK    1  A    between atoms: O_2  and  C_18
REMARK    2  A    between atoms: O_5  and  C_26
REMARK    3  A    between atoms: O_5  and  C_30
REMARK    4  A    between atoms: C_8  and  C_12
REMARK    5  A    between atoms: C_9  and  C_14
REMARK    6  A    between atoms: C_12  and  C_15
REMARK    7  A    between atoms: C_14  and  C_18
REMARK    8  A    between atoms: C_16  and  C_22
REMARK                            x       y       z     vdW  Elec       q    Type
REMARK                         _______ _______ _______ _____ _____    ______ ____
ROOT
ATOM      1  O   UNL     1      11.649   6.165  20.854  0.00  0.00    -0.267 OA
ATOM      6  N   UNL     1      11.365   8.487  20.841  0.00  0.00    -0.295 N 
ATOM      8  C   UNL     1      12.230  10.761  21.348  0.00  0.00    +0.016 C 
ATOM      9  C   UNL     1      11.283  10.805  22.574  0.00  0.00    +0.006 C 
ATOM     10  C   UNL     1      10.969   9.394  23.097  0.00  0.00    +0.023 C 
ATOM     11  C   UNL     1      11.659   9.813  20.278  0.00  0.00    +0.112 C 
ATOM     13  C   UNL     1      10.449   8.493  21.979  0.00  0.00    +0.108 C 
ATOM     16  C   UNL     1      11.887   7.276  20.381  0.00  0.00    +0.282 C 
ENDROOT
BRANCH  16  22
ATOM      4  O   UNL     1      12.267   7.452  17.997  0.00  0.00    -0.458 OA
ATOM     22  C   UNL     1      12.804   7.309  19.238  0.00  0.00    +0.189 A 
ATOM     27  C   UNL     1      14.174   7.221  19.162  0.00  0.00    +0.054 A 
ATOM     28  C   UNL     1      14.500   7.316  17.788  0.00  0.00    +0.042 A 
ATOM     29  C   UNL     1      13.305   7.455  17.121  0.00  0.00    +0.196 A 
ENDBRANCH  16  22
BRANCH   8  12
ATOM     12  C   UNL     1      13.674  10.370  21.690  0.00  0.00    +0.061 C 
BRANCH  12  15
ATOM      7  N   UNL     1      15.056  12.233  22.317  0.00  0.00    -0.287 NA
ATOM     15  C   UNL     1      14.608  11.506  21.346  0.00  0.00    +0.044 C 
ATOM     17  C   UNL     1      14.958  11.736  19.922  0.00  0.00    -0.001 A 
ATOM     19  C   UNL     1      15.491  12.991  19.598  0.00  0.00    -0.033 A 
ATOM     20  C   UNL     1      15.655  14.008  20.690  0.00  0.00    +0.059 C 
ATOM     21  C   UNL     1      16.010  13.298  21.989  0.00  0.00    +0.146 C 
ATOM     23  C   UNL     1      14.765  10.773  18.931  0.00  0.00    +0.013 A 
ATOM     24  C   UNL     1      15.804  13.285  18.269  0.00  0.00    +0.050 A 
ATOM     25  C   UNL     1      15.095  11.070  17.608  0.00  0.00    +0.046 A 
ATOM     26  C   UNL     1      15.612  12.324  17.277  0.00  0.00    +0.120 A 
BRANCH  26   5
ATOM      5  O   UNL     1      15.924  12.610  15.984  0.00  0.00    -0.495 OA
ATOM     30  C   UNL     1      15.907  11.524  15.057  0.00  0.00    +0.277 C 
ENDBRANCH  26   5
ENDBRANCH  12  15
ENDBRANCH   8  12
BRANCH   9  14
ATOM     14  C   UNL     1      11.804  11.695  23.703  0.00  0.00    +0.124 C 
BRANCH  14  18
ATOM      3  O   UNL     1      10.668  11.978  25.842  0.00  0.00    -0.251 OA
ATOM     18  C   UNL     1      10.697  12.120  24.628  0.00  0.00    +0.305 C 
BRANCH  18   2
ATOM      2  O   UNL     1       9.701  12.703  23.912  0.00  0.00    -0.481 OA
ATOM     31  H   UNL     1       8.989  12.066  23.691  0.00  0.00    +0.295 HD
ENDBRANCH  18   2
ENDBRANCH  14  18
ENDBRANCH   9  14
TORSDOF 7
ENDMDL
MODEL 6
REMARK VINA RESULT:      -5.8      3.001      6.551
REMARK  Name = 51136658
REMARK  8 active torsions:
REMARK  status: ('A' for Active; 'I' for Inactive)
REMARK    1  A    between atoms: O_2  and  C_18
REMARK    2  A    between atoms: O_5  and  C_26
REMARK    3  A    between atoms: O_5  and  C_30
REMARK    4  A    between atoms: C_8  and  C_12
REMARK    5  A    between atoms: C_9  and  C_14
REMARK    6  A    between atoms: C_12  and  C_15
REMARK    7  A    between atoms: C_14  and  C_18
REMARK    8  A    between atoms: C_16  and  C_22
REMARK                            x       y       z     vdW  Elec       q    Type
REMARK                         _______ _______ _______ _____ _____    ______ ____
ROOT
ATOM      1  O   UNL     1      11.690   6.295  20.741  0.00  0.00    -0.267 OA
ATOM      6  N   UNL     1      11.520   8.627  20.668  0.00  0.00    -0.295 N 
ATOM      8  C   UNL     1      12.447  10.868  21.212  0.00  0.00    +0.016 C 
ATOM      9  C   UNL     1      11.404  10.980  22.353  0.00  0.00    +0.006 C 
ATOM     10  C   UNL     1      10.980   9.595  22.868  0.00  0.00    +0.023 C 
ATOM     11  C   UNL     1      11.923   9.927  20.112  0.00  0.00    +0.112 C 
ATOM     13  C   UNL     1      10.513   8.698  21.725  0.00  0.00    +0.108 C 
ATOM     16  C   UNL     1      12.020   7.384  20.274  0.00  0.00    +0.282 C 
ENDROOT
BRANCH  16  22
ATOM      4  O   UNL     1      14.323   7.133  19.569  0.00  0.00    -0.458 OA
ATOM     22  C   UNL     1      13.030   7.353  19.211  0.00  0.00    +0.189 A 
ATOM     27  C   UNL     1      12.926   7.507  17.848  0.00  0.00    +0.054 A 
ATOM     28  C   UNL     1      14.239   7.374  17.336  0.00  0.00    +0.042 A 
ATOM     29  C   UNL     1      15.052   7.148  18.423  0.00  0.00    +0.196 A 
ENDBRANCH  16  22
BRANCH   8  12
ATOM     12  C   UNL     1      13.837  10.418  21.681  0.00  0.00    +0.061 C 
BRANCH  12  15
ATOM      7  N   UNL     1      14.459  12.631  20.983  0.00  0.00    -0.287 NA
ATOM     15  C   UNL     1      14.871  11.440  21.276  0.00  0.00    +0.044 C 
ATOM     17  C   UNL     1      16.298  11.033  21.226  0.00  0.00    -0.001 A 
ATOM     19  C   UNL     1      17.164  11.856  20.494  0.00  0.00    -0.033 A 
ATOM     20  C   UNL     1      16.600  13.065  19.806  0.00  0.00    +0.059 C 
ATOM     21  C   UNL     1      15.470  13.640  20.649  0.00  0.00    +0.146 C 
ATOM     23  C   UNL     1      16.778   9.885  21.857  0.00  0.00    +0.013 A 
ATOM     24  C   UNL     1      18.512  11.506  20.374  0.00  0.00    +0.050 A 
ATOM     25  C   UNL     1      18.129   9.552  21.746  0.00  0.00    +0.046 A 
ATOM     26  C   UNL     1      18.993  10.359  21.005  0.00  0.00    +0.120 A 
BRANCH  26   5
ATOM      5  O   UNL     1      20.308  10.024  20.894  0.00  0.00    -0.495 OA
ATOM     30  C   UNL     1      21.247  11.097  20.826  0.00  0.00    +0.277 C 
ENDBRANCH  26   5
ENDBRANCH  12  15
ENDBRANCH   8  12
BRANCH   9  14
ATOM     14  C   UNL     1      11.870  11.866  23.508  0.00  0.00    +0.124 C 
BRANCH  14  18
ATOM      3  O   UNL     1      10.802  11.578  25.680  0.00  0.00    -0.251 OA
ATOM     18  C   UNL     1      10.796  12.033  24.546  0.00  0.00    +0.305 C 
BRANCH  18   2
ATOM      2  O   UNL     1       9.784  12.784  24.040  0.00  0.00    -0.481 OA
ATOM     31  H   UNL     1       9.844  12.868  23.064  0.00  0.00    +0.295 HD
ENDBRANCH  18   2
ENDBRANCH  14  18
ENDBRANCH   9  14
TORSDOF 7
ENDMDL
MODEL 7
REMARK VINA RESULT:      -5.7     12.725     16.477
REMARK  Name = 51136658
REMARK  8 active torsions:
REMARK  status: ('A' for Active; 'I' for Inactive)
REMARK    1  A    between atoms: O_2  and  C_18
REMARK    2  A    between atoms: O_5  and  C_26
REMARK    3  A    between atoms: O_5  and  C_30
REMARK    4  A    between atoms: C_8  and  C_12
REMARK    5  A    between atoms: C_9  and  C_14
REMARK    6  A    between atoms: C_12  and  C_15
REMARK    7  A    between atoms: C_14  and  C_18
REMARK    8  A    between atoms: C_16  and  C_22
REMARK                            x       y       z     vdW  Elec       q    Type
REMARK                         _______ _______ _______ _____ _____    ______ ____
ROOT
ATOM      1  O   UNL     1      15.300   6.993   4.860  0.00  0.00    -0.267 OA
ATOM      6  N   UNL     1      13.822   7.136   3.052  0.00  0.00    -0.295 N 
ATOM      8  C   UNL     1      11.728   6.414   1.926  0.00  0.00    +0.016 C 
ATOM      9  C   UNL     1      12.589   5.562   0.958  0.00  0.00    +0.006 C 
ATOM     10  C   UNL     1      13.920   5.146   1.604  0.00  0.00    +0.023 C 
ATOM     11  C   UNL     1      12.556   7.595   2.463  0.00  0.00    +0.112 C 
ATOM     13  C   UNL     1      14.670   6.356   2.153  0.00  0.00    +0.108 C 
ATOM     16  C   UNL     1      14.244   7.381   4.361  0.00  0.00    +0.282 C 
ENDROOT
BRANCH  16  22
ATOM      4  O   UNL     1      12.828   7.546   6.318  0.00  0.00    -0.458 OA
ATOM     22  C   UNL     1      13.367   8.166   5.234  0.00  0.00    +0.189 A 
ATOM     27  C   UNL     1      12.956   9.477   5.176  0.00  0.00    +0.054 A 
ATOM     28  C   UNL     1      12.112   9.676   6.294  0.00  0.00    +0.042 A 
ATOM     29  C   UNL     1      12.066   8.471   6.957  0.00  0.00    +0.196 A 
ENDBRANCH  16  22
BRANCH   8  12
ATOM     12  C   UNL     1      11.123   5.615   3.088  0.00  0.00    +0.061 C 
BRANCH  12  15
ATOM      7  N   UNL     1       9.303   7.177   2.935  0.00  0.00    -0.287 NA
ATOM     15  C   UNL     1       9.983   6.391   3.705  0.00  0.00    +0.044 C 
ATOM     17  C   UNL     1       9.703   6.221   5.153  0.00  0.00    -0.001 A 
ATOM     19  C   UNL     1       8.924   7.210   5.765  0.00  0.00    -0.033 A 
ATOM     20  C   UNL     1       8.443   8.365   4.936  0.00  0.00    +0.059 C 
ATOM     21  C   UNL     1       8.159   7.884   3.520  0.00  0.00    +0.146 C 
ATOM     23  C   UNL     1      10.192   5.145   5.895  0.00  0.00    +0.013 A 
ATOM     24  C   UNL     1       8.658   7.130   7.135  0.00  0.00    +0.050 A 
ATOM     25  C   UNL     1       9.908   5.064   7.259  0.00  0.00    +0.046 A 
ATOM     26  C   UNL     1       9.146   6.055   7.878  0.00  0.00    +0.120 A 
BRANCH  26   5
ATOM      5  O   UNL     1       8.880   5.975   9.211  0.00  0.00    -0.495 OA
ATOM     30  C   UNL     1       9.191   4.743   9.861  0.00  0.00    +0.277 C 
ENDBRANCH  26   5
ENDBRANCH  12  15
ENDBRANCH   8  12
BRANCH   9  14
ATOM     14  C   UNL     1      11.848   4.340   0.414  0.00  0.00    +0.124 C 
BRANCH  14  18
ATOM      3  O   UNL     1      11.012   5.137  -1.734  0.00  0.00    -0.251 OA
ATOM     18  C   UNL     1      10.807   4.730  -0.599  0.00  0.00    +0.305 C 
BRANCH  18   2
ATOM      2  O   UNL     1       9.568   4.564  -0.068  0.00  0.00    -0.481 OA
ATOM     31  H   UNL     1       9.181   5.415   0.229  0.00  0.00    +0.295 HD
ENDBRANCH  18   2
ENDBRANCH  14  18
ENDBRANCH   9  14
TORSDOF 7
ENDMDL
MODEL 8
REMARK VINA RESULT:      -5.5     27.562     30.077
REMARK  Name = 51136658
REMARK  8 active torsions:
REMARK  status: ('A' for Active; 'I' for Inactive)
REMARK    1  A    between atoms: O_2  and  C_18
REMARK    2  A    between atoms: O_5  and  C_26
REMARK    3  A    between atoms: O_5  and  C_30
REMARK    4  A    between atoms: C_8  and  C_12
REMARK    5  A    between atoms: C_9  and  C_14
REMARK    6  A    between atoms: C_12  and  C_15
REMARK    7  A    between atoms: C_14  and  C_18
REMARK    8  A    between atoms: C_16  and  C_22
REMARK                            x       y       z     vdW  Elec       q    Type
REMARK                         _______ _______ _______ _____ _____    ______ ____
ROOT
ATOM      1  O   UNL     1      -2.838 -10.306  13.136  0.00  0.00    -0.267 OA
ATOM      6  N   UNL     1      -4.381 -11.277  14.601  0.00  0.00    -0.295 N 
ATOM      8  C   UNL     1      -6.235 -11.036  16.238  0.00  0.00    +0.016 C 
ATOM      9  C   UNL     1      -5.216 -11.308  17.374  0.00  0.00    +0.006 C 
ATOM     10  C   UNL     1      -3.791 -10.902  16.963  0.00  0.00    +0.023 C 
ATOM     11  C   UNL     1      -5.752 -11.691  14.931  0.00  0.00    +0.112 C 
ATOM     13  C   UNL     1      -3.390 -11.549  15.641  0.00  0.00    +0.108 C 
ATOM     16  C   UNL     1      -3.983 -10.660  13.413  0.00  0.00    +0.282 C 
ENDROOT
BRANCH  16  22
ATOM      4  O   UNL     1      -5.457 -11.457  11.666  0.00  0.00    -0.458 OA
ATOM     22  C   UNL     1      -5.004 -10.401  12.393  0.00  0.00    +0.189 A 
ATOM     27  C   UNL     1      -5.632  -9.242  12.004  0.00  0.00    +0.054 A 
ATOM     28  C   UNL     1      -6.529  -9.608  10.971  0.00  0.00    +0.042 A 
ATOM     29  C   UNL     1      -6.384 -10.965  10.803  0.00  0.00    +0.196 A 
ENDBRANCH  16  22
BRANCH   8  12
ATOM     12  C   UNL     1      -6.531  -9.548  16.011  0.00  0.00    +0.061 C 
BRANCH  12  15
ATOM      7  N   UNL     1      -8.289  -8.796  17.466  0.00  0.00    -0.287 NA
ATOM     15  C   UNL     1      -7.987  -9.264  16.299  0.00  0.00    +0.044 C 
ATOM     17  C   UNL     1      -8.992  -9.541  15.242  0.00  0.00    -0.001 A 
ATOM     19  C   UNL     1     -10.328  -9.640  15.652  0.00  0.00    -0.033 A 
ATOM     20  C   UNL     1     -10.648  -9.479  17.109  0.00  0.00    +0.059 C 
ATOM     21  C   UNL     1      -9.694  -8.464  17.725  0.00  0.00    +0.146 C 
ATOM     23  C   UNL     1      -8.649  -9.711  13.900  0.00  0.00    +0.013 A 
ATOM     24  C   UNL     1     -11.318  -9.938  14.712  0.00  0.00    +0.050 A 
ATOM     25  C   UNL     1      -9.646  -9.993  12.966  0.00  0.00    +0.046 A 
ATOM     26  C   UNL     1     -10.977 -10.109  13.370  0.00  0.00    +0.120 A 
BRANCH  26   5
ATOM      5  O   UNL     1     -11.944 -10.392  12.455  0.00  0.00    -0.495 OA
ATOM     30  C   UNL     1     -12.719  -9.296  11.971  0.00  0.00    +0.277 C 
ENDBRANCH  26   5
ENDBRANCH  12  15
ENDBRANCH   8  12
BRANCH   9  14
ATOM     14  C   UNL     1      -5.605 -10.652  18.699  0.00  0.00    +0.124 C 
BRANCH  14  18
ATOM      3  O   UNL     1      -6.999 -12.548  19.336  0.00  0.00    -0.251 OA
ATOM     18  C   UNL     1      -6.775 -11.346  19.338  0.00  0.00    +0.305 C 
BRANCH  18   2
ATOM      2  O   UNL     1      -7.578 -10.430  19.939  0.00  0.00    -0.481 OA
ATOM     31  H   UNL     1      -8.423 -10.312  19.455  0.00  0.00    +0.295 HD
ENDBRANCH  18   2
ENDBRANCH  14  18
ENDBRANCH   9  14
TORSDOF 7
ENDMDL
MODEL 9
REMARK VINA RESULT:      -5.4      3.445      6.069
REMARK  Name = 51136658
REMARK  8 active torsions:
REMARK  status: ('A' for Active; 'I' for Inactive)
REMARK    1  A    between atoms: O_2  and  C_18
REMARK    2  A    between atoms: O_5  and  C_26
REMARK    3  A    between atoms: O_5  and  C_30
REMARK    4  A    between atoms: C_8  and  C_12
REMARK    5  A    between atoms: C_9  and  C_14
REMARK    6  A    between atoms: C_12  and  C_15
REMARK    7  A    between atoms: C_14  and  C_18
REMARK    8  A    between atoms: C_16  and  C_22
REMARK                            x       y       z     vdW  Elec       q    Type
REMARK                         _______ _______ _______ _____ _____    ______ ____
ROOT
ATOM      1  O   UNL     1      12.081   6.301  21.427  0.00  0.00    -0.267 OA
ATOM      6  N   UNL     1      12.245   8.590  20.972  0.00  0.00    -0.295 N 
ATOM      8  C   UNL     1      13.139  10.836  21.545  0.00  0.00    +0.016 C 
ATOM      9  C   UNL     1      11.743  11.204  22.111  0.00  0.00    +0.006 C 
ATOM     10  C   UNL     1      10.978   9.957  22.582  0.00  0.00    +0.023 C 
ATOM     11  C   UNL     1      12.998   9.747  20.467  0.00  0.00    +0.112 C 
ATOM     13  C   UNL     1      10.911   8.900  21.483  0.00  0.00    +0.108 C 
ATOM     16  C   UNL     1      12.705   7.271  21.000  0.00  0.00    +0.282 C 
ENDROOT
BRANCH  16  22
ATOM      4  O   UNL     1      14.212   6.966  19.130  0.00  0.00    -0.458 OA
ATOM     22  C   UNL     1      14.048   6.997  20.479  0.00  0.00    +0.189 A 
ATOM     27  C   UNL     1      15.242   6.753  21.116  0.00  0.00    +0.054 A 
ATOM     28  C   UNL     1      16.201   6.560  20.093  0.00  0.00    +0.042 A 
ATOM     29  C   UNL     1      15.525   6.699  18.904  0.00  0.00    +0.196 A 
ENDBRANCH  16  22
BRANCH   8  12
ATOM     12  C   UNL     1      14.149  10.399  22.614  0.00  0.00    +0.061 C 
BRANCH  12  15
ATOM      7  N   UNL     1      15.711  12.012  21.760  0.00  0.00    -0.287 NA
ATOM     15  C   UNL     1      15.185  11.480  22.814  0.00  0.00    +0.044 C 
ATOM     17  C   UNL     1      15.551  11.872  24.198  0.00  0.00    -0.001 A 
ATOM     19  C   UNL     1      16.755  12.571  24.359  0.00  0.00    -0.033 A 
ATOM     20  C   UNL     1      17.588  12.859  23.144  0.00  0.00    +0.059 C 
ATOM     21  C   UNL     1      16.672  13.103  21.952  0.00  0.00    +0.146 C 
ATOM     23  C   UNL     1      14.761  11.561  25.305  0.00  0.00    +0.013 A 
ATOM     24  C   UNL     1      17.176  12.934  25.640  0.00  0.00    +0.050 A 
ATOM     25  C   UNL     1      15.182  11.942  26.580  0.00  0.00    +0.046 A 
ATOM     26  C   UNL     1      16.388  12.624  26.748  0.00  0.00    +0.120 A 
BRANCH  26   5
ATOM      5  O   UNL     1      16.797  12.985  27.995  0.00  0.00    -0.495 OA
ATOM     30  C   UNL     1      18.163  13.371  28.143  0.00  0.00    +0.277 C 
ENDBRANCH  26   5
ENDBRANCH  12  15
ENDBRANCH   8  12
BRANCH   9  14
ATOM     14  C   UNL     1      11.804  12.253  23.221  0.00  0.00    +0.124 C 
BRANCH  14  18
ATOM      3  O   UNL     1      11.166  11.239  25.345  0.00  0.00    -0.251 OA
ATOM     18  C   UNL     1      10.886  11.907  24.360  0.00  0.00    +0.305 C 
BRANCH  18   2
ATOM      2  O   UNL     1       9.661  12.453  24.142  0.00  0.00    -0.481 OA
ATOM     31  H   UNL     1       9.057  11.826  23.689  0.00  0.00    +0.295 HD
ENDBRANCH  18   2
ENDBRANCH  14  18
ENDBRANCH   9  14
TORSDOF 7
ENDMDL
MODEL 10
REMARK VINA RESULT:      -5.3     26.623     29.732
REMARK  Name = 51136658
REMARK  8 active torsions:
REMARK  status: ('A' for Active; 'I' for Inactive)
REMARK    1  A    between atoms: O_2  and  C_18
REMARK    2  A    between atoms: O_5  and  C_26
REMARK    3  A    between atoms: O_5  and  C_30
REMARK    4  A    between atoms: C_8  and  C_12
REMARK    5  A    between atoms: C_9  and  C_14
REMARK    6  A    between atoms: C_12  and  C_15
REMARK    7  A    between atoms: C_14  and  C_18
REMARK    8  A    between atoms: C_16  and  C_22
REMARK                            x       y       z     vdW  Elec       q    Type
REMARK                         _______ _______ _______ _____ _____    ______ ____
ROOT
ATOM      1  O   UNL     1      -8.420 -11.131  13.247  0.00  0.00    -0.267 OA
ATOM      6  N   UNL     1      -7.271 -10.114  15.013  0.00  0.00    -0.295 N 
ATOM      8  C   UNL     1      -5.683 -10.271  16.918  0.00  0.00    +0.016 C 
ATOM      9  C   UNL     1      -6.895 -10.228  17.882  0.00  0.00    +0.006 C 
ATOM     10  C   UNL     1      -8.170 -10.767  17.212  0.00  0.00    +0.023 C 
ATOM     11  C   UNL     1      -6.038  -9.566  15.596  0.00  0.00    +0.112 C 
ATOM     13  C   UNL     1      -8.441 -10.057  15.888  0.00  0.00    +0.108 C 
ATOM     16  C   UNL     1      -7.391 -10.666  13.736  0.00  0.00    +0.282 C 
ENDROOT
BRANCH  16  22
ATOM      4  O   UNL     1      -5.699  -9.525  12.433  0.00  0.00    -0.458 OA
ATOM     22  C   UNL     1      -6.197 -10.706  12.887  0.00  0.00    +0.189 A 
ATOM     27  C   UNL     1      -5.434 -11.756  12.432  0.00  0.00    +0.054 A 
ATOM     28  C   UNL     1      -4.402 -11.184  11.650  0.00  0.00    +0.042 A 
ATOM     29  C   UNL     1      -4.608  -9.825  11.681  0.00  0.00    +0.196 A 
ENDBRANCH  16  22
BRANCH   8  12
ATOM     12  C   UNL     1      -5.157 -11.686  16.642  0.00  0.00    +0.061 C 
BRANCH  12  15
ATOM      7  N   UNL     1      -2.984 -10.665  16.561  0.00  0.00    -0.287 NA
ATOM     15  C   UNL     1      -3.742 -11.615  16.119  0.00  0.00    +0.044 C 
ATOM     17  C   UNL     1      -3.294 -12.624  15.127  0.00  0.00    -0.001 A 
ATOM     19  C   UNL     1      -2.147 -12.315  14.385  0.00  0.00    -0.033 A 
ATOM     20  C   UNL     1      -1.465 -11.000  14.627  0.00  0.00    +0.059 C 
ATOM     21  C   UNL     1      -1.592 -10.631  16.099  0.00  0.00    +0.146 C 
ATOM     23  C   UNL     1      -3.973 -13.825  14.913  0.00  0.00    +0.013 A 
ATOM     24  C   UNL     1      -1.697 -13.205  13.407  0.00  0.00    +0.050 A 
ATOM     25  C   UNL     1      -3.507 -14.715  13.945  0.00  0.00    +0.046 A 
ATOM     26  C   UNL     1      -2.373 -14.406  13.192  0.00  0.00    +0.120 A 
BRANCH  26   5
ATOM      5  O   UNL     1      -1.929 -15.275  12.243  0.00  0.00    -0.495 OA
ATOM     30  C   UNL     1      -2.797 -15.528  11.138  0.00  0.00    +0.277 C 
ENDBRANCH  26   5
ENDBRANCH  12  15
ENDBRANCH   8  12
BRANCH   9  14
ATOM     14  C   UNL     1      -6.635 -10.947  19.206  0.00  0.00    +0.124 C 
BRANCH  14  18
ATOM      3  O   UNL     1      -8.093 -12.809  19.800  0.00  0.00    -0.251 OA
ATOM     18  C   UNL     1      -7.880 -11.608  19.731  0.00  0.00    +0.305 C 
BRANCH  18   2
ATOM      2  O   UNL     1      -8.766 -10.659  20.131  0.00  0.00    -0.481 OA
ATOM     31  H   UNL     1      -8.684 -10.464  21.089  0.00  0.00    +0.295 HD
ENDBRANCH  18   2
ENDBRANCH  14  18
ENDBRANCH   9  14
TORSDOF 7
ENDMDL
