MODEL 1
REMARK VINA RESULT:      -7.6      0.000      0.000
REMARK  Name = 26763465
REMARK  9 active torsions:
REMARK  status: ('A' for Active; 'I' for Inactive)
REMARK    1  A    between atoms: S_1  and  N_6
REMARK    2  A    between atoms: S_1  and  C_18
REMARK    3  A    between atoms: N_6  and  C_13
REMARK    4  A    between atoms: N_7  and  C_14
REMARK    5  A    between atoms: N_10  and  C_33
REMARK    6  A    between atoms: N_10  and  C_34
REMARK    7  A    between atoms: N_10  and  C_35
REMARK    8  A    between atoms: C_21  and  C_27
REMARK    9  A    between atoms: C_26  and  C_28
REMARK                            x       y       z     vdW  Elec       q    Type
REMARK                         _______ _______ _______ _____ _____    ______ ____
ROOT
ATOM      2  O   UNL     1      -7.095 -10.229  16.670  0.00  0.00    -0.370 OA
ATOM      3  O   UNL     1      -5.101 -10.687  19.032  0.00  0.00    -0.370 OA
ATOM     11  C   UNL     1      -5.305 -11.345  17.770  0.00  0.00    +0.170 C 
ATOM     12  C   UNL     1      -6.797 -11.360  17.506  0.00  0.00    +0.171 C 
ATOM     13  C   UNL     1      -4.739 -10.510  16.648  0.00  0.00    +0.133 C 
ATOM     14  C   UNL     1      -7.418 -11.179  18.871  0.00  0.00    +0.130 C 
ATOM     15  C   UNL     1      -5.873  -9.553  16.338  0.00  0.00    +0.183 C 
ATOM     16  C   UNL     1      -6.375 -10.356  19.604  0.00  0.00    +0.185 C 
ENDROOT
BRANCH  14   7
ATOM      7  N   UNL     1      -7.584 -12.464  19.513  0.00  0.00    -0.306 N 
ATOM      8  N   UNL     1      -9.819 -12.047  19.989  0.00  0.00    -0.214 NA
ATOM      9  N   UNL     1      -8.769 -14.119  20.633  0.00  0.00    -0.223 NA
ATOM     17  C   UNL     1      -8.776 -12.895  20.070  0.00  0.00    +0.216 A 
ATOM     21  C   UNL     1     -10.965 -12.501  20.537  0.00  0.00    +0.076 A 
ATOM     22  C   UNL     1      -9.947 -14.509  21.161  0.00  0.00    +0.116 A 
ATOM     25  C   UNL     1     -11.090 -13.735  21.143  0.00  0.00    +0.048 A 
ATOM     37  H   UNL     1      -6.810 -13.119  19.524  0.00  0.00    +0.149 HD
BRANCH  21  27
ATOM     27  C   UNL     1     -12.086 -11.596  20.452  0.00  0.00    +0.001 A 
ATOM     29  C   UNL     1     -13.220 -11.816  21.234  0.00  0.00    +0.012 A 
ATOM     30  C   UNL     1     -12.035 -10.501  19.589  0.00  0.00    +0.012 A 
ATOM     31  C   UNL     1     -14.304 -10.942  21.152  0.00  0.00    +0.024 A 
ATOM     32  C   UNL     1     -13.118  -9.626  19.509  0.00  0.00    +0.024 A 
ATOM     33  C   UNL     1     -14.253  -9.846  20.290  0.00  0.00    +0.029 A 
BRANCH  33  10
ATOM     10  N   UNL     1     -15.348  -8.961  20.209  0.00  0.00    -0.336 N 
ATOM     34  C   UNL     1     -15.745  -8.178  21.362  0.00  0.00    +0.129 C 
ATOM     35  C   UNL     1     -16.085  -8.816  18.969  0.00  0.00    +0.129 C 
ENDBRANCH  33  10
ENDBRANCH  21  27
ENDBRANCH  14   7
BRANCH  13   6
ATOM      6  N   UNL     1      -4.477 -11.371  15.469  0.00  0.00    -0.182 NA
ATOM     36  H   UNL     1      -5.159 -12.108  15.256  0.00  0.00    +0.148 HD
BRANCH   6   1
ATOM      1  S   UNL     1      -2.932 -11.394  14.766  0.00  0.00    +0.059 S 
ATOM      4  O   UNL     1      -2.514 -12.768  14.562  0.00  0.00    -0.153 OA
ATOM      5  O   UNL     1      -2.076 -10.472  15.487  0.00  0.00    -0.153 OA
BRANCH   1  18
ATOM     18  C   UNL     1      -3.242 -10.678  13.180  0.00  0.00    +0.105 A 
ATOM     19  C   UNL     1      -4.542 -10.334  12.813  0.00  0.00    +0.029 A 
ATOM     20  C   UNL     1      -2.185 -10.455  12.296  0.00  0.00    +0.029 A 
ATOM     23  C   UNL     1      -4.788  -9.770  11.561  0.00  0.00    +0.005 A 
ATOM     24  C   UNL     1      -2.431  -9.891  11.045  0.00  0.00    +0.005 A 
ATOM     26  C   UNL     1      -3.732  -9.548  10.677  0.00  0.00    -0.050 A 
ATOM     28  C   UNL     1      -3.995  -8.943   9.339  0.00  0.00    +0.044 C 
ENDBRANCH   1  18
ENDBRANCH   6   1
ENDBRANCH  13   6
TORSDOF 6
ENDMDL
MODEL 2
REMARK VINA RESULT:      -7.5     28.116     31.145
REMARK  Name = 26763465
REMARK  9 active torsions:
REMARK  status: ('A' for Active; 'I' for Inactive)
REMARK    1  A    between atoms: S_1  and  N_6
REMARK    2  A    between atoms: S_1  and  C_18
REMARK    3  A    between atoms: N_6  and  C_13
REMARK    4  A    between atoms: N_7  and  C_14
REMARK    5  A    between atoms: N_10  and  C_33
REMARK    6  A    between atoms: N_10  and  C_34
REMARK    7  A    between atoms: N_10  and  C_35
REMARK    8  A    between atoms: C_21  and  C_27
REMARK    9  A    between atoms: C_26  and  C_28
REMARK                            x       y       z     vdW  Elec       q    Type
REMARK                         _______ _______ _______ _____ _____    ______ ____
ROOT
ATOM      2  O   UNL     1      13.148   8.985  15.350  0.00  0.00    -0.370 OA
ATOM      3  O   UNL     1      15.356  10.923  16.415  0.00  0.00    -0.370 OA
ATOM     11  C   UNL     1      14.035  10.585  16.871  0.00  0.00    +0.170 C 
ATOM     12  C   UNL     1      13.170  10.392  15.642  0.00  0.00    +0.171 C 
ATOM     13  C   UNL     1      14.043   9.229  17.534  0.00  0.00    +0.133 C 
ATOM     14  C   UNL     1      13.900  11.141  14.553  0.00  0.00    +0.130 C 
ATOM     15  C   UNL     1      13.886   8.282  16.362  0.00  0.00    +0.183 C 
ATOM     16  C   UNL     1      15.351  11.025  14.984  0.00  0.00    +0.185 C 
ENDROOT
BRANCH  14   7
ATOM      7  N   UNL     1      13.491  12.528  14.545  0.00  0.00    -0.306 N 
ATOM      8  N   UNL     1      12.299  12.267  12.568  0.00  0.00    -0.214 NA
ATOM      9  N   UNL     1      12.401  14.395  13.695  0.00  0.00    -0.223 NA
ATOM     17  C   UNL     1      12.696  13.088  13.559  0.00  0.00    +0.216 A 
ATOM     21  C   UNL     1      11.523  12.844  11.627  0.00  0.00    +0.076 A 
ATOM     22  C   UNL     1      11.622  14.907  12.720  0.00  0.00    +0.116 A 
ATOM     25  C   UNL     1      11.149  14.173  11.651  0.00  0.00    +0.048 A 
ATOM     37  H   UNL     1      13.748  13.128  15.321  0.00  0.00    +0.149 HD
BRANCH  21  27
ATOM     27  C   UNL     1      11.094  11.968  10.564  0.00  0.00    +0.001 A 
ATOM     29  C   UNL     1       9.771  11.529  10.514  0.00  0.00    +0.012 A 
ATOM     30  C   UNL     1      12.002  11.561   9.586  0.00  0.00    +0.012 A 
ATOM     31  C   UNL     1       9.355  10.682   9.488  0.00  0.00    +0.024 A 
ATOM     32  C   UNL     1      11.586  10.715   8.558  0.00  0.00    +0.024 A 
ATOM     33  C   UNL     1      10.262  10.275   8.508  0.00  0.00    +0.029 A 
BRANCH  33  10
ATOM     10  N   UNL     1       9.842   9.421   7.468  0.00  0.00    -0.336 N 
ATOM     34  C   UNL     1       8.990   8.284   7.752  0.00  0.00    +0.129 C 
ATOM     35  C   UNL     1      10.249   9.674   6.100  0.00  0.00    +0.129 C 
ENDBRANCH  33  10
ENDBRANCH  21  27
ENDBRANCH  14   7
BRANCH  13   6
ATOM      6  N   UNL     1      12.870   9.108  18.434  0.00  0.00    -0.182 NA
ATOM     36  H   UNL     1      12.232   9.909  18.495  0.00  0.00    +0.148 HD
BRANCH   6   1
ATOM      1  S   UNL     1      12.822   7.874  19.598  0.00  0.00    +0.059 S 
ATOM      4  O   UNL     1      12.384   6.638  18.977  0.00  0.00    -0.153 OA
ATOM      5  O   UNL     1      12.146   8.374  20.781  0.00  0.00    -0.153 OA
BRANCH   1  18
ATOM     18  C   UNL     1      14.530   7.698  20.016  0.00  0.00    +0.105 A 
ATOM     19  C   UNL     1      15.133   8.609  20.883  0.00  0.00    +0.029 A 
ATOM     20  C   UNL     1      15.276   6.649  19.477  0.00  0.00    +0.029 A 
ATOM     23  C   UNL     1      16.481   8.472  21.212  0.00  0.00    +0.005 A 
ATOM     24  C   UNL     1      16.624   6.512  19.806  0.00  0.00    +0.005 A 
ATOM     26  C   UNL     1      17.228   7.423  20.673  0.00  0.00    -0.050 A 
ATOM     28  C   UNL     1      18.669   7.276  21.025  0.00  0.00    +0.044 C 
ENDBRANCH   1  18
ENDBRANCH   6   1
ENDBRANCH  13   6
TORSDOF 6
ENDMDL
MODEL 3
REMARK VINA RESULT:      -7.4     10.100     14.587
REMARK  Name = 26763465
REMARK  9 active torsions:
REMARK  status: ('A' for Active; 'I' for Inactive)
REMARK    1  A    between atoms: S_1  and  N_6
REMARK    2  A    between atoms: S_1  and  C_18
REMARK    3  A    between atoms: N_6  and  C_13
REMARK    4  A    between atoms: N_7  and  C_14
REMARK    5  A    between atoms: N_10  and  C_33
REMARK    6  A    between atoms: N_10  and  C_34
REMARK    7  A    between atoms: N_10  and  C_35
REMARK    8  A    between atoms: C_21  and  C_27
REMARK    9  A    between atoms: C_26  and  C_28
REMARK                            x       y       z     vdW  Elec       q    Type
REMARK                         _______ _______ _______ _____ _____    ______ ____
ROOT
ATOM      2  O   UNL     1      -1.575 -13.970   4.836  0.00  0.00    -0.370 OA
ATOM      3  O   UNL     1      -4.285 -14.782   3.509  0.00  0.00    -0.370 OA
ATOM     11  C   UNL     1      -3.226 -13.889   3.125  0.00  0.00    +0.170 C 
ATOM     12  C   UNL     1      -2.718 -13.223   4.388  0.00  0.00    +0.171 C 
ATOM     13  C   UNL     1      -2.040 -14.673   2.618  0.00  0.00    +0.133 C 
ATOM     14  C   UNL     1      -3.857 -13.370   5.369  0.00  0.00    +0.130 C 
ATOM     15  C   UNL     1      -1.295 -15.016   3.893  0.00  0.00    +0.183 C 
ATOM     16  C   UNL     1      -4.518 -14.661   4.920  0.00  0.00    +0.185 C 
ENDROOT
BRANCH  14   7
ATOM      7  N   UNL     1      -4.776 -12.263   5.230  0.00  0.00    -0.306 N 
ATOM      8  N   UNL     1      -4.413 -11.561   7.415  0.00  0.00    -0.214 NA
ATOM      9  N   UNL     1      -5.934 -10.386   5.961  0.00  0.00    -0.223 NA
ATOM     17  C   UNL     1      -5.053 -11.364   6.247  0.00  0.00    +0.216 A 
ATOM     21  C   UNL     1      -4.704 -10.666   8.382  0.00  0.00    +0.076 A 
ATOM     22  C   UNL     1      -6.178  -9.526   6.971  0.00  0.00    +0.116 A 
ATOM     25  C   UNL     1      -5.586  -9.617   8.215  0.00  0.00    +0.048 A 
ATOM     37  H   UNL     1      -5.214 -12.088   4.333  0.00  0.00    +0.149 HD
BRANCH  21  27
ATOM     27  C   UNL     1      -4.019 -10.872   9.635  0.00  0.00    +0.001 A 
ATOM     29  C   UNL     1      -3.359  -9.809  10.252  0.00  0.00    +0.012 A 
ATOM     30  C   UNL     1      -4.018 -12.134  10.230  0.00  0.00    +0.012 A 
ATOM     31  C   UNL     1      -2.698 -10.006  11.463  0.00  0.00    +0.024 A 
ATOM     32  C   UNL     1      -3.356 -12.331  11.442  0.00  0.00    +0.024 A 
ATOM     33  C   UNL     1      -2.696 -11.268  12.059  0.00  0.00    +0.029 A 
BRANCH  33  10
ATOM     10  N   UNL     1      -2.029 -11.468  13.285  0.00  0.00    -0.336 N 
ATOM     34  C   UNL     1      -1.496 -12.772  13.626  0.00  0.00    +0.129 C 
ATOM     35  C   UNL     1      -1.860 -10.371  14.217  0.00  0.00    +0.129 C 
ENDBRANCH  33  10
ENDBRANCH  21  27
ENDBRANCH  14   7
BRANCH  13   6
ATOM      6  N   UNL     1      -1.194 -13.803   1.766  0.00  0.00    -0.182 NA
ATOM     36  H   UNL     1      -0.932 -12.882   2.137  0.00  0.00    +0.148 HD
BRANCH   6   1
ATOM      1  S   UNL     1      -1.020 -14.149   0.113  0.00  0.00    +0.059 S 
ATOM      4  O   UNL     1      -1.594 -13.071  -0.670  0.00  0.00    -0.153 OA
ATOM      5  O   UNL     1      -1.431 -15.520  -0.123  0.00  0.00    -0.153 OA
BRANCH   1  18
ATOM     18  C   UNL     1       0.735 -14.094  -0.088  0.00  0.00    +0.105 A 
ATOM     19  C   UNL     1       1.564 -14.051   1.032  0.00  0.00    +0.029 A 
ATOM     20  C   UNL     1       1.291 -14.094  -1.368  0.00  0.00    +0.029 A 
ATOM     23  C   UNL     1       2.949 -14.007   0.875  0.00  0.00    +0.005 A 
ATOM     24  C   UNL     1       2.676 -14.051  -1.526  0.00  0.00    +0.005 A 
ATOM     26  C   UNL     1       3.505 -14.007  -0.405  0.00  0.00    -0.050 A 
ATOM     28  C   UNL     1       4.986 -13.960  -0.574  0.00  0.00    +0.044 C 
ENDBRANCH   1  18
ENDBRANCH   6   1
ENDBRANCH  13   6
TORSDOF 6
ENDMDL
MODEL 4
REMARK VINA RESULT:      -7.4      2.298      3.555
REMARK  Name = 26763465
REMARK  9 active torsions:
REMARK  status: ('A' for Active; 'I' for Inactive)
REMARK    1  A    between atoms: S_1  and  N_6
REMARK    2  A    between atoms: S_1  and  C_18
REMARK    3  A    between atoms: N_6  and  C_13
REMARK    4  A    between atoms: N_7  and  C_14
REMARK    5  A    between atoms: N_10  and  C_33
REMARK    6  A    between atoms: N_10  and  C_34
REMARK    7  A    between atoms: N_10  and  C_35
REMARK    8  A    between atoms: C_21  and  C_27
REMARK    9  A    between atoms: C_26  and  C_28
REMARK                            x       y       z     vdW  Elec       q    Type
REMARK                         _______ _______ _______ _____ _____    ______ ____
ROOT
ATOM      2  O   UNL     1      -5.453 -10.226  17.979  0.00  0.00    -0.370 OA
ATOM      3  O   UNL     1      -6.904 -11.640  15.600  0.00  0.00    -0.370 OA
ATOM     11  C   UNL     1      -5.829 -10.689  15.676  0.00  0.00    +0.170 C 
ATOM     12  C   UNL     1      -6.145  -9.741  16.816  0.00  0.00    +0.171 C 
ATOM     13  C   UNL     1      -4.555 -11.375  16.108  0.00  0.00    +0.133 C 
ATOM     14  C   UNL     1      -7.638  -9.870  17.002  0.00  0.00    +0.130 C 
ATOM     15  C   UNL     1      -4.670 -11.373  17.619  0.00  0.00    +0.183 C 
ATOM     16  C   UNL     1      -7.905 -11.301  16.571  0.00  0.00    +0.185 C 
ENDROOT
BRANCH  14   7
ATOM      7  N   UNL     1      -8.327  -8.947  16.128  0.00  0.00    -0.306 N 
ATOM      8  N   UNL     1     -10.328  -9.198  17.282  0.00  0.00    -0.214 NA
ATOM      9  N   UNL     1     -10.161  -7.739  15.370  0.00  0.00    -0.223 NA
ATOM     17  C   UNL     1      -9.664  -8.614  16.266  0.00  0.00    +0.216 A 
ATOM     21  C   UNL     1     -11.627  -8.848  17.389  0.00  0.00    +0.076 A 
ATOM     22  C   UNL     1     -11.464  -7.433  15.536  0.00  0.00    +0.116 A 
ATOM     25  C   UNL     1     -12.255  -7.961  16.537  0.00  0.00    +0.048 A 
ATOM     37  H   UNL     1      -7.810  -8.471  15.399  0.00  0.00    +0.149 HD
BRANCH  21  27
ATOM     27  C   UNL     1     -12.342  -9.470  18.477  0.00  0.00    +0.001 A 
ATOM     29  C   UNL     1     -11.643  -9.960  19.580  0.00  0.00    +0.012 A 
ATOM     30  C   UNL     1     -13.732  -9.579  18.426  0.00  0.00    +0.012 A 
ATOM     31  C   UNL     1     -12.333 -10.561  20.632  0.00  0.00    +0.024 A 
ATOM     32  C   UNL     1     -14.422 -10.180  19.479  0.00  0.00    +0.024 A 
ATOM     33  C   UNL     1     -13.724 -10.671  20.582  0.00  0.00    +0.029 A 
BRANCH  33  10
ATOM     10  N   UNL     1     -14.422 -11.276  21.647  0.00  0.00    -0.336 N 
ATOM     34  C   UNL     1     -15.776 -10.866  21.963  0.00  0.00    +0.129 C 
ATOM     35  C   UNL     1     -13.798 -12.321  22.434  0.00  0.00    +0.129 C 
ENDBRANCH  33  10
ENDBRANCH  21  27
ENDBRANCH  14   7
BRANCH  13   6
ATOM      6  N   UNL     1      -3.386 -10.561  15.696  0.00  0.00    -0.182 NA
ATOM     36  H   UNL     1      -3.436  -9.546  15.844  0.00  0.00    +0.148 HD
BRANCH   6   1
ATOM      1  S   UNL     1      -2.213 -11.226  14.665  0.00  0.00    +0.059 S 
ATOM      4  O   UNL     1      -2.377 -12.667  14.611  0.00  0.00    -0.153 OA
ATOM      5  O   UNL     1      -0.922 -10.652  14.994  0.00  0.00    -0.153 OA
BRANCH   1  18
ATOM     18  C   UNL     1      -2.688 -10.565  13.096  0.00  0.00    +0.105 A 
ATOM     19  C   UNL     1      -4.037 -10.471  12.759  0.00  0.00    +0.029 A 
ATOM     20  C   UNL     1      -1.712 -10.137  12.195  0.00  0.00    +0.029 A 
ATOM     23  C   UNL     1      -4.413  -9.950  11.521  0.00  0.00    +0.005 A 
ATOM     24  C   UNL     1      -2.088  -9.616  10.958  0.00  0.00    +0.005 A 
ATOM     26  C   UNL     1      -3.438  -9.522  10.620  0.00  0.00    -0.050 A 
ATOM     28  C   UNL     1      -3.839  -8.964   9.296  0.00  0.00    +0.044 C 
ENDBRANCH   1  18
ENDBRANCH   6   1
ENDBRANCH  13   6
TORSDOF 6
ENDMDL
MODEL 5
REMARK VINA RESULT:      -7.3      4.885      8.615
REMARK  Name = 26763465
REMARK  9 active torsions:
REMARK  status: ('A' for Active; 'I' for Inactive)
REMARK    1  A    between atoms: S_1  and  N_6
REMARK    2  A    between atoms: S_1  and  C_18
REMARK    3  A    between atoms: N_6  and  C_13
REMARK    4  A    between atoms: N_7  and  C_14
REMARK    5  A    between atoms: N_10  and  C_33
REMARK    6  A    between atoms: N_10  and  C_34
REMARK    7  A    between atoms: N_10  and  C_35
REMARK    8  A    between atoms: C_21  and  C_27
REMARK    9  A    between atoms: C_26  and  C_28
REMARK                            x       y       z     vdW  Elec       q    Type
REMARK                         _______ _______ _______ _____ _____    ______ ____
ROOT
ATOM      2  O   UNL     1      -5.817 -11.757  10.200  0.00  0.00    -0.370 OA
ATOM      3  O   UNL     1      -4.590  -8.892   9.975  0.00  0.00    -0.370 OA
ATOM     11  C   UNL     1      -4.221 -10.170   9.429  0.00  0.00    +0.170 C 
ATOM     12  C   UNL     1      -4.517 -11.214  10.487  0.00  0.00    +0.171 C 
ATOM     13  C   UNL     1      -5.137 -10.532   8.285  0.00  0.00    +0.133 C 
ATOM     14  C   UNL     1      -4.549 -10.434  11.780  0.00  0.00    +0.130 C 
ATOM     15  C   UNL     1      -6.317 -11.169   8.990  0.00  0.00    +0.183 C 
ATOM     16  C   UNL     1      -5.027  -9.066  11.331  0.00  0.00    +0.185 C 
ENDROOT
BRANCH  14   7
ATOM      7  N   UNL     1      -3.217 -10.342  12.335  0.00  0.00    -0.306 N 
ATOM      8  N   UNL     1      -3.990 -10.688  14.499  0.00  0.00    -0.214 NA
ATOM      9  N   UNL     1      -1.646 -10.355  14.046  0.00  0.00    -0.223 NA
ATOM     17  C   UNL     1      -2.939 -10.466  13.686  0.00  0.00    +0.216 A 
ATOM     21  C   UNL     1      -3.682 -10.807  15.807  0.00  0.00    +0.076 A 
ATOM     22  C   UNL     1      -1.409 -10.485  15.368  0.00  0.00    +0.116 A 
ATOM     25  C   UNL     1      -2.397 -10.715  16.304  0.00  0.00    +0.048 A 
ATOM     37  H   UNL     1      -2.425 -10.229  11.713  0.00  0.00    +0.149 HD
BRANCH  21  27
ATOM     27  C   UNL     1      -4.805 -11.046  16.681  0.00  0.00    +0.001 A 
ATOM     29  C   UNL     1      -4.590 -11.501  17.982  0.00  0.00    +0.012 A 
ATOM     30  C   UNL     1      -6.104 -10.819  16.227  0.00  0.00    +0.012 A 
ATOM     31  C   UNL     1      -5.674 -11.731  18.828  0.00  0.00    +0.024 A 
ATOM     32  C   UNL     1      -7.188 -11.048  17.074  0.00  0.00    +0.024 A 
ATOM     33  C   UNL     1      -6.974 -11.505  18.375  0.00  0.00    +0.029 A 
BRANCH  33  10
ATOM     10  N   UNL     1      -8.070 -11.735  19.231  0.00  0.00    -0.336 N 
ATOM     34  C   UNL     1      -8.132 -12.939  20.036  0.00  0.00    +0.129 C 
ATOM     35  C   UNL     1      -9.146 -10.768  19.323  0.00  0.00    +0.129 C 
ENDBRANCH  33  10
ENDBRANCH  21  27
ENDBRANCH  14   7
BRANCH  13   6
ATOM      6  N   UNL     1      -4.475 -11.535   7.416  0.00  0.00    -0.182 NA
ATOM     36  H   UNL     1      -3.489 -11.750   7.602  0.00  0.00    +0.148 HD
BRANCH   6   1
ATOM      1  S   UNL     1      -5.197 -11.990   5.948  0.00  0.00    +0.059 S 
ATOM      4  O   UNL     1      -5.640 -10.804   5.239  0.00  0.00    -0.153 OA
ATOM      5  O   UNL     1      -6.123 -13.078   6.199  0.00  0.00    -0.153 OA
BRANCH   1  18
ATOM     18  C   UNL     1      -3.826 -12.672   5.064  0.00  0.00    +0.105 A 
ATOM     19  C   UNL     1      -3.680 -12.419   3.701  0.00  0.00    +0.029 A 
ATOM     20  C   UNL     1      -2.891 -13.465   5.731  0.00  0.00    +0.029 A 
ATOM     23  C   UNL     1      -2.600 -12.958   3.002  0.00  0.00    +0.005 A 
ATOM     24  C   UNL     1      -1.811 -14.004   5.032  0.00  0.00    +0.005 A 
ATOM     26  C   UNL     1      -1.665 -13.751   3.668  0.00  0.00    -0.050 A 
ATOM     28  C   UNL     1      -0.510 -14.327   2.922  0.00  0.00    +0.044 C 
ENDBRANCH   1  18
ENDBRANCH   6   1
ENDBRANCH  13   6
TORSDOF 6
ENDMDL
MODEL 6
REMARK VINA RESULT:      -7.0     27.430     30.364
REMARK  Name = 26763465
REMARK  9 active torsions:
REMARK  status: ('A' for Active; 'I' for Inactive)
REMARK    1  A    between atoms: S_1  and  N_6
REMARK    2  A    between atoms: S_1  and  C_18
REMARK    3  A    between atoms: N_6  and  C_13
REMARK    4  A    between atoms: N_7  and  C_14
REMARK    5  A    between atoms: N_10  and  C_33
REMARK    6  A    between atoms: N_10  and  C_34
REMARK    7  A    between atoms: N_10  and  C_35
REMARK    8  A    between atoms: C_21  and  C_27
REMARK    9  A    between atoms: C_26  and  C_28
REMARK                            x       y       z     vdW  Elec       q    Type
REMARK                         _______ _______ _______ _____ _____    ______ ____
ROOT
ATOM      2  O   UNL     1       9.732  11.845  12.541  0.00  0.00    -0.370 OA
ATOM      3  O   UNL     1      10.807  14.303  10.939  0.00  0.00    -0.370 OA
ATOM     11  C   UNL     1      10.739  12.895  10.658  0.00  0.00    +0.170 C 
ATOM     12  C   UNL     1      11.007  12.163  11.957  0.00  0.00    +0.171 C 
ATOM     13  C   UNL     1       9.326  12.503  10.297  0.00  0.00    +0.133 C 
ATOM     14  C   UNL     1      11.735  13.175  12.810  0.00  0.00    +0.130 C 
ATOM     15  C   UNL     1       8.688  12.269  11.652  0.00  0.00    +0.183 C 
ATOM     16  C   UNL     1      11.174  14.494  12.313  0.00  0.00    +0.185 C 
ENDROOT
BRANCH  14   7
ATOM      7  N   UNL     1      13.157  13.108  12.552  0.00  0.00    -0.306 N 
ATOM      8  N   UNL     1      13.511  11.666  14.340  0.00  0.00    -0.214 NA
ATOM      9  N   UNL     1      15.334  12.401  12.945  0.00  0.00    -0.223 NA
ATOM     17  C   UNL     1      14.040  12.359  13.313  0.00  0.00    +0.216 A 
ATOM     21  C   UNL     1      14.398  10.946  15.057  0.00  0.00    +0.076 A 
ATOM     22  C   UNL     1      16.166  11.657  13.704  0.00  0.00    +0.116 A 
ATOM     25  C   UNL     1      15.750  10.902  14.783  0.00  0.00    +0.048 A 
ATOM     37  H   UNL     1      13.540  13.588  11.747  0.00  0.00    +0.149 HD
BRANCH  21  27
ATOM     27  C   UNL     1      13.836  10.201  16.157  0.00  0.00    +0.001 A 
ATOM     29  C   UNL     1      14.511  10.145  17.377  0.00  0.00    +0.012 A 
ATOM     30  C   UNL     1      12.619   9.538  16.002  0.00  0.00    +0.012 A 
ATOM     31  C   UNL     1      13.969   9.426  18.441  0.00  0.00    +0.024 A 
ATOM     32  C   UNL     1      12.076   8.819  17.067  0.00  0.00    +0.024 A 
ATOM     33  C   UNL     1      12.751   8.762  18.287  0.00  0.00    +0.029 A 
BRANCH  33  10
ATOM     10  N   UNL     1      12.201   8.037  19.364  0.00  0.00    -0.336 N 
ATOM     34  C   UNL     1      11.002   8.507  20.029  0.00  0.00    +0.129 C 
ATOM     35  C   UNL     1      12.822   6.807  19.814  0.00  0.00    +0.129 C 
ENDBRANCH  33  10
ENDBRANCH  21  27
ENDBRANCH  14   7
BRANCH  13   6
ATOM      6  N   UNL     1       9.342  11.235   9.528  0.00  0.00    -0.182 NA
ATOM     36  H   UNL     1       8.935  10.404   9.972  0.00  0.00    +0.148 HD
BRANCH   6   1
ATOM      1  S   UNL     1      10.343  11.085   8.166  0.00  0.00    +0.059 S 
ATOM      4  O   UNL     1      11.690  10.751   8.589  0.00  0.00    -0.153 OA
ATOM      5  O   UNL     1      10.115  12.219   7.290  0.00  0.00    -0.153 OA
BRANCH   1  18
ATOM     18  C   UNL     1       9.657   9.668   7.363  0.00  0.00    +0.105 A 
ATOM     19  C   UNL     1       9.406   8.507   8.093  0.00  0.00    +0.029 A 
ATOM     20  C   UNL     1       9.366   9.711   5.999  0.00  0.00    +0.029 A 
ATOM     23  C   UNL     1       8.865   7.388   7.461  0.00  0.00    +0.005 A 
ATOM     24  C   UNL     1       8.826   8.592   5.367  0.00  0.00    +0.005 A 
ATOM     26  C   UNL     1       8.575   7.430   6.096  0.00  0.00    -0.050 A 
ATOM     28  C   UNL     1       7.996   6.233   5.420  0.00  0.00    +0.044 C 
ENDBRANCH   1  18
ENDBRANCH   6   1
ENDBRANCH  13   6
TORSDOF 6
ENDMDL
MODEL 7
REMARK VINA RESULT:      -6.9     17.673     19.904
REMARK  Name = 26763465
REMARK  9 active torsions:
REMARK  status: ('A' for Active; 'I' for Inactive)
REMARK    1  A    between atoms: S_1  and  N_6
REMARK    2  A    between atoms: S_1  and  C_18
REMARK    3  A    between atoms: N_6  and  C_13
REMARK    4  A    between atoms: N_7  and  C_14
REMARK    5  A    between atoms: N_10  and  C_33
REMARK    6  A    between atoms: N_10  and  C_34
REMARK    7  A    between atoms: N_10  and  C_35
REMARK    8  A    between atoms: C_21  and  C_27
REMARK    9  A    between atoms: C_26  and  C_28
REMARK                            x       y       z     vdW  Elec       q    Type
REMARK                         _______ _______ _______ _____ _____    ______ ____
ROOT
ATOM      2  O   UNL     1     -15.749   7.107  23.345  0.00  0.00    -0.370 OA
ATOM      3  O   UNL     1     -13.779   5.032  22.091  0.00  0.00    -0.370 OA
ATOM     11  C   UNL     1     -15.029   5.593  21.658  0.00  0.00    +0.170 C 
ATOM     12  C   UNL     1     -15.901   5.754  22.886  0.00  0.00    +0.171 C 
ATOM     13  C   UNL     1     -14.824   7.004  21.163  0.00  0.00    +0.133 C 
ATOM     14  C   UNL     1     -15.309   4.792  23.889  0.00  0.00    +0.130 C 
ATOM     15  C   UNL     1     -14.895   7.820  22.438  0.00  0.00    +0.183 C 
ATOM     16  C   UNL     1     -13.843   4.764  23.499  0.00  0.00    +0.185 C 
ENDROOT
BRANCH  14   7
ATOM      7  N   UNL     1     -15.896   3.480  23.723  0.00  0.00    -0.306 N 
ATOM      8  N   UNL     1     -16.000   3.128  26.017  0.00  0.00    -0.214 NA
ATOM      9  N   UNL     1     -16.775   1.460  24.459  0.00  0.00    -0.223 NA
ATOM     17  C   UNL     1     -16.238   2.653  24.779  0.00  0.00    +0.216 A 
ATOM     21  C   UNL     1     -16.349   2.298  27.022  0.00  0.00    +0.076 A 
ATOM     22  C   UNL     1     -17.101   0.681  25.512  0.00  0.00    +0.116 A 
ATOM     25  C   UNL     1     -16.908   1.052  26.828  0.00  0.00    +0.048 A 
ATOM     37  H   UNL     1     -16.122   3.150  22.792  0.00  0.00    +0.149 HD
BRANCH  21  27
ATOM     27  C   UNL     1     -16.096   2.804  28.350  0.00  0.00    +0.001 A 
ATOM     29  C   UNL     1     -15.786   1.921  29.384  0.00  0.00    +0.012 A 
ATOM     30  C   UNL     1     -16.161   4.175  28.599  0.00  0.00    +0.012 A 
ATOM     31  C   UNL     1     -15.542   2.408  30.667  0.00  0.00    +0.024 A 
ATOM     32  C   UNL     1     -15.916   4.663  29.882  0.00  0.00    +0.024 A 
ATOM     33  C   UNL     1     -15.607   3.779  30.917  0.00  0.00    +0.029 A 
BRANCH  33  10
ATOM     10  N   UNL     1     -15.358   4.273  32.215  0.00  0.00    -0.336 N 
ATOM     34  C   UNL     1     -15.114   5.685  32.428  0.00  0.00    +0.129 C 
ATOM     35  C   UNL     1     -15.349   3.375  33.353  0.00  0.00    +0.129 C 
ENDBRANCH  33  10
ENDBRANCH  21  27
ENDBRANCH  14   7
BRANCH  13   6
ATOM      6  N   UNL     1     -15.941   7.385  20.265  0.00  0.00    -0.182 NA
ATOM     36  H   UNL     1     -16.618   6.656  20.011  0.00  0.00    +0.148 HD
BRANCH   6   1
ATOM      1  S   UNL     1     -15.865   8.837  19.389  0.00  0.00    +0.059 S 
ATOM      4  O   UNL     1     -16.268   9.939  20.241  0.00  0.00    -0.153 OA
ATOM      5  O   UNL     1     -16.505   8.640  18.102  0.00  0.00    -0.153 OA
BRANCH   1  18
ATOM     18  C   UNL     1     -14.131   8.989  19.085  0.00  0.00    +0.105 A 
ATOM     19  C   UNL     1     -13.509   8.148  18.162  0.00  0.00    +0.029 A 
ATOM     20  C   UNL     1     -13.384   9.950  19.767  0.00  0.00    +0.029 A 
ATOM     23  C   UNL     1     -12.140   8.267  17.922  0.00  0.00    +0.005 A 
ATOM     24  C   UNL     1     -12.016  10.068  19.527  0.00  0.00    +0.005 A 
ATOM     26  C   UNL     1     -11.393   9.227  18.605  0.00  0.00    -0.050 A 
ATOM     28  C   UNL     1      -9.929   9.354  18.348  0.00  0.00    +0.044 C 
ENDBRANCH   1  18
ENDBRANCH   6   1
ENDBRANCH  13   6
TORSDOF 6
ENDMDL
MODEL 8
REMARK VINA RESULT:      -6.9      5.576     12.414
REMARK  Name = 26763465
REMARK  9 active torsions:
REMARK  status: ('A' for Active; 'I' for Inactive)
REMARK    1  A    between atoms: S_1  and  N_6
REMARK    2  A    between atoms: S_1  and  C_18
REMARK    3  A    between atoms: N_6  and  C_13
REMARK    4  A    between atoms: N_7  and  C_14
REMARK    5  A    between atoms: N_10  and  C_33
REMARK    6  A    between atoms: N_10  and  C_34
REMARK    7  A    between atoms: N_10  and  C_35
REMARK    8  A    between atoms: C_21  and  C_27
REMARK    9  A    between atoms: C_26  and  C_28
REMARK                            x       y       z     vdW  Elec       q    Type
REMARK                         _______ _______ _______ _____ _____    ______ ____
ROOT
ATOM      2  O   UNL     1      -5.037 -11.653  10.651  0.00  0.00    -0.370 OA
ATOM      3  O   UNL     1      -3.486  -8.982  10.178  0.00  0.00    -0.370 OA
ATOM     11  C   UNL     1      -4.238  -9.504  11.286  0.00  0.00    +0.170 C 
ATOM     12  C   UNL     1      -5.415 -10.267  10.713  0.00  0.00    +0.171 C 
ATOM     13  C   UNL     1      -3.434 -10.555  12.013  0.00  0.00    +0.133 C 
ATOM     14  C   UNL     1      -5.577  -9.707   9.320  0.00  0.00    +0.130 C 
ATOM     15  C   UNL     1      -3.727 -11.810  11.217  0.00  0.00    +0.183 C 
ATOM     16  C   UNL     1      -4.159  -9.308   8.954  0.00  0.00    +0.185 C 
ENDROOT
BRANCH  14   7
ATOM      7  N   UNL     1      -6.432  -8.540   9.353  0.00  0.00    -0.306 N 
ATOM      8  N   UNL     1      -7.190  -8.915   7.189  0.00  0.00    -0.214 NA
ATOM      9  N   UNL     1      -7.971  -7.035   8.480  0.00  0.00    -0.223 NA
ATOM     17  C   UNL     1      -7.232  -8.146   8.294  0.00  0.00    +0.216 A 
ATOM     21  C   UNL     1      -7.984  -8.503   6.179  0.00  0.00    +0.076 A 
ATOM     22  C   UNL     1      -8.742  -6.681   7.431  0.00  0.00    +0.116 A 
ATOM     25  C   UNL     1      -8.790  -7.384   6.244  0.00  0.00    +0.048 A 
ATOM     37  H   UNL     1      -6.500  -7.997  10.205  0.00  0.00    +0.149 HD
BRANCH  21  27
ATOM     27  C   UNL     1      -7.943  -9.325   4.993  0.00  0.00    +0.001 A 
ATOM     29  C   UNL     1      -8.764  -9.021   3.907  0.00  0.00    +0.012 A 
ATOM     30  C   UNL     1      -7.081 -10.420   4.932  0.00  0.00    +0.012 A 
ATOM     31  C   UNL     1      -8.726  -9.814   2.761  0.00  0.00    +0.024 A 
ATOM     32  C   UNL     1      -7.042 -11.212   3.785  0.00  0.00    +0.024 A 
ATOM     33  C   UNL     1      -7.864 -10.910   2.699  0.00  0.00    +0.029 A 
BRANCH  33  10
ATOM     10  N   UNL     1      -7.822 -11.710   1.539  0.00  0.00    -0.336 N 
ATOM     34  C   UNL     1      -7.075 -12.952   1.531  0.00  0.00    +0.129 C 
ATOM     35  C   UNL     1      -8.533 -11.306   0.342  0.00  0.00    +0.129 C 
ENDBRANCH  33  10
ENDBRANCH  21  27
ENDBRANCH  14   7
BRANCH  13   6
ATOM      6  N   UNL     1      -3.950 -10.710  13.395  0.00  0.00    -0.182 NA
ATOM     36  H   UNL     1      -4.892 -10.354  13.594  0.00  0.00    +0.148 HD
BRANCH   6   1
ATOM      1  S   UNL     1      -2.881 -11.081  14.660  0.00  0.00    +0.059 S 
ATOM      4  O   UNL     1      -1.850 -10.064  14.738  0.00  0.00    -0.153 OA
ATOM      5  O   UNL     1      -2.517 -12.482  14.568  0.00  0.00    -0.153 OA
BRANCH   1  18
ATOM     18  C   UNL     1      -3.922 -10.911  16.079  0.00  0.00    +0.105 A 
ATOM     19  C   UNL     1      -5.108 -10.184  15.990  0.00  0.00    +0.029 A 
ATOM     20  C   UNL     1      -3.557 -11.505  17.288  0.00  0.00    +0.029 A 
ATOM     23  C   UNL     1      -5.930 -10.048  17.108  0.00  0.00    +0.005 A 
ATOM     24  C   UNL     1      -4.379 -11.370  18.406  0.00  0.00    +0.005 A 
ATOM     26  C   UNL     1      -5.565 -10.641  18.318  0.00  0.00    -0.050 A 
ATOM     28  C   UNL     1      -6.444 -10.497  19.514  0.00  0.00    +0.044 C 
ENDBRANCH   1  18
ENDBRANCH   6   1
ENDBRANCH  13   6
TORSDOF 6
ENDMDL
MODEL 9
REMARK VINA RESULT:      -6.8     17.454     20.152
REMARK  Name = 26763465
REMARK  9 active torsions:
REMARK  status: ('A' for Active; 'I' for Inactive)
REMARK    1  A    between atoms: S_1  and  N_6
REMARK    2  A    between atoms: S_1  and  C_18
REMARK    3  A    between atoms: N_6  and  C_13
REMARK    4  A    between atoms: N_7  and  C_14
REMARK    5  A    between atoms: N_10  and  C_33
REMARK    6  A    between atoms: N_10  and  C_34
REMARK    7  A    between atoms: N_10  and  C_35
REMARK    8  A    between atoms: C_21  and  C_27
REMARK    9  A    between atoms: C_26  and  C_28
REMARK                            x       y       z     vdW  Elec       q    Type
REMARK                         _______ _______ _______ _____ _____    ______ ____
ROOT
ATOM      2  O   UNL     1     -13.069   7.089  13.159  0.00  0.00    -0.370 OA
ATOM      3  O   UNL     1     -15.205   9.101  14.233  0.00  0.00    -0.370 OA
ATOM     11  C   UNL     1     -14.318   8.168  14.873  0.00  0.00    +0.170 C 
ATOM     12  C   UNL     1     -14.236   6.943  13.985  0.00  0.00    +0.171 C 
ATOM     13  C   UNL     1     -12.910   8.711  14.884  0.00  0.00    +0.133 C 
ATOM     14  C   UNL     1     -15.487   7.012  13.141  0.00  0.00    +0.130 C 
ATOM     15  C   UNL     1     -12.379   8.293  13.527  0.00  0.00    +0.183 C 
ATOM     16  C   UNL     1     -15.739   8.505  13.041  0.00  0.00    +0.185 C 
ENDROOT
BRANCH  14   7
ATOM      7  N   UNL     1     -16.583   6.364  13.826  0.00  0.00    -0.306 N 
ATOM      8  N   UNL     1     -16.529   4.538  12.390  0.00  0.00    -0.214 NA
ATOM      9  N   UNL     1     -18.125   4.666  14.193  0.00  0.00    -0.223 NA
ATOM     17  C   UNL     1     -17.102   5.136  13.453  0.00  0.00    +0.216 A 
ATOM     21  C   UNL     1     -17.058   3.343  12.057  0.00  0.00    +0.076 A 
ATOM     22  C   UNL     1     -18.604   3.465  13.804  0.00  0.00    +0.116 A 
ATOM     25  C   UNL     1     -18.105   2.751  12.734  0.00  0.00    +0.048 A 
ATOM     37  H   UNL     1     -16.974   6.793  14.657  0.00  0.00    +0.149 HD
BRANCH  21  27
ATOM     27  C   UNL     1     -16.446   2.698  10.919  0.00  0.00    +0.001 A 
ATOM     29  C   UNL     1     -15.505   3.385  10.152  0.00  0.00    +0.012 A 
ATOM     30  C   UNL     1     -16.795   1.389  10.588  0.00  0.00    +0.012 A 
ATOM     31  C   UNL     1     -14.914   2.763   9.053  0.00  0.00    +0.024 A 
ATOM     32  C   UNL     1     -16.203   0.766   9.490  0.00  0.00    +0.024 A 
ATOM     33  C   UNL     1     -15.262   1.453   8.721  0.00  0.00    +0.029 A 
BRANCH  33  10
ATOM     10  N   UNL     1     -14.662   0.823   7.612  0.00  0.00    -0.336 N 
ATOM     34  C   UNL     1     -14.913  -0.579   7.340  0.00  0.00    +0.129 C 
ATOM     35  C   UNL     1     -13.794   1.570   6.723  0.00  0.00    +0.129 C 
ENDBRANCH  33  10
ENDBRANCH  21  27
ENDBRANCH  14   7
BRANCH  13   6
ATOM      6  N   UNL     1     -12.127   8.044  15.952  0.00  0.00    -0.182 NA
ATOM     36  H   UNL     1     -12.186   7.022  16.019  0.00  0.00    +0.148 HD
BRANCH   6   1
ATOM      1  S   UNL     1     -11.500   8.959  17.238  0.00  0.00    +0.059 S 
ATOM      4  O   UNL     1     -12.033  10.306  17.178  0.00  0.00    -0.153 OA
ATOM      5  O   UNL     1     -10.067   8.745  17.309  0.00  0.00    -0.153 OA
BRANCH   1  18
ATOM     18  C   UNL     1     -12.212   8.152  18.640  0.00  0.00    +0.105 A 
ATOM     19  C   UNL     1     -11.388   7.571  19.603  0.00  0.00    +0.029 A 
ATOM     20  C   UNL     1     -13.599   8.097  18.784  0.00  0.00    +0.029 A 
ATOM     23  C   UNL     1     -11.949   6.933  20.709  0.00  0.00    +0.005 A 
ATOM     24  C   UNL     1     -14.160   7.460  19.890  0.00  0.00    +0.005 A 
ATOM     26  C   UNL     1     -13.336   6.878  20.853  0.00  0.00    -0.050 A 
ATOM     28  C   UNL     1     -13.936   6.196  22.036  0.00  0.00    +0.044 C 
ENDBRANCH   1  18
ENDBRANCH   6   1
ENDBRANCH  13   6
TORSDOF 6
ENDMDL
MODEL 10
REMARK VINA RESULT:      -6.8     28.587     32.701
REMARK  Name = 26763465
REMARK  9 active torsions:
REMARK  status: ('A' for Active; 'I' for Inactive)
REMARK    1  A    between atoms: S_1  and  N_6
REMARK    2  A    between atoms: S_1  and  C_18
REMARK    3  A    between atoms: N_6  and  C_13
REMARK    4  A    between atoms: N_7  and  C_14
REMARK    5  A    between atoms: N_10  and  C_33
REMARK    6  A    between atoms: N_10  and  C_34
REMARK    7  A    between atoms: N_10  and  C_35
REMARK    8  A    between atoms: C_21  and  C_27
REMARK    9  A    between atoms: C_26  and  C_28
REMARK                            x       y       z     vdW  Elec       q    Type
REMARK                         _______ _______ _______ _____ _____    ______ ____
ROOT
ATOM      2  O   UNL     1      15.335   8.654   3.593  0.00  0.00    -0.370 OA
ATOM      3  O   UNL     1      14.414  10.357   6.046  0.00  0.00    -0.370 OA
ATOM     11  C   UNL     1      15.252   9.197   5.908  0.00  0.00    +0.170 C 
ATOM     12  C   UNL     1      14.652   8.334   4.817  0.00  0.00    +0.171 C 
ATOM     13  C   UNL     1      16.604   9.593   5.365  0.00  0.00    +0.133 C 
ATOM     14  C   UNL     1      13.210   8.779   4.744  0.00  0.00    +0.130 C 
ATOM     15  C   UNL     1      16.371   9.608   3.868  0.00  0.00    +0.183 C 
ATOM     16  C   UNL     1      13.290  10.236   5.163  0.00  0.00    +0.185 C 
ENDROOT
BRANCH  14   7
ATOM      7  N   UNL     1      12.412   8.030   5.688  0.00  0.00    -0.306 N 
ATOM      8  N   UNL     1      11.752   6.502   4.067  0.00  0.00    -0.214 NA
ATOM      9  N   UNL     1      10.993   6.313   6.346  0.00  0.00    -0.223 NA
ATOM     17  C   UNL     1      11.687   6.899   5.352  0.00  0.00    +0.216 A 
ATOM     21  C   UNL     1      11.037   5.396   3.775  0.00  0.00    +0.076 A 
ATOM     22  C   UNL     1      10.301   5.212   5.986  0.00  0.00    +0.116 A 
ATOM     25  C   UNL     1      10.286   4.702   4.703  0.00  0.00    +0.048 A 
ATOM     37  H   UNL     1      12.409   8.302   6.664  0.00  0.00    +0.149 HD
BRANCH  21  27
ATOM     27  C   UNL     1      11.105   4.966   2.399  0.00  0.00    +0.001 A 
ATOM     29  C   UNL     1      10.103   5.338   1.503  0.00  0.00    +0.012 A 
ATOM     30  C   UNL     1      12.174   4.181   1.966  0.00  0.00    +0.012 A 
ATOM     31  C   UNL     1      10.168   4.924   0.173  0.00  0.00    +0.024 A 
ATOM     32  C   UNL     1      12.239   3.768   0.635  0.00  0.00    +0.024 A 
ATOM     33  C   UNL     1      11.237   4.138  -0.262  0.00  0.00    +0.029 A 
BRANCH  33  10
ATOM     10  N   UNL     1      11.304   3.721  -1.607  0.00  0.00    -0.336 N 
ATOM     34  C   UNL     1      12.137   2.597  -1.985  0.00  0.00    +0.129 C 
ATOM     35  C   UNL     1      10.535   4.406  -2.628  0.00  0.00    +0.129 C 
ENDBRANCH  33  10
ENDBRANCH  21  27
ENDBRANCH  14   7
BRANCH  13   6
ATOM      6  N   UNL     1      17.602   8.549   5.703  0.00  0.00    -0.182 NA
ATOM     36  H   UNL     1      17.251   7.616   5.950  0.00  0.00    +0.148 HD
BRANCH   6   1
ATOM      1  S   UNL     1      19.202   8.991   6.057  0.00  0.00    +0.059 S 
ATOM      4  O   UNL     1      19.585   8.435   7.342  0.00  0.00    -0.153 OA
ATOM      5  O   UNL     1      19.363  10.409   5.800  0.00  0.00    -0.153 OA
BRANCH   1  18
ATOM     18  C   UNL     1      20.104   8.133   4.802  0.00  0.00    +0.105 A 
ATOM     19  C   UNL     1      19.845   8.393   3.457  0.00  0.00    +0.029 A 
ATOM     20  C   UNL     1      21.075   7.196   5.158  0.00  0.00    +0.029 A 
ATOM     23  C   UNL     1      20.555   7.716   2.466  0.00  0.00    +0.005 A 
ATOM     24  C   UNL     1      21.785   6.519   4.166  0.00  0.00    +0.005 A 
ATOM     26  C   UNL     1      21.526   6.779   2.820  0.00  0.00    -0.050 A 
ATOM     28  C   UNL     1      22.286   6.055   1.761  0.00  0.00    +0.044 C 
ENDBRANCH   1  18
ENDBRANCH   6   1
ENDBRANCH  13   6
TORSDOF 6
ENDMDL
