MODEL 1
REMARK VINA RESULT:      -7.3      0.000      0.000
REMARK  Name = 51137146
REMARK  6 active torsions:
REMARK  status: ('A' for Active; 'I' for Inactive)
REMARK    1  A    between atoms: S_1  and  C_25
REMARK    2  A    between atoms: S_1  and  C_27
REMARK    3  A    between atoms: N_6  and  C_9
REMARK    4  A    between atoms: C_10  and  C_18
REMARK    5  A    between atoms: C_19  and  C_22
REMARK    6  A    between atoms: C_27  and  C_28
REMARK                            x       y       z     vdW  Elec       q    Type
REMARK                         _______ _______ _______ _____ _____    ______ ____
ROOT
ATOM      6  N   UNL     1      21.529   5.202  21.325  0.00  0.00    -0.299 NA
ATOM     10  C   UNL     1      19.843   6.685  20.648  0.00  0.00    +0.090 C 
ATOM     11  C   UNL     1      20.270   5.213  20.578  0.00  0.00    +0.097 C 
ATOM     12  C   UNL     1      21.280   6.040  22.498  0.00  0.00    +0.085 C 
ATOM     13  C   UNL     1      20.531   7.230  21.912  0.00  0.00    +0.029 C 
ENDROOT
BRANCH  10  18
ATOM      2  O   UNL     1      17.820   7.688  21.565  0.00  0.00    -0.439 OA
ATOM      8  N   UNL     1      17.475   6.332  19.783  0.00  0.00    -0.213 NA
ATOM     18  C   UNL     1      18.343   6.866  20.613  0.00  0.00    +0.201 A 
ATOM     20  C   UNL     1      16.272   6.838  20.214  0.00  0.00    +0.111 A 
ATOM     21  C   UNL     1      16.480   7.668  21.306  0.00  0.00    +0.155 A 
ATOM     23  C   UNL     1      14.964   6.649  19.745  0.00  0.00    +0.058 A 
ATOM     24  C   UNL     1      15.476   8.344  21.988  0.00  0.00    +0.050 A 
ATOM     25  C   UNL     1      13.924   7.315  20.409  0.00  0.00    +0.090 A 
ATOM     26  C   UNL     1      14.177   8.146  21.508  0.00  0.00    +0.030 A 
BRANCH  25   1
ATOM      1  S   UNL     1      12.280   7.105  19.850  0.00  0.00    -0.003 S 
ATOM      4  O   UNL     1      12.290   6.983  18.401  0.00  0.00    -0.169 OA
ATOM      5  O   UNL     1      11.662   6.067  20.661  0.00  0.00    -0.169 OA
BRANCH   1  27
ATOM     27  C   UNL     1      11.485   8.649  20.235  0.00  0.00    +0.168 C 
ATOM     28  C   UNL     1      10.640   8.542  21.485  0.00  0.00    +0.028 C 
ENDBRANCH   1  27
ENDBRANCH  25   1
ENDBRANCH  10  18
BRANCH   6   9
ATOM      3  O   UNL     1      25.447   1.600  24.404  0.00  0.00    -0.276 OA
ATOM      7  N   UNL     1      23.980   2.026  22.654  0.00  0.00    -0.302 N 
ATOM      9  C   UNL     1      21.953   3.852  21.685  0.00  0.00    +0.060 C 
ATOM     14  C   UNL     1      23.129   3.415  20.801  0.00  0.00    +0.038 C 
ATOM     15  C   UNL     1      22.347   3.800  23.167  0.00  0.00    +0.038 C 
ATOM     16  C   UNL     1      23.650   2.042  21.223  0.00  0.00    +0.109 C 
ATOM     17  C   UNL     1      22.884   2.420  23.541  0.00  0.00    +0.109 C 
ATOM     19  C   UNL     1      25.205   1.639  23.195  0.00  0.00    +0.212 C 
ATOM     22  C   UNL     1      26.285   1.252  22.216  0.00  0.00    +0.109 C 
ENDBRANCH   6   9
TORSDOF 4
ENDMDL
MODEL 2
REMARK VINA RESULT:      -7.2      3.892     10.541
REMARK  Name = 51137146
REMARK  6 active torsions:
REMARK  status: ('A' for Active; 'I' for Inactive)
REMARK    1  A    between atoms: S_1  and  C_25
REMARK    2  A    between atoms: S_1  and  C_27
REMARK    3  A    between atoms: N_6  and  C_9
REMARK    4  A    between atoms: C_10  and  C_18
REMARK    5  A    between atoms: C_19  and  C_22
REMARK    6  A    between atoms: C_27  and  C_28
REMARK                            x       y       z     vdW  Elec       q    Type
REMARK                         _______ _______ _______ _____ _____    ______ ____
ROOT
ATOM      6  N   UNL     1      12.170   8.747  19.991  0.00  0.00    -0.299 NA
ATOM     10  C   UNL     1      14.086   7.572  19.318  0.00  0.00    +0.090 C 
ATOM     11  C   UNL     1      13.611   8.943  19.820  0.00  0.00    +0.097 C 
ATOM     12  C   UNL     1      12.040   7.433  20.622  0.00  0.00    +0.085 C 
ATOM     13  C   UNL     1      13.030   6.581  19.838  0.00  0.00    +0.029 C 
ENDROOT
BRANCH  10  18
ATOM      2  O   UNL     1      16.086   8.130  20.593  0.00  0.00    -0.439 OA
ATOM      8  N   UNL     1      16.261   6.249  19.342  0.00  0.00    -0.213 NA
ATOM     18  C   UNL     1      15.508   7.257  19.723  0.00  0.00    +0.201 A 
ATOM     20  C   UNL     1      17.441   6.465  20.013  0.00  0.00    +0.111 A 
ATOM     21  C   UNL     1      17.337   7.616  20.780  0.00  0.00    +0.155 A 
ATOM     23  C   UNL     1      18.643   5.743  20.032  0.00  0.00    +0.058 A 
ATOM     24  C   UNL     1      18.349   8.124  21.585  0.00  0.00    +0.050 A 
ATOM     25  C   UNL     1      19.688   6.226  20.833  0.00  0.00    +0.090 A 
ATOM     26  C   UNL     1      19.542   7.393  21.593  0.00  0.00    +0.030 A 
BRANCH  25   1
ATOM      1  S   UNL     1      21.201   5.350  20.884  0.00  0.00    -0.003 S 
ATOM      4  O   UNL     1      20.942   3.949  20.591  0.00  0.00    -0.169 OA
ATOM      5  O   UNL     1      22.170   6.089  20.089  0.00  0.00    -0.169 OA
BRANCH   1  27
ATOM     27  C   UNL     1      21.704   5.441  22.587  0.00  0.00    +0.168 C 
ATOM     28  C   UNL     1      22.980   6.236  22.747  0.00  0.00    +0.028 C 
ENDBRANCH   1  27
ENDBRANCH  25   1
ENDBRANCH  10  18
BRANCH   6   9
ATOM      3  O   UNL     1      12.895  13.561  23.747  0.00  0.00    -0.276 OA
ATOM      7  N   UNL     1      11.690  11.754  22.921  0.00  0.00    -0.302 N 
ATOM      9  C   UNL     1      11.553   9.808  20.782  0.00  0.00    +0.060 C 
ATOM     14  C   UNL     1      11.473   9.389  22.256  0.00  0.00    +0.038 C 
ATOM     15  C   UNL     1      12.355  11.108  20.636  0.00  0.00    +0.038 C 
ATOM     16  C   UNL     1      10.917  10.522  23.118  0.00  0.00    +0.109 C 
ATOM     17  C   UNL     1      11.781  12.206  21.531  0.00  0.00    +0.109 C 
ATOM     19  C   UNL     1      12.280  12.508  23.934  0.00  0.00    +0.212 C 
ATOM     22  C   UNL     1      12.145  11.974  25.338  0.00  0.00    +0.109 C 
ENDBRANCH   6   9
TORSDOF 4
ENDMDL
MODEL 3
REMARK VINA RESULT:      -7.0     28.797     32.633
REMARK  Name = 51137146
REMARK  6 active torsions:
REMARK  status: ('A' for Active; 'I' for Inactive)
REMARK    1  A    between atoms: S_1  and  C_25
REMARK    2  A    between atoms: S_1  and  C_27
REMARK    3  A    between atoms: N_6  and  C_9
REMARK    4  A    between atoms: C_10  and  C_18
REMARK    5  A    between atoms: C_19  and  C_22
REMARK    6  A    between atoms: C_27  and  C_28
REMARK                            x       y       z     vdW  Elec       q    Type
REMARK                         _______ _______ _______ _____ _____    ______ ____
ROOT
ATOM      6  N   UNL     1     -11.526  -8.159  16.015  0.00  0.00    -0.299 NA
ATOM     10  C   UNL     1      -9.589  -9.330  16.631  0.00  0.00    +0.090 C 
ATOM     11  C   UNL     1     -10.560  -9.110  15.462  0.00  0.00    +0.097 C 
ATOM     12  C   UNL     1     -10.718  -7.182  16.744  0.00  0.00    +0.085 C 
ATOM     13  C   UNL     1      -9.714  -8.056  17.484  0.00  0.00    +0.029 C 
ENDROOT
BRANCH  10  18
ATOM      2  O   UNL     1      -7.248  -9.747  17.160  0.00  0.00    -0.439 OA
ATOM      8  N   UNL     1      -7.749  -9.863  14.954  0.00  0.00    -0.213 NA
ATOM     18  C   UNL     1      -8.185  -9.656  16.176  0.00  0.00    +0.201 A 
ATOM     20  C   UNL     1      -6.410 -10.113  15.133  0.00  0.00    +0.111 A 
ATOM     21  C   UNL     1      -6.099 -10.042  16.483  0.00  0.00    +0.155 A 
ATOM     23  C   UNL     1      -5.390 -10.407  14.216  0.00  0.00    +0.058 A 
ATOM     24  C   UNL     1      -4.832 -10.243  17.014  0.00  0.00    +0.050 A 
ATOM     25  C   UNL     1      -4.096 -10.616  14.716  0.00  0.00    +0.090 A 
ATOM     26  C   UNL     1      -3.825 -10.536  16.088  0.00  0.00    +0.030 A 
BRANCH  25   1
ATOM      1  S   UNL     1      -2.799 -10.987  13.603  0.00  0.00    -0.003 S 
ATOM      4  O   UNL     1      -1.723 -10.029  13.802  0.00  0.00    -0.169 OA
ATOM      5  O   UNL     1      -2.526 -12.413  13.696  0.00  0.00    -0.169 OA
BRANCH   1  27
ATOM     27  C   UNL     1      -3.493 -10.664  11.998  0.00  0.00    +0.168 C 
ATOM     28  C   UNL     1      -2.522  -9.911  11.116  0.00  0.00    +0.028 C 
ENDBRANCH   1  27
ENDBRANCH  25   1
ENDBRANCH  10  18
BRANCH   6   9
ATOM      3  O   UNL     1     -11.822  -5.285  10.588  0.00  0.00    -0.276 OA
ATOM      7  N   UNL     1     -12.628  -5.761  12.714  0.00  0.00    -0.302 N 
ATOM      9  C   UNL     1     -12.351  -7.539  14.982  0.00  0.00    +0.060 C 
ATOM     14  C   UNL     1     -12.352  -6.014  15.152  0.00  0.00    +0.038 C 
ATOM     15  C   UNL     1     -11.831  -7.923  13.591  0.00  0.00    +0.038 C 
ATOM     16  C   UNL     1     -13.133  -5.338  14.026  0.00  0.00    +0.109 C 
ATOM     17  C   UNL     1     -12.622  -7.209  12.496  0.00  0.00    +0.109 C 
ATOM     19  C   UNL     1     -12.209  -4.906  11.696  0.00  0.00    +0.212 C 
ATOM     22  C   UNL     1     -12.241  -3.428  11.999  0.00  0.00    +0.109 C 
ENDBRANCH   6   9
TORSDOF 4
ENDMDL
MODEL 4
REMARK VINA RESULT:      -7.0     29.004     32.082
REMARK  Name = 51137146
REMARK  6 active torsions:
REMARK  status: ('A' for Active; 'I' for Inactive)
REMARK    1  A    between atoms: S_1  and  C_25
REMARK    2  A    between atoms: S_1  and  C_27
REMARK    3  A    between atoms: N_6  and  C_9
REMARK    4  A    between atoms: C_10  and  C_18
REMARK    5  A    between atoms: C_19  and  C_22
REMARK    6  A    between atoms: C_27  and  C_28
REMARK                            x       y       z     vdW  Elec       q    Type
REMARK                         _______ _______ _______ _____ _____    ______ ____
ROOT
ATOM      6  N   UNL     1      -8.268  -9.954  17.696  0.00  0.00    -0.299 NA
ATOM     10  C   UNL     1      -9.819  -8.199  17.575  0.00  0.00    +0.090 C 
ATOM     11  C   UNL     1      -8.569  -8.768  16.891  0.00  0.00    +0.097 C 
ATOM     12  C   UNL     1      -9.565 -10.589  17.932  0.00  0.00    +0.085 C 
ATOM     13  C   UNL     1     -10.463  -9.408  18.277  0.00  0.00    +0.029 C 
ENDROOT
BRANCH  10  18
ATOM      2  O   UNL     1     -12.047  -7.796  16.674  0.00  0.00    -0.439 OA
ATOM      8  N   UNL     1     -10.412  -6.536  15.741  0.00  0.00    -0.213 NA
ATOM     18  C   UNL     1     -10.728  -7.460  16.620  0.00  0.00    +0.201 A 
ATOM     20  C   UNL     1     -11.617  -6.226  15.159  0.00  0.00    +0.111 A 
ATOM     21  C   UNL     1     -12.621  -6.997  15.728  0.00  0.00    +0.155 A 
ATOM     23  C   UNL     1     -11.953  -5.313  14.148  0.00  0.00    +0.058 A 
ATOM     24  C   UNL     1     -13.962  -6.936  15.371  0.00  0.00    +0.050 A 
ATOM     25  C   UNL     1     -13.298  -5.224  13.762  0.00  0.00    +0.090 A 
ATOM     26  C   UNL     1     -14.281  -6.020  14.363  0.00  0.00    +0.030 A 
BRANCH  25   1
ATOM      1  S   UNL     1     -13.754  -4.095  12.507  0.00  0.00    -0.003 S 
ATOM      4  O   UNL     1     -14.308  -4.838  11.386  0.00  0.00    -0.169 OA
ATOM      5  O   UNL     1     -14.530  -3.031  13.126  0.00  0.00    -0.169 OA
BRANCH   1  27
ATOM     27  C   UNL     1     -12.211  -3.402  11.958  0.00  0.00    +0.168 C 
ATOM     28  C   UNL     1     -11.960  -3.696  10.496  0.00  0.00    +0.028 C 
ENDBRANCH   1  27
ENDBRANCH  25   1
ENDBRANCH  10  18
BRANCH   6   9
ATOM      3  O   UNL     1      -2.504 -11.015  15.837  0.00  0.00    -0.276 OA
ATOM      7  N   UNL     1      -4.805 -11.288  15.673  0.00  0.00    -0.302 N 
ATOM      9  C   UNL     1      -7.321 -10.850  17.037  0.00  0.00    +0.060 C 
ATOM     14  C   UNL     1      -7.111 -10.416  15.580  0.00  0.00    +0.038 C 
ATOM     15  C   UNL     1      -5.986 -10.855  17.794  0.00  0.00    +0.038 C 
ATOM     16  C   UNL     1      -6.052 -11.281  14.898  0.00  0.00    +0.109 C 
ATOM     17  C   UNL     1      -4.951 -11.712  17.067  0.00  0.00    +0.109 C 
ATOM     19  C   UNL     1      -3.544 -10.968  15.175  0.00  0.00    +0.212 C 
ATOM     22  C   UNL     1      -3.477 -10.536  13.731  0.00  0.00    +0.109 C 
ENDBRANCH   6   9
TORSDOF 4
ENDMDL
MODEL 5
REMARK VINA RESULT:      -6.9     30.444     34.228
REMARK  Name = 51137146
REMARK  6 active torsions:
REMARK  status: ('A' for Active; 'I' for Inactive)
REMARK    1  A    between atoms: S_1  and  C_25
REMARK    2  A    between atoms: S_1  and  C_27
REMARK    3  A    between atoms: N_6  and  C_9
REMARK    4  A    between atoms: C_10  and  C_18
REMARK    5  A    between atoms: C_19  and  C_22
REMARK    6  A    between atoms: C_27  and  C_28
REMARK                            x       y       z     vdW  Elec       q    Type
REMARK                         _______ _______ _______ _____ _____    ______ ____
ROOT
ATOM      6  N   UNL     1     -14.249   6.623  21.171  0.00  0.00    -0.299 NA
ATOM     10  C   UNL     1     -15.508   4.864  22.076  0.00  0.00    +0.090 C 
ATOM     11  C   UNL     1     -14.084   5.430  22.004  0.00  0.00    +0.097 C 
ATOM     12  C   UNL     1     -15.475   7.256  21.657  0.00  0.00    +0.085 C 
ATOM     13  C   UNL     1     -16.422   6.076  21.827  0.00  0.00    +0.029 C 
ENDROOT
BRANCH  10  18
ATOM      2  O   UNL     1     -16.341   2.882  23.224  0.00  0.00    -0.439 OA
ATOM      8  N   UNL     1     -15.546   4.501  24.596  0.00  0.00    -0.213 NA
ATOM     18  C   UNL     1     -15.780   4.115  23.361  0.00  0.00    +0.201 A 
ATOM     20  C   UNL     1     -15.987   3.438  25.348  0.00  0.00    +0.111 A 
ATOM     21  C   UNL     1     -16.475   2.446  24.510  0.00  0.00    +0.155 A 
ATOM     23  C   UNL     1     -16.012   3.230  26.734  0.00  0.00    +0.058 A 
ATOM     24  C   UNL     1     -16.998   1.233  24.943  0.00  0.00    +0.050 A 
ATOM     25  C   UNL     1     -16.534   2.017  27.208  0.00  0.00    +0.090 A 
ATOM     26  C   UNL     1     -17.017   1.040  26.328  0.00  0.00    +0.030 A 
BRANCH  25   1
ATOM      1  S   UNL     1     -16.580   1.721  28.931  0.00  0.00    -0.003 S 
ATOM      4  O   UNL     1     -17.556   2.615  29.535  0.00  0.00    -0.169 OA
ATOM      5  O   UNL     1     -16.690   0.284  29.134  0.00  0.00    -0.169 OA
BRANCH   1  27
ATOM     27  C   UNL     1     -14.978   2.235  29.507  0.00  0.00    +0.168 C 
ATOM     28  C   UNL     1     -14.200   1.077  30.090  0.00  0.00    +0.028 C 
ENDBRANCH   1  27
ENDBRANCH  25   1
ENDBRANCH  10  18
BRANCH   6   9
ATOM      3  O   UNL     1     -11.517  11.789  19.259  0.00  0.00    -0.276 OA
ATOM      7  N   UNL     1     -11.472   9.621  20.093  0.00  0.00    -0.302 N 
ATOM      9  C   UNL     1     -13.096   7.516  21.240  0.00  0.00    +0.060 C 
ATOM     14  C   UNL     1     -12.151   7.250  20.061  0.00  0.00    +0.038 C 
ATOM     15  C   UNL     1     -13.560   8.979  21.236  0.00  0.00    +0.038 C 
ATOM     16  C   UNL     1     -10.984   8.237  20.060  0.00  0.00    +0.109 C 
ATOM     17  C   UNL     1     -12.365   9.930  21.212  0.00  0.00    +0.109 C 
ATOM     19  C   UNL     1     -11.121  10.622  19.190  0.00  0.00    +0.212 C 
ATOM     22  C   UNL     1     -10.200  10.224  18.063  0.00  0.00    +0.109 C 
ENDBRANCH   6   9
TORSDOF 4
ENDMDL
MODEL 6
REMARK VINA RESULT:      -6.9     31.722     34.277
REMARK  Name = 51137146
REMARK  6 active torsions:
REMARK  status: ('A' for Active; 'I' for Inactive)
REMARK    1  A    between atoms: S_1  and  C_25
REMARK    2  A    between atoms: S_1  and  C_27
REMARK    3  A    between atoms: N_6  and  C_9
REMARK    4  A    between atoms: C_10  and  C_18
REMARK    5  A    between atoms: C_19  and  C_22
REMARK    6  A    between atoms: C_27  and  C_28
REMARK                            x       y       z     vdW  Elec       q    Type
REMARK                         _______ _______ _______ _____ _____    ______ ____
ROOT
ATOM      6  N   UNL     1     -17.484   2.988  26.187  0.00  0.00    -0.299 NA
ATOM     10  C   UNL     1     -17.101   4.151  24.186  0.00  0.00    +0.090 C 
ATOM     11  C   UNL     1     -16.979   4.278  25.711  0.00  0.00    +0.097 C 
ATOM     12  C   UNL     1     -16.893   1.996  25.289  0.00  0.00    +0.085 C 
ATOM     13  C   UNL     1     -17.061   2.636  23.917  0.00  0.00    +0.029 C 
ENDROOT
BRANCH  10  18
ATOM      2  O   UNL     1     -14.887   4.315  23.182  0.00  0.00    -0.439 OA
ATOM      8  N   UNL     1     -16.137   6.197  23.017  0.00  0.00    -0.213 NA
ATOM     18  C   UNL     1     -16.059   4.956  23.443  0.00  0.00    +0.201 A 
ATOM     20  C   UNL     1     -14.916   6.404  22.421  0.00  0.00    +0.111 A 
ATOM     21  C   UNL     1     -14.148   5.253  22.521  0.00  0.00    +0.155 A 
ATOM     23  C   UNL     1     -14.377   7.526  21.776  0.00  0.00    +0.058 A 
ATOM     24  C   UNL     1     -12.858   5.117  22.021  0.00  0.00    +0.050 A 
ATOM     25  C   UNL     1     -13.076   7.427  21.259  0.00  0.00    +0.090 A 
ATOM     26  C   UNL     1     -12.334   6.245  21.380  0.00  0.00    +0.030 A 
BRANCH  25   1
ATOM      1  S   UNL     1     -12.372   8.805  20.446  0.00  0.00    -0.003 S 
ATOM      4  O   UNL     1     -12.645  10.001  21.228  0.00  0.00    -0.169 OA
ATOM      5  O   UNL     1     -11.001   8.465  20.097  0.00  0.00    -0.169 OA
BRANCH   1  27
ATOM     27  C   UNL     1     -13.302   8.948  18.937  0.00  0.00    +0.168 C 
ATOM     28  C   UNL     1     -12.622   8.226  17.795  0.00  0.00    +0.028 C 
ENDBRANCH   1  27
ENDBRANCH  25   1
ENDBRANCH  10  18
BRANCH   6   9
ATOM      3  O   UNL     1     -13.160   2.606  30.541  0.00  0.00    -0.276 OA
ATOM      7  N   UNL     1     -15.220   2.041  29.627  0.00  0.00    -0.302 N 
ATOM      9  C   UNL     1     -17.151   2.741  27.587  0.00  0.00    +0.060 C 
ATOM     14  C   UNL     1     -16.658   1.299  27.765  0.00  0.00    +0.038 C 
ATOM     15  C   UNL     1     -16.082   3.736  28.058  0.00  0.00    +0.038 C 
ATOM     16  C   UNL     1     -16.214   1.046  29.205  0.00  0.00    +0.109 C 
ATOM     17  C   UNL     1     -15.650   3.434  29.492  0.00  0.00    +0.109 C 
ATOM     19  C   UNL     1     -13.965   1.752  30.160  0.00  0.00    +0.212 C 
ATOM     22  C   UNL     1     -13.594   0.293  30.263  0.00  0.00    +0.109 C 
ENDBRANCH   6   9
TORSDOF 4
ENDMDL
MODEL 7
REMARK VINA RESULT:      -6.8     27.745     31.820
REMARK  Name = 51137146
REMARK  6 active torsions:
REMARK  status: ('A' for Active; 'I' for Inactive)
REMARK    1  A    between atoms: S_1  and  C_25
REMARK    2  A    between atoms: S_1  and  C_27
REMARK    3  A    between atoms: N_6  and  C_9
REMARK    4  A    between atoms: C_10  and  C_18
REMARK    5  A    between atoms: C_19  and  C_22
REMARK    6  A    between atoms: C_27  and  C_28
REMARK                            x       y       z     vdW  Elec       q    Type
REMARK                         _______ _______ _______ _____ _____    ______ ____
ROOT
ATOM      6  N   UNL     1      -7.442 -12.128  19.692  0.00  0.00    -0.299 NA
ATOM     10  C   UNL     1      -5.392 -11.621  18.674  0.00  0.00    +0.090 C 
ATOM     11  C   UNL     1      -6.591 -12.576  18.588  0.00  0.00    +0.097 C 
ATOM     12  C   UNL     1      -7.414 -10.667  19.622  0.00  0.00    +0.085 C 
ATOM     13  C   UNL     1      -5.942 -10.367  19.376  0.00  0.00    +0.029 C 
ENDROOT
BRANCH  10  18
ATOM      2  O   UNL     1      -3.422 -11.047  17.359  0.00  0.00    -0.439 OA
ATOM      8  N   UNL     1      -5.296 -11.411  16.138  0.00  0.00    -0.213 NA
ATOM     18  C   UNL     1      -4.745 -11.366  17.331  0.00  0.00    +0.201 A 
ATOM     20  C   UNL     1      -4.255 -11.096  15.298  0.00  0.00    +0.111 A 
ATOM     21  C   UNL     1      -3.106 -10.872  16.042  0.00  0.00    +0.155 A 
ATOM     23  C   UNL     1      -4.192 -10.978  13.901  0.00  0.00    +0.058 A 
ATOM     24  C   UNL     1      -1.870 -10.533  15.506  0.00  0.00    +0.050 A 
ATOM     25  C   UNL     1      -2.960 -10.636  13.324  0.00  0.00    +0.090 A 
ATOM     26  C   UNL     1      -1.824 -10.419  14.112  0.00  0.00    +0.030 A 
BRANCH  25   1
ATOM      1  S   UNL     1      -2.844 -10.481  11.586  0.00  0.00    -0.003 S 
ATOM      4  O   UNL     1      -1.687  -9.661  11.265  0.00  0.00    -0.169 OA
ATOM      5  O   UNL     1      -2.972 -11.812  11.011  0.00  0.00    -0.169 OA
BRANCH   1  27
ATOM     27  C   UNL     1      -4.287  -9.546  11.131  0.00  0.00    +0.168 C 
ATOM     28  C   UNL     1      -4.085  -8.818   9.821  0.00  0.00    +0.028 C 
ENDBRANCH   1  27
ENDBRANCH  25   1
ENDBRANCH  10  18
BRANCH   6   9
ATOM      3  O   UNL     1     -13.103 -12.449  22.072  0.00  0.00    -0.276 OA
ATOM      7  N   UNL     1     -11.332 -13.315  20.843  0.00  0.00    -0.302 N 
ATOM      9  C   UNL     1      -8.798 -12.664  19.603  0.00  0.00    +0.060 C 
ATOM     14  C   UNL     1      -8.949 -13.874  20.534  0.00  0.00    +0.038 C 
ATOM     15  C   UNL     1      -9.819 -11.577  19.964  0.00  0.00    +0.038 C 
ATOM     16  C   UNL     1     -10.387 -14.393  20.528  0.00  0.00    +0.109 C 
ATOM     17  C   UNL     1     -11.239 -12.143  19.970  0.00  0.00    +0.109 C 
ATOM     19  C   UNL     1     -12.295 -13.354  21.850  0.00  0.00    +0.212 C 
ATOM     22  C   UNL     1     -12.325 -14.594  22.708  0.00  0.00    +0.109 C 
ENDBRANCH   6   9
TORSDOF 4
ENDMDL
MODEL 8
REMARK VINA RESULT:      -6.7      1.734      2.251
REMARK  Name = 51137146
REMARK  6 active torsions:
REMARK  status: ('A' for Active; 'I' for Inactive)
REMARK    1  A    between atoms: S_1  and  C_25
REMARK    2  A    between atoms: S_1  and  C_27
REMARK    3  A    between atoms: N_6  and  C_9
REMARK    4  A    between atoms: C_10  and  C_18
REMARK    5  A    between atoms: C_19  and  C_22
REMARK    6  A    between atoms: C_27  and  C_28
REMARK                            x       y       z     vdW  Elec       q    Type
REMARK                         _______ _______ _______ _____ _____    ______ ____
ROOT
ATOM      6  N   UNL     1      20.985   7.005  22.320  0.00  0.00    -0.299 NA
ATOM     10  C   UNL     1      19.229   8.261  21.404  0.00  0.00    +0.090 C 
ATOM     11  C   UNL     1      19.836   6.851  21.426  0.00  0.00    +0.097 C 
ATOM     12  C   UNL     1      20.492   7.819  23.431  0.00  0.00    +0.085 C 
ATOM     13  C   UNL     1      19.684   8.900  22.728  0.00  0.00    +0.029 C 
ENDROOT
BRANCH  10  18
ATOM      2  O   UNL     1      17.227   7.145  20.577  0.00  0.00    -0.439 OA
ATOM      8  N   UNL     1      16.857   9.183  21.495  0.00  0.00    -0.213 NA
ATOM     18  C   UNL     1      17.734   8.255  21.182  0.00  0.00    +0.201 A 
ATOM     20  C   UNL     1      15.665   8.651  21.065  0.00  0.00    +0.111 A 
ATOM     21  C   UNL     1      15.888   7.403  20.502  0.00  0.00    +0.155 A 
ATOM     23  C   UNL     1      14.356   9.151  21.111  0.00  0.00    +0.058 A 
ATOM     24  C   UNL     1      14.898   6.588  19.968  0.00  0.00    +0.050 A 
ATOM     25  C   UNL     1      13.329   8.356  20.580  0.00  0.00    +0.090 A 
ATOM     26  C   UNL     1      13.597   7.101  20.021  0.00  0.00    +0.030 A 
BRANCH  25   1
ATOM      1  S   UNL     1      11.683   8.946  20.621  0.00  0.00    -0.003 S 
ATOM      4  O   UNL     1      11.705  10.399  20.555  0.00  0.00    -0.169 OA
ATOM      5  O   UNL     1      10.913   8.187  19.648  0.00  0.00    -0.169 OA
BRANCH   1  27
ATOM     27  C   UNL     1      11.101   8.509  22.244  0.00  0.00    +0.168 C 
ATOM     28  C   UNL     1      10.936   9.730  23.121  0.00  0.00    +0.028 C 
ENDBRANCH   1  27
ENDBRANCH  25   1
ENDBRANCH  10  18
BRANCH   6   9
ATOM      3  O   UNL     1      25.677   3.031  22.355  0.00  0.00    -0.276 OA
ATOM      7  N   UNL     1      23.416   3.551  22.476  0.00  0.00    -0.302 N 
ATOM      9  C   UNL     1      21.521   5.721  22.765  0.00  0.00    +0.060 C 
ATOM     14  C   UNL     1      21.383   4.677  21.649  0.00  0.00    +0.038 C 
ATOM     15  C   UNL     1      22.992   5.877  23.174  0.00  0.00    +0.038 C 
ATOM     16  C   UNL     1      22.023   3.351  22.057  0.00  0.00    +0.109 C 
ATOM     17  C   UNL     1      23.599   4.527  23.551  0.00  0.00    +0.109 C 
ATOM     19  C   UNL     1      24.519   2.871  21.962  0.00  0.00    +0.212 C 
ATOM     22  C   UNL     1      24.248   1.884  20.853  0.00  0.00    +0.109 C 
ENDBRANCH   6   9
TORSDOF 4
ENDMDL
MODEL 9
REMARK VINA RESULT:      -6.7     31.062     33.650
REMARK  Name = 51137146
REMARK  6 active torsions:
REMARK  status: ('A' for Active; 'I' for Inactive)
REMARK    1  A    between atoms: S_1  and  C_25
REMARK    2  A    between atoms: S_1  and  C_27
REMARK    3  A    between atoms: N_6  and  C_9
REMARK    4  A    between atoms: C_10  and  C_18
REMARK    5  A    between atoms: C_19  and  C_22
REMARK    6  A    between atoms: C_27  and  C_28
REMARK                            x       y       z     vdW  Elec       q    Type
REMARK                         _______ _______ _______ _____ _____    ______ ____
ROOT
ATOM      6  N   UNL     1     -12.110   8.714  19.203  0.00  0.00    -0.299 NA
ATOM     10  C   UNL     1     -13.097   7.663  21.053  0.00  0.00    +0.090 C 
ATOM     11  C   UNL     1     -13.432   8.396  19.747  0.00  0.00    +0.097 C 
ATOM     12  C   UNL     1     -11.317   7.502  19.408  0.00  0.00    +0.085 C 
ATOM     13  C   UNL     1     -11.687   7.090  20.827  0.00  0.00    +0.029 C 
ENDROOT
BRANCH  10  18
ATOM      2  O   UNL     1     -15.265   6.619  20.670  0.00  0.00    -0.439 OA
ATOM      8  N   UNL     1     -14.113   5.776  22.428  0.00  0.00    -0.213 NA
ATOM     18  C   UNL     1     -14.144   6.643  21.441  0.00  0.00    +0.201 A 
ATOM     20  C   UNL     1     -15.312   5.117  22.308  0.00  0.00    +0.111 A 
ATOM     21  C   UNL     1     -16.021   5.631  21.232  0.00  0.00    +0.155 A 
ATOM     23  C   UNL     1     -15.880   4.078  23.060  0.00  0.00    +0.058 A 
ATOM     24  C   UNL     1     -17.275   5.191  20.829  0.00  0.00    +0.050 A 
ATOM     25  C   UNL     1     -17.146   3.607  22.683  0.00  0.00    +0.090 A 
ATOM     26  C   UNL     1     -17.828   4.154  21.589  0.00  0.00    +0.030 A 
BRANCH  25   1
ATOM      1  S   UNL     1     -17.884   2.311  23.596  0.00  0.00    -0.003 S 
ATOM      4  O   UNL     1     -19.306   2.585  23.734  0.00  0.00    -0.169 OA
ATOM      5  O   UNL     1     -17.441   1.051  23.019  0.00  0.00    -0.169 OA
BRANCH   1  27
ATOM     27  C   UNL     1     -17.168   2.454  25.218  0.00  0.00    +0.168 C 
ATOM     28  C   UNL     1     -16.722   1.110  25.747  0.00  0.00    +0.028 C 
ENDBRANCH   1  27
ENDBRANCH  25   1
ENDBRANCH  10  18
BRANCH   6   9
ATOM      3  O   UNL     1     -12.604   7.032  13.310  0.00  0.00    -0.276 OA
ATOM      7  N   UNL     1     -11.890   8.469  14.990  0.00  0.00    -0.302 N 
ATOM      9  C   UNL     1     -12.166   9.112  17.799  0.00  0.00    +0.060 C 
ATOM     14  C   UNL     1     -10.788   8.938  17.146  0.00  0.00    +0.038 C 
ATOM     15  C   UNL     1     -13.221   8.281  17.057  0.00  0.00    +0.038 C 
ATOM     16  C   UNL     1     -10.845   9.259  15.653  0.00  0.00    +0.109 C 
ATOM     17  C   UNL     1     -13.228   8.615  15.566  0.00  0.00    +0.109 C 
ATOM     19  C   UNL     1     -11.702   7.659  13.872  0.00  0.00    +0.212 C 
ATOM     22  C   UNL     1     -10.294   7.558  13.340  0.00  0.00    +0.109 C 
ENDBRANCH   6   9
TORSDOF 4
ENDMDL
MODEL 10
REMARK VINA RESULT:      -6.6     28.134     31.298
REMARK  Name = 51137146
REMARK  6 active torsions:
REMARK  status: ('A' for Active; 'I' for Inactive)
REMARK    1  A    between atoms: S_1  and  C_25
REMARK    2  A    between atoms: S_1  and  C_27
REMARK    3  A    between atoms: N_6  and  C_9
REMARK    4  A    between atoms: C_10  and  C_18
REMARK    5  A    between atoms: C_19  and  C_22
REMARK    6  A    between atoms: C_27  and  C_28
REMARK                            x       y       z     vdW  Elec       q    Type
REMARK                         _______ _______ _______ _____ _____    ______ ____
ROOT
ATOM      6  N   UNL     1      -4.045 -11.113  17.148  0.00  0.00    -0.299 NA
ATOM     10  C   UNL     1      -5.774 -10.397  18.561  0.00  0.00    +0.090 C 
ATOM     11  C   UNL     1      -5.352 -10.457  17.086  0.00  0.00    +0.097 C 
ATOM     12  C   UNL     1      -4.214 -12.204  18.107  0.00  0.00    +0.085 C 
ATOM     13  C   UNL     1      -5.002 -11.546  19.233  0.00  0.00    +0.029 C 
ENDROOT
BRANCH  10  18
ATOM      2  O   UNL     1      -8.011  -9.799  17.802  0.00  0.00    -0.439 OA
ATOM      8  N   UNL     1      -7.960 -11.028  19.704  0.00  0.00    -0.213 NA
ATOM     18  C   UNL     1      -7.274 -10.445  18.747  0.00  0.00    +0.201 A 
ATOM     20  C   UNL     1      -9.264 -10.750  19.373  0.00  0.00    +0.111 A 
ATOM     21  C   UNL     1      -9.299  -9.997  18.208  0.00  0.00    +0.155 A 
ATOM     23  C   UNL     1     -10.474 -11.093  19.995  0.00  0.00    +0.058 A 
ATOM     24  C   UNL     1     -10.459  -9.543  17.594  0.00  0.00    +0.050 A 
ATOM     25  C   UNL     1     -11.667 -10.652  19.404  0.00  0.00    +0.090 A 
ATOM     26  C   UNL     1     -11.657  -9.893  18.227  0.00  0.00    +0.030 A 
BRANCH  25   1
ATOM      1  S   UNL     1     -13.193 -11.062  20.151  0.00  0.00    -0.003 S 
ATOM      4  O   UNL     1     -14.105 -11.541  19.123  0.00  0.00    -0.169 OA
ATOM      5  O   UNL     1     -12.913 -11.890  21.314  0.00  0.00    -0.169 OA
BRANCH   1  27
ATOM     27  C   UNL     1     -13.832  -9.505  20.727  0.00  0.00    +0.168 C 
ATOM     28  C   UNL     1     -15.324  -9.400  20.501  0.00  0.00    +0.028 C 
ENDBRANCH   1  27
ENDBRANCH  25   1
ENDBRANCH  10  18
BRANCH   6   9
ATOM      3  O   UNL     1      -1.326  -9.842  11.781  0.00  0.00    -0.276 OA
ATOM      7  N   UNL     1      -2.802 -11.049  13.109  0.00  0.00    -0.302 N 
ATOM      9  C   UNL     1      -3.596 -11.586  15.841  0.00  0.00    +0.060 C 
ATOM     14  C   UNL     1      -4.624 -11.212  14.764  0.00  0.00    +0.038 C 
ATOM     15  C   UNL     1      -2.225 -10.985  15.505  0.00  0.00    +0.038 C 
ATOM     16  C   UNL     1      -4.131 -11.613  13.374  0.00  0.00    +0.109 C 
ATOM     17  C   UNL     1      -1.781 -11.391  14.101  0.00  0.00    +0.109 C 
ATOM     19  C   UNL     1      -2.460 -10.275  12.001  0.00  0.00    +0.212 C 
ATOM     22  C   UNL     1      -3.569  -9.963  11.027  0.00  0.00    +0.109 C 
ENDBRANCH   6   9
TORSDOF 4
ENDMDL
