MODEL 1
REMARK VINA RESULT:      -6.6      0.000      0.000
REMARK  Name = 7144252
REMARK  7 active torsions:
REMARK  status: ('A' for Active; 'I' for Inactive)
REMARK    1  A    between atoms: O_2  and  C_28
REMARK    2  A    between atoms: O_2  and  C_30
REMARK    3  A    between atoms: O_3  and  C_29
REMARK    4  A    between atoms: O_3  and  C_31
REMARK    5  A    between atoms: N_4  and  C_13
REMARK    6  A    between atoms: C_13  and  C_18
REMARK    7  A    between atoms: C_14  and  C_19
REMARK                            x       y       z     vdW  Elec       q    Type
REMARK                         _______ _______ _______ _____ _____    ______ ____
ROOT
ATOM      1  O   UNL     1       7.156   9.181   4.173  0.00  0.00    -0.268 OA
ATOM      4  N   UNL     1      11.281   8.014   6.718  0.00  0.00    -0.297 NA
ATOM      5  N   UNL     1       8.767   7.605   4.812  0.00  0.00    -0.311 N 
ATOM      6  C   UNL     1       9.095   6.930   7.265  0.00  0.00    +0.024 C 
ATOM      7  C   UNL     1      10.515   5.950   5.530  0.00  0.00    +0.051 C 
ATOM      8  C   UNL     1       9.570   5.611   6.681  0.00  0.00    +0.017 C 
ATOM      9  C   UNL     1      10.295   7.755   7.773  0.00  0.00    +0.090 C 
ATOM     10  C   UNL     1      11.712   6.765   6.073  0.00  0.00    +0.094 C 
ATOM     11  C   UNL     1       8.285   7.671   6.199  0.00  0.00    +0.130 C 
ATOM     12  C   UNL     1       9.790   6.719   4.422  0.00  0.00    +0.034 A 
ATOM     14  C   UNL     1      10.108   6.589   3.108  0.00  0.00    +0.002 A 
ATOM     15  C   UNL     1       8.066   8.401   3.889  0.00  0.00    +0.252 A 
ATOM     16  C   UNL     1       9.409   7.396   2.126  0.00  0.00    +0.015 A 
ATOM     17  C   UNL     1       8.456   8.264   2.468  0.00  0.00    +0.071 A 
ENDROOT
BRANCH  14  19
ATOM     19  C   UNL     1      11.160   5.655   2.650  0.00  0.00    -0.016 A 
ATOM     22  C   UNL     1      10.855   4.310   2.457  0.00  0.00    +0.012 A 
ATOM     23  C   UNL     1      12.448   6.127   2.416  0.00  0.00    +0.012 A 
ATOM     26  C   UNL     1      11.847   3.430   2.027  0.00  0.00    +0.046 A 
ATOM     27  C   UNL     1      13.440   5.246   1.986  0.00  0.00    +0.046 A 
ATOM     29  C   UNL     1      13.140   3.898   1.791  0.00  0.00    +0.120 A 
BRANCH  29   3
ATOM      3  O   UNL     1      14.108   3.039   1.370  0.00  0.00    -0.495 OA
ATOM     31  C   UNL     1      15.363   3.607   0.995  0.00  0.00    +0.277 C 
ENDBRANCH  29   3
ENDBRANCH  14  19
BRANCH   4  13
ATOM     13  C   UNL     1      12.427   8.754   7.243  0.00  0.00    +0.119 C 
BRANCH  13  18
ATOM     18  C   UNL     1      13.524   8.888   6.220  0.00  0.00    -0.033 A 
ATOM     20  C   UNL     1      13.304   9.645   5.077  0.00  0.00    +0.008 A 
ATOM     21  C   UNL     1      14.739   8.252   6.433  0.00  0.00    +0.008 A 
ATOM     24  C   UNL     1      14.320   9.769   4.129  0.00  0.00    +0.046 A 
ATOM     25  C   UNL     1      15.754   8.376   5.485  0.00  0.00    +0.046 A 
ATOM     28  C   UNL     1      15.546   9.133   4.334  0.00  0.00    +0.120 A 
BRANCH  28   2
ATOM      2  O   UNL     1      16.537   9.256   3.409  0.00  0.00    -0.495 OA
ATOM     30  C   UNL     1      16.642   8.224   2.430  0.00  0.00    +0.277 C 
ENDBRANCH  28   2
ENDBRANCH  13  18
ENDBRANCH   4  13
TORSDOF 5
ENDMDL
MODEL 2
REMARK VINA RESULT:      -6.5     34.769     38.040
REMARK  Name = 7144252
REMARK  7 active torsions:
REMARK  status: ('A' for Active; 'I' for Inactive)
REMARK    1  A    between atoms: O_2  and  C_28
REMARK    2  A    between atoms: O_2  and  C_30
REMARK    3  A    between atoms: O_3  and  C_29
REMARK    4  A    between atoms: O_3  and  C_31
REMARK    5  A    between atoms: N_4  and  C_13
REMARK    6  A    between atoms: C_13  and  C_18
REMARK    7  A    between atoms: C_14  and  C_19
REMARK                            x       y       z     vdW  Elec       q    Type
REMARK                         _______ _______ _______ _____ _____    ______ ____
ROOT
ATOM      1  O   UNL     1     -18.474   7.626  29.287  0.00  0.00    -0.268 OA
ATOM      4  N   UNL     1     -15.337   6.478  32.989  0.00  0.00    -0.297 NA
ATOM      5  N   UNL     1     -17.546   6.042  30.742  0.00  0.00    -0.311 N 
ATOM      6  C   UNL     1     -17.808   6.233  33.287  0.00  0.00    +0.024 C 
ATOM      7  C   UNL     1     -16.528   4.380  32.328  0.00  0.00    +0.051 C 
ATOM      8  C   UNL     1     -17.690   4.718  33.261  0.00  0.00    +0.017 C 
ATOM      9  C   UNL     1     -16.498   6.864  33.800  0.00  0.00    +0.090 C 
ATOM     10  C   UNL     1     -15.229   5.017  32.875  0.00  0.00    +0.094 C 
ATOM     11  C   UNL     1     -18.181   6.716  31.884  0.00  0.00    +0.130 C 
ATOM     12  C   UNL     1     -16.807   4.854  30.898  0.00  0.00    +0.034 A 
ATOM     14  C   UNL     1     -16.358   4.188  29.803  0.00  0.00    +0.002 A 
ATOM     15  C   UNL     1     -17.822   6.600  29.481  0.00  0.00    +0.252 A 
ATOM     16  C   UNL     1     -16.618   4.735  28.485  0.00  0.00    +0.015 A 
ATOM     17  C   UNL     1     -17.291   5.872  28.307  0.00  0.00    +0.071 A 
ENDROOT
BRANCH  14  19
ATOM     19  C   UNL     1     -15.595   2.925  29.918  0.00  0.00    -0.016 A 
ATOM     22  C   UNL     1     -14.222   2.964  30.140  0.00  0.00    +0.012 A 
ATOM     23  C   UNL     1     -16.257   1.706  29.802  0.00  0.00    +0.012 A 
ATOM     26  C   UNL     1     -13.503   1.774  30.247  0.00  0.00    +0.046 A 
ATOM     27  C   UNL     1     -15.538   0.516  29.909  0.00  0.00    +0.046 A 
ATOM     29  C   UNL     1     -14.161   0.550  30.132  0.00  0.00    +0.120 A 
BRANCH  29   3
ATOM      3  O   UNL     1     -13.460  -0.612  30.237  0.00  0.00    -0.495 OA
ATOM     31  C   UNL     1     -13.173  -1.310  29.026  0.00  0.00    +0.277 C 
ENDBRANCH  29   3
ENDBRANCH  14  19
BRANCH   4  13
ATOM     13  C   UNL     1     -14.107   7.053  33.529  0.00  0.00    +0.119 C 
BRANCH  13  18
ATOM     18  C   UNL     1     -13.463   8.010  32.561  0.00  0.00    -0.033 A 
ATOM     20  C   UNL     1     -14.263   8.805  31.752  0.00  0.00    +0.008 A 
ATOM     21  C   UNL     1     -12.079   8.082  32.490  0.00  0.00    +0.008 A 
ATOM     24  C   UNL     1     -13.667   9.692  30.855  0.00  0.00    +0.046 A 
ATOM     25  C   UNL     1     -11.483   8.969  31.593  0.00  0.00    +0.046 A 
ATOM     28  C   UNL     1     -12.275   9.773  30.776  0.00  0.00    +0.120 A 
BRANCH  28   2
ATOM      2  O   UNL     1     -11.694  10.639  29.901  0.00  0.00    -0.495 OA
ATOM     30  C   UNL     1     -11.887  10.383  28.511  0.00  0.00    +0.277 C 
ENDBRANCH  28   2
ENDBRANCH  13  18
ENDBRANCH   4  13
TORSDOF 5
ENDMDL
MODEL 3
REMARK VINA RESULT:      -6.1      1.600      2.105
REMARK  Name = 7144252
REMARK  7 active torsions:
REMARK  status: ('A' for Active; 'I' for Inactive)
REMARK    1  A    between atoms: O_2  and  C_28
REMARK    2  A    between atoms: O_2  and  C_30
REMARK    3  A    between atoms: O_3  and  C_29
REMARK    4  A    between atoms: O_3  and  C_31
REMARK    5  A    between atoms: N_4  and  C_13
REMARK    6  A    between atoms: C_13  and  C_18
REMARK    7  A    between atoms: C_14  and  C_19
REMARK                            x       y       z     vdW  Elec       q    Type
REMARK                         _______ _______ _______ _____ _____    ______ ____
ROOT
ATOM      1  O   UNL     1       8.556  10.659   4.235  0.00  0.00    -0.268 OA
ATOM      4  N   UNL     1      10.919   6.889   6.485  0.00  0.00    -0.297 NA
ATOM      5  N   UNL     1       9.102   8.383   4.345  0.00  0.00    -0.311 N 
ATOM      6  C   UNL     1       8.422   6.929   6.345  0.00  0.00    +0.024 C 
ATOM      7  C   UNL     1       9.708   5.951   4.507  0.00  0.00    +0.051 C 
ATOM      8  C   UNL     1       8.432   5.797   5.332  0.00  0.00    +0.017 C 
ATOM      9  C   UNL     1       9.668   6.849   7.251  0.00  0.00    +0.090 C 
ATOM     10  C   UNL     1      10.937   5.855   5.441  0.00  0.00    +0.094 C 
ATOM     11  C   UNL     1       8.332   8.256   5.591  0.00  0.00    +0.130 C 
ATOM     12  C   UNL     1       9.715   7.272   3.733  0.00  0.00    +0.034 A 
ATOM     14  C   UNL     1      10.295   7.406   2.512  0.00  0.00    +0.002 A 
ATOM     15  C   UNL     1       9.089   9.659   3.752  0.00  0.00    +0.252 A 
ATOM     16  C   UNL     1      10.305   8.708   1.872  0.00  0.00    +0.015 A 
ATOM     17  C   UNL     1       9.758   9.784   2.438  0.00  0.00    +0.071 A 
ENDROOT
BRANCH  14  19
ATOM     19  C   UNL     1      10.932   6.263   1.823  0.00  0.00    -0.016 A 
ATOM     22  C   UNL     1      12.283   5.997   2.029  0.00  0.00    +0.012 A 
ATOM     23  C   UNL     1      10.176   5.460   0.974  0.00  0.00    +0.012 A 
ATOM     26  C   UNL     1      12.883   4.919   1.378  0.00  0.00    +0.046 A 
ATOM     27  C   UNL     1      10.776   4.383   0.323  0.00  0.00    +0.046 A 
ATOM     29  C   UNL     1      12.130   4.112   0.525  0.00  0.00    +0.120 A 
BRANCH  29   3
ATOM      3  O   UNL     1      12.716   3.060  -0.109  0.00  0.00    -0.495 OA
ATOM     31  C   UNL     1      12.427   2.896  -1.497  0.00  0.00    +0.277 C 
ENDBRANCH  29   3
ENDBRANCH  14  19
BRANCH   4  13
ATOM     13  C   UNL     1      12.077   6.762   7.367  0.00  0.00    +0.119 C 
BRANCH  13  18
ATOM     18  C   UNL     1      13.204   7.668   6.947  0.00  0.00    -0.033 A 
ATOM     20  C   UNL     1      14.417   7.115   6.561  0.00  0.00    +0.008 A 
ATOM     21  C   UNL     1      13.014   9.043   6.953  0.00  0.00    +0.008 A 
ATOM     24  C   UNL     1      15.461   7.955   6.171  0.00  0.00    +0.046 A 
ATOM     25  C   UNL     1      14.058   9.882   6.563  0.00  0.00    +0.046 A 
ATOM     28  C   UNL     1      15.281   9.339   6.173  0.00  0.00    +0.120 A 
BRANCH  28   2
ATOM      2  O   UNL     1      16.301  10.157   5.792  0.00  0.00    -0.495 OA
ATOM     30  C   UNL     1      17.615   9.602   5.799  0.00  0.00    +0.277 C 
ENDBRANCH  28   2
ENDBRANCH  13  18
ENDBRANCH   4  13
TORSDOF 5
ENDMDL
MODEL 4
REMARK VINA RESULT:      -6.1     25.942     29.775
REMARK  Name = 7144252
REMARK  7 active torsions:
REMARK  status: ('A' for Active; 'I' for Inactive)
REMARK    1  A    between atoms: O_2  and  C_28
REMARK    2  A    between atoms: O_2  and  C_30
REMARK    3  A    between atoms: O_3  and  C_29
REMARK    4  A    between atoms: O_3  and  C_31
REMARK    5  A    between atoms: N_4  and  C_13
REMARK    6  A    between atoms: C_13  and  C_18
REMARK    7  A    between atoms: C_14  and  C_19
REMARK                            x       y       z     vdW  Elec       q    Type
REMARK                         _______ _______ _______ _____ _____    ______ ____
ROOT
ATOM      1  O   UNL     1     -10.862  12.942  18.332  0.00  0.00    -0.268 OA
ATOM      4  N   UNL     1     -13.038   9.261  15.769  0.00  0.00    -0.297 NA
ATOM      5  N   UNL     1     -11.249  10.656  17.998  0.00  0.00    -0.311 N 
ATOM      6  C   UNL     1     -10.547   9.472  15.833  0.00  0.00    +0.024 C 
ATOM      7  C   UNL     1     -11.687   8.215  17.596  0.00  0.00    +0.051 C 
ATOM      8  C   UNL     1     -10.437   8.243  16.720  0.00  0.00    +0.017 C 
ATOM      9  C   UNL     1     -11.819   9.394  14.964  0.00  0.00    +0.090 C 
ATOM     10  C   UNL     1     -12.942   8.125  16.697  0.00  0.00    +0.094 C 
ATOM     11  C   UNL     1     -10.521  10.717  16.722  0.00  0.00    +0.130 C 
ATOM     12  C   UNL     1     -11.757   9.445  18.507  0.00  0.00    +0.034 A 
ATOM     14  C   UNL     1     -12.297   9.407  19.753  0.00  0.00    +0.002 A 
ATOM     15  C   UNL     1     -11.303  11.860  18.723  0.00  0.00    +0.252 A 
ATOM     16  C   UNL     1     -12.374  10.631  20.528  0.00  0.00    +0.015 A 
ATOM     17  C   UNL     1     -11.927  11.798  20.063  0.00  0.00    +0.071 A 
ENDROOT
BRANCH  14  19
ATOM     19  C   UNL     1     -12.824   8.154  20.336  0.00  0.00    -0.016 A 
ATOM     22  C   UNL     1     -11.950   7.247  20.928  0.00  0.00    +0.012 A 
ATOM     23  C   UNL     1     -14.189   7.891  20.288  0.00  0.00    +0.012 A 
ATOM     26  C   UNL     1     -12.447   6.065  21.477  0.00  0.00    +0.046 A 
ATOM     27  C   UNL     1     -14.686   6.709  20.836  0.00  0.00    +0.046 A 
ATOM     29  C   UNL     1     -13.815   5.795  21.431  0.00  0.00    +0.120 A 
BRANCH  29   3
ATOM      3  O   UNL     1     -14.299   4.643  21.967  0.00  0.00    -0.495 OA
ATOM     31  C   UNL     1     -14.588   4.647  23.365  0.00  0.00    +0.277 C 
ENDBRANCH  29   3
ENDBRANCH  14  19
BRANCH   4  13
ATOM     13  C   UNL     1     -14.218   9.141  14.915  0.00  0.00    +0.119 C 
BRANCH  13  18
ATOM     18  C   UNL     1     -15.259   8.236  15.521  0.00  0.00    -0.033 A 
ATOM     20  C   UNL     1     -15.809   8.558  16.754  0.00  0.00    +0.008 A 
ATOM     21  C   UNL     1     -15.652   7.093  14.838  0.00  0.00    +0.008 A 
ATOM     24  C   UNL     1     -16.772   7.720  17.316  0.00  0.00    +0.046 A 
ATOM     25  C   UNL     1     -16.615   6.256  15.400  0.00  0.00    +0.046 A 
ATOM     28  C   UNL     1     -17.175   6.568  16.638  0.00  0.00    +0.120 A 
BRANCH  28   2
ATOM      2  O   UNL     1     -18.117   5.751  17.186  0.00  0.00    -0.495 OA
ATOM     30  C   UNL     1     -17.712   4.947  18.292  0.00  0.00    +0.277 C 
ENDBRANCH  28   2
ENDBRANCH  13  18
ENDBRANCH   4  13
TORSDOF 5
ENDMDL
MODEL 5
REMARK VINA RESULT:      -6.0      2.079      6.348
REMARK  Name = 7144252
REMARK  7 active torsions:
REMARK  status: ('A' for Active; 'I' for Inactive)
REMARK    1  A    between atoms: O_2  and  C_28
REMARK    2  A    between atoms: O_2  and  C_30
REMARK    3  A    between atoms: O_3  and  C_29
REMARK    4  A    between atoms: O_3  and  C_31
REMARK    5  A    between atoms: N_4  and  C_13
REMARK    6  A    between atoms: C_13  and  C_18
REMARK    7  A    between atoms: C_14  and  C_19
REMARK                            x       y       z     vdW  Elec       q    Type
REMARK                         _______ _______ _______ _____ _____    ______ ____
ROOT
ATOM      1  O   UNL     1      10.444   4.252   2.481  0.00  0.00    -0.268 OA
ATOM      4  N   UNL     1       9.115   7.810   5.711  0.00  0.00    -0.297 NA
ATOM      5  N   UNL     1      10.913   5.555   4.371  0.00  0.00    -0.311 N 
ATOM      6  C   UNL     1       9.451   5.453   6.476  0.00  0.00    +0.024 C 
ATOM      7  C   UNL     1      11.370   6.970   6.396  0.00  0.00    +0.051 C 
ATOM      8  C   UNL     1      10.730   5.839   7.199  0.00  0.00    +0.017 C 
ATOM      9  C   UNL     1       8.499   6.662   6.387  0.00  0.00    +0.090 C 
ATOM     10  C   UNL     1      10.396   8.170   6.335  0.00  0.00    +0.094 C 
ATOM     11  C   UNL     1       9.820   4.896   5.099  0.00  0.00    +0.130 C 
ATOM     12  C   UNL     1      11.750   6.505   4.986  0.00  0.00    +0.034 A 
ATOM     14  C   UNL     1      12.834   6.984   4.322  0.00  0.00    +0.002 A 
ATOM     15  C   UNL     1      11.134   5.091   3.061  0.00  0.00    +0.252 A 
ATOM     16  C   UNL     1      13.092   6.533   2.968  0.00  0.00    +0.015 A 
ATOM     17  C   UNL     1      12.302   5.655   2.348  0.00  0.00    +0.071 A 
ENDROOT
BRANCH  14  19
ATOM     19  C   UNL     1      13.752   7.968   4.938  0.00  0.00    -0.016 A 
ATOM     22  C   UNL     1      13.490   9.329   4.816  0.00  0.00    +0.012 A 
ATOM     23  C   UNL     1      14.873   7.525   5.634  0.00  0.00    +0.012 A 
ATOM     26  C   UNL     1      14.356  10.256   5.395  0.00  0.00    +0.046 A 
ATOM     27  C   UNL     1      15.739   8.451   6.213  0.00  0.00    +0.046 A 
ATOM     29  C   UNL     1      15.481   9.818   6.093  0.00  0.00    +0.120 A 
BRANCH  29   3
ATOM      3  O   UNL     1      16.325  10.722   6.659  0.00  0.00    -0.495 OA
ATOM     31  C   UNL     1      15.732  11.828   7.339  0.00  0.00    +0.277 C 
ENDBRANCH  29   3
ENDBRANCH  14  19
BRANCH   4  13
ATOM     13  C   UNL     1       8.205   8.953   5.687  0.00  0.00    +0.119 C 
BRANCH  13  18
ATOM     18  C   UNL     1       7.643   9.193   4.311  0.00  0.00    -0.033 A 
ATOM     20  C   UNL     1       8.285   8.651   3.207  0.00  0.00    +0.008 A 
ATOM     21  C   UNL     1       6.491   9.954   4.167  0.00  0.00    +0.008 A 
ATOM     24  C   UNL     1       7.764   8.874   1.932  0.00  0.00    +0.046 A 
ATOM     25  C   UNL     1       5.970  10.177   2.892  0.00  0.00    +0.046 A 
ATOM     28  C   UNL     1       6.606   9.637   1.775  0.00  0.00    +0.120 A 
BRANCH  28   2
ATOM      2  O   UNL     1       6.098   9.853   0.530  0.00  0.00    -0.495 OA
ATOM     30  C   UNL     1       4.869   9.205   0.211  0.00  0.00    +0.277 C 
ENDBRANCH  28   2
ENDBRANCH  13  18
ENDBRANCH   4  13
TORSDOF 5
ENDMDL
MODEL 6
REMARK VINA RESULT:      -5.9     25.424     28.693
REMARK  Name = 7144252
REMARK  7 active torsions:
REMARK  status: ('A' for Active; 'I' for Inactive)
REMARK    1  A    between atoms: O_2  and  C_28
REMARK    2  A    between atoms: O_2  and  C_30
REMARK    3  A    between atoms: O_3  and  C_29
REMARK    4  A    between atoms: O_3  and  C_31
REMARK    5  A    between atoms: N_4  and  C_13
REMARK    6  A    between atoms: C_13  and  C_18
REMARK    7  A    between atoms: C_14  and  C_19
REMARK                            x       y       z     vdW  Elec       q    Type
REMARK                         _______ _______ _______ _____ _____    ______ ____
ROOT
ATOM      1  O   UNL     1      -6.543 -15.226  16.740  0.00  0.00    -0.268 OA
ATOM      4  N   UNL     1      -6.445 -10.247  16.981  0.00  0.00    -0.297 NA
ATOM      5  N   UNL     1      -5.393 -13.204  16.462  0.00  0.00    -0.311 N 
ATOM      6  C   UNL     1      -4.946 -11.625  18.434  0.00  0.00    +0.024 C 
ATOM      7  C   UNL     1      -4.199 -11.010  16.187  0.00  0.00    +0.051 C 
ATOM      8  C   UNL     1      -3.730 -11.206  17.627  0.00  0.00    +0.017 C 
ATOM      9  C   UNL     1      -6.039 -10.539  18.361  0.00  0.00    +0.090 C 
ATOM     10  C   UNL     1      -5.284  -9.909  16.146  0.00  0.00    +0.094 C 
ATOM     11  C   UNL     1      -5.432 -12.980  17.915  0.00  0.00    +0.130 C 
ATOM     12  C   UNL     1      -4.728 -12.319  15.591  0.00  0.00    +0.034 A 
ATOM     14  C   UNL     1      -4.595 -12.635  14.277  0.00  0.00    +0.002 A 
ATOM     15  C   UNL     1      -5.964 -14.411  16.020  0.00  0.00    +0.252 A 
ATOM     16  C   UNL     1      -5.174 -13.870  13.783  0.00  0.00    +0.015 A 
ATOM     17  C   UNL     1      -5.834 -14.714  14.577  0.00  0.00    +0.071 A 
ENDROOT
BRANCH  14  19
ATOM     19  C   UNL     1      -3.886 -11.746  13.330  0.00  0.00    -0.016 A 
ATOM     22  C   UNL     1      -4.607 -10.826  12.574  0.00  0.00    +0.012 A 
ATOM     23  C   UNL     1      -2.504 -11.836  13.201  0.00  0.00    +0.012 A 
ATOM     26  C   UNL     1      -3.940  -9.989  11.681  0.00  0.00    +0.046 A 
ATOM     27  C   UNL     1      -1.836 -10.999  12.308  0.00  0.00    +0.046 A 
ATOM     29  C   UNL     1      -2.554 -10.075  11.547  0.00  0.00    +0.120 A 
BRANCH  29   3
ATOM      3  O   UNL     1      -1.902  -9.258  10.677  0.00  0.00    -0.495 OA
ATOM     31  C   UNL     1      -0.581  -8.851  11.032  0.00  0.00    +0.277 C 
ENDBRANCH  29   3
ENDBRANCH  14  19
BRANCH   4  13
ATOM     13  C   UNL     1      -7.444  -9.182  16.945  0.00  0.00    +0.119 C 
BRANCH  13  18
ATOM     18  C   UNL     1      -8.842  -9.718  17.108  0.00  0.00    -0.033 A 
ATOM     20  C   UNL     1      -9.133 -11.007  16.683  0.00  0.00    +0.008 A 
ATOM     21  C   UNL     1      -9.819  -8.915  17.679  0.00  0.00    +0.008 A 
ATOM     24  C   UNL     1     -10.428 -11.504  16.833  0.00  0.00    +0.046 A 
ATOM     25  C   UNL     1     -11.114  -9.412  17.829  0.00  0.00    +0.046 A 
ATOM     28  C   UNL     1     -11.419 -10.705  17.406  0.00  0.00    +0.120 A 
BRANCH  28   2
ATOM      2  O   UNL     1     -12.682 -11.192  17.554  0.00  0.00    -0.495 OA
ATOM     30  C   UNL     1     -13.520 -10.540  18.506  0.00  0.00    +0.277 C 
ENDBRANCH  28   2
ENDBRANCH  13  18
ENDBRANCH   4  13
TORSDOF 5
ENDMDL
MODEL 7
REMARK VINA RESULT:      -5.9     24.947     28.233
REMARK  Name = 7144252
REMARK  7 active torsions:
REMARK  status: ('A' for Active; 'I' for Inactive)
REMARK    1  A    between atoms: O_2  and  C_28
REMARK    2  A    between atoms: O_2  and  C_30
REMARK    3  A    between atoms: O_3  and  C_29
REMARK    4  A    between atoms: O_3  and  C_31
REMARK    5  A    between atoms: N_4  and  C_13
REMARK    6  A    between atoms: C_13  and  C_18
REMARK    7  A    between atoms: C_14  and  C_19
REMARK                            x       y       z     vdW  Elec       q    Type
REMARK                         _______ _______ _______ _____ _____    ______ ____
ROOT
ATOM      1  O   UNL     1      -5.919 -15.249  16.713  0.00  0.00    -0.268 OA
ATOM      4  N   UNL     1      -6.554 -10.386  17.610  0.00  0.00    -0.297 NA
ATOM      5  N   UNL     1      -5.315 -13.019  16.325  0.00  0.00    -0.311 N 
ATOM      6  C   UNL     1      -4.406 -11.523  18.200  0.00  0.00    +0.024 C 
ATOM      7  C   UNL     1      -4.699 -10.613  15.947  0.00  0.00    +0.051 C 
ATOM      8  C   UNL     1      -3.684 -10.807  17.072  0.00  0.00    +0.017 C 
ATOM      9  C   UNL     1      -5.604 -10.683  18.688  0.00  0.00    +0.090 C 
ATOM     10  C   UNL     1      -5.880  -9.759  16.464  0.00  0.00    +0.094 C 
ATOM     11  C   UNL     1      -4.826 -12.909  17.707  0.00  0.00    +0.130 C 
ATOM     12  C   UNL     1      -5.195 -11.958  15.407  0.00  0.00    +0.034 A 
ATOM     14  C   UNL     1      -5.530 -12.148  14.105  0.00  0.00    +0.002 A 
ATOM     15  C   UNL     1      -5.806 -14.285  15.956  0.00  0.00    +0.252 A 
ATOM     16  C   UNL     1      -6.044 -13.438  13.687  0.00  0.00    +0.015 A 
ATOM     17  C   UNL     1      -6.196 -14.453  14.538  0.00  0.00    +0.071 A 
ENDROOT
BRANCH  14  19
ATOM     19  C   UNL     1      -5.400 -11.069  13.102  0.00  0.00    -0.016 A 
ATOM     22  C   UNL     1      -4.207 -10.918  12.399  0.00  0.00    +0.012 A 
ATOM     23  C   UNL     1      -6.470 -10.211  12.867  0.00  0.00    +0.012 A 
ATOM     26  C   UNL     1      -4.084  -9.899  11.455  0.00  0.00    +0.046 A 
ATOM     27  C   UNL     1      -6.347  -9.193  11.922  0.00  0.00    +0.046 A 
ATOM     29  C   UNL     1      -5.154  -9.037  11.215  0.00  0.00    +0.120 A 
BRANCH  29   3
ATOM      3  O   UNL     1      -5.034  -8.044  10.293  0.00  0.00    -0.495 OA
ATOM     31  C   UNL     1      -5.971  -8.041   9.216  0.00  0.00    +0.277 C 
ENDBRANCH  29   3
ENDBRANCH  14  19
BRANCH   4  13
ATOM     13  C   UNL     1      -7.650  -9.550  18.094  0.00  0.00    +0.119 C 
BRANCH  13  18
ATOM     18  C   UNL     1      -8.641  -9.238  17.005  0.00  0.00    -0.033 A 
ATOM     20  C   UNL     1      -9.352  -8.047  17.047  0.00  0.00    +0.008 A 
ATOM     21  C   UNL     1      -8.831 -10.148  15.974  0.00  0.00    +0.008 A 
ATOM     24  C   UNL     1     -10.271  -7.759  16.038  0.00  0.00    +0.046 A 
ATOM     25  C   UNL     1      -9.750  -9.860  14.964  0.00  0.00    +0.046 A 
ATOM     28  C   UNL     1     -10.470  -8.667  14.996  0.00  0.00    +0.120 A 
BRANCH  28   2
ATOM      2  O   UNL     1     -11.366  -8.384  14.011  0.00  0.00    -0.495 OA
ATOM     30  C   UNL     1     -12.011  -7.113  14.066  0.00  0.00    +0.277 C 
ENDBRANCH  28   2
ENDBRANCH  13  18
ENDBRANCH   4  13
TORSDOF 5
ENDMDL
MODEL 8
REMARK VINA RESULT:      -5.8     25.267     27.910
REMARK  Name = 7144252
REMARK  7 active torsions:
REMARK  status: ('A' for Active; 'I' for Inactive)
REMARK    1  A    between atoms: O_2  and  C_28
REMARK    2  A    between atoms: O_2  and  C_30
REMARK    3  A    between atoms: O_3  and  C_29
REMARK    4  A    between atoms: O_3  and  C_31
REMARK    5  A    between atoms: N_4  and  C_13
REMARK    6  A    between atoms: C_13  and  C_18
REMARK    7  A    between atoms: C_14  and  C_19
REMARK                            x       y       z     vdW  Elec       q    Type
REMARK                         _______ _______ _______ _____ _____    ______ ____
ROOT
ATOM      1  O   UNL     1      -4.292 -16.094  14.415  0.00  0.00    -0.268 OA
ATOM      4  N   UNL     1      -3.091 -11.307  15.126  0.00  0.00    -0.297 NA
ATOM      5  N   UNL     1      -3.969 -13.935  13.564  0.00  0.00    -0.311 N 
ATOM      6  C   UNL     1      -1.684 -12.773  13.667  0.00  0.00    +0.024 C 
ATOM      7  C   UNL     1      -3.603 -11.606  12.696  0.00  0.00    +0.051 C 
ATOM      8  C   UNL     1      -2.167 -12.047  12.423  0.00  0.00    +0.017 C 
ATOM      9  C   UNL     1      -1.742 -11.837  14.892  0.00  0.00    +0.090 C 
ATOM     10  C   UNL     1      -3.626 -10.661  13.920  0.00  0.00    +0.094 C 
ATOM     11  C   UNL     1      -2.531 -14.034  13.854  0.00  0.00    +0.130 C 
ATOM     12  C   UNL     1      -4.522 -12.811  12.921  0.00  0.00    +0.034 A 
ATOM     14  C   UNL     1      -5.827 -12.820  12.545  0.00  0.00    +0.002 A 
ATOM     15  C   UNL     1      -4.728 -15.080  13.868  0.00  0.00    +0.252 A 
ATOM     16  C   UNL     1      -6.643 -13.982  12.846  0.00  0.00    +0.015 A 
ATOM     17  C   UNL     1      -6.155 -15.049  13.478  0.00  0.00    +0.071 A 
ENDROOT
BRANCH  14  19
ATOM     19  C   UNL     1      -6.445 -11.671  11.849  0.00  0.00    -0.016 A 
ATOM     22  C   UNL     1      -7.089 -10.681  12.586  0.00  0.00    +0.012 A 
ATOM     23  C   UNL     1      -6.379 -11.586  10.462  0.00  0.00    +0.012 A 
ATOM     26  C   UNL     1      -7.673  -9.598  11.930  0.00  0.00    +0.046 A 
ATOM     27  C   UNL     1      -6.963 -10.503   9.805  0.00  0.00    +0.046 A 
ATOM     29  C   UNL     1      -7.610  -9.508  10.539  0.00  0.00    +0.120 A 
BRANCH  29   3
ATOM      3  O   UNL     1      -8.178  -8.451   9.899  0.00  0.00    -0.495 OA
ATOM     31  C   UNL     1      -7.502  -7.949   8.746  0.00  0.00    +0.277 C 
ENDBRANCH  29   3
ENDBRANCH  14  19
BRANCH   4  13
ATOM     13  C   UNL     1      -3.101 -10.388  16.262  0.00  0.00    +0.119 C 
BRANCH  13  18
ATOM     18  C   UNL     1      -4.243 -10.671  17.202  0.00  0.00    -0.033 A 
ATOM     20  C   UNL     1      -5.482 -10.092  16.966  0.00  0.00    +0.008 A 
ATOM     21  C   UNL     1      -4.039 -11.505  18.292  0.00  0.00    +0.008 A 
ATOM     24  C   UNL     1      -6.539 -10.354  17.838  0.00  0.00    +0.046 A 
ATOM     25  C   UNL     1      -5.096 -11.767  19.164  0.00  0.00    +0.046 A 
ATOM     28  C   UNL     1      -6.345 -11.191  18.937  0.00  0.00    +0.120 A 
BRANCH  28   2
ATOM      2  O   UNL     1      -7.378 -11.447  19.787  0.00  0.00    -0.495 OA
ATOM     30  C   UNL     1      -7.908 -12.772  19.784  0.00  0.00    +0.277 C 
ENDBRANCH  28   2
ENDBRANCH  13  18
ENDBRANCH   4  13
TORSDOF 5
ENDMDL
MODEL 9
REMARK VINA RESULT:      -5.8     19.255     22.083
REMARK  Name = 7144252
REMARK  7 active torsions:
REMARK  status: ('A' for Active; 'I' for Inactive)
REMARK    1  A    between atoms: O_2  and  C_28
REMARK    2  A    between atoms: O_2  and  C_30
REMARK    3  A    between atoms: O_3  and  C_29
REMARK    4  A    between atoms: O_3  and  C_31
REMARK    5  A    between atoms: N_4  and  C_13
REMARK    6  A    between atoms: C_13  and  C_18
REMARK    7  A    between atoms: C_14  and  C_19
REMARK                            x       y       z     vdW  Elec       q    Type
REMARK                         _______ _______ _______ _____ _____    ______ ____
ROOT
ATOM      1  O   UNL     1      15.254 -12.163   5.113  0.00  0.00    -0.268 OA
ATOM      4  N   UNL     1      19.198 -15.127   4.394  0.00  0.00    -0.297 NA
ATOM      5  N   UNL     1      16.286 -13.922   3.962  0.00  0.00    -0.311 N 
ATOM      6  C   UNL     1      17.012 -16.074   5.156  0.00  0.00    +0.024 C 
ATOM      7  C   UNL     1      17.431 -15.808   2.759  0.00  0.00    +0.051 C 
ATOM      8  C   UNL     1      16.787 -16.722   3.800  0.00  0.00    +0.017 C 
ATOM      9  C   UNL     1      18.521 -15.915   5.431  0.00  0.00    +0.090 C 
ATOM     10  C   UNL     1      18.943 -15.679   3.056  0.00  0.00    +0.094 C 
ATOM     11  C   UNL     1      16.268 -14.737   5.185  0.00  0.00    +0.130 C 
ATOM     12  C   UNL     1      16.761 -14.431   2.737  0.00  0.00    +0.034 A 
ATOM     14  C   UNL     1      16.630 -13.696   1.602  0.00  0.00    +0.002 A 
ATOM     15  C   UNL     1      15.698 -12.650   4.073  0.00  0.00    +0.252 A 
ATOM     16  C   UNL     1      16.032 -12.376   1.678  0.00  0.00    +0.015 A 
ATOM     17  C   UNL     1      15.599 -11.856   2.827  0.00  0.00    +0.071 A 
ENDROOT
BRANCH  14  19
ATOM     19  C   UNL     1      17.094 -14.198   0.291  0.00  0.00    -0.016 A 
ATOM     22  C   UNL     1      16.260 -15.007  -0.475  0.00  0.00    +0.012 A 
ATOM     23  C   UNL     1      18.364 -13.859  -0.168  0.00  0.00    +0.012 A 
ATOM     26  C   UNL     1      16.699 -15.481  -1.711  0.00  0.00    +0.046 A 
ATOM     27  C   UNL     1      18.803 -14.334  -1.404  0.00  0.00    +0.046 A 
ATOM     29  C   UNL     1      17.970 -15.145  -2.176  0.00  0.00    +0.120 A 
BRANCH  29   3
ATOM      3  O   UNL     1      18.397 -15.607  -3.382  0.00  0.00    -0.495 OA
ATOM     31  C   UNL     1      19.321 -14.790  -4.100  0.00  0.00    +0.277 C 
ENDBRANCH  29   3
ENDBRANCH  14  19
BRANCH   4  13
ATOM     13  C   UNL     1      20.632 -15.037   4.659  0.00  0.00    +0.119 C 
BRANCH  13  18
ATOM     18  C   UNL     1      21.052 -13.632   5.000  0.00  0.00    -0.033 A 
ATOM     20  C   UNL     1      21.058 -12.661   4.009  0.00  0.00    +0.008 A 
ATOM     21  C   UNL     1      21.428 -13.328   6.302  0.00  0.00    +0.008 A 
ATOM     24  C   UNL     1      21.448 -11.359   4.325  0.00  0.00    +0.046 A 
ATOM     25  C   UNL     1      21.817 -12.027   6.618  0.00  0.00    +0.046 A 
ATOM     28  C   UNL     1      21.828 -11.042   5.630  0.00  0.00    +0.120 A 
BRANCH  28   2
ATOM      2  O   UNL     1      22.206  -9.771   5.938  0.00  0.00    -0.495 OA
ATOM     30  C   UNL     1      21.938  -8.762   4.967  0.00  0.00    +0.277 C 
ENDBRANCH  28   2
ENDBRANCH  13  18
ENDBRANCH   4  13
TORSDOF 5
ENDMDL
MODEL 10
REMARK VINA RESULT:      -5.8     27.394     30.607
REMARK  Name = 7144252
REMARK  7 active torsions:
REMARK  status: ('A' for Active; 'I' for Inactive)
REMARK    1  A    between atoms: O_2  and  C_28
REMARK    2  A    between atoms: O_2  and  C_30
REMARK    3  A    between atoms: O_3  and  C_29
REMARK    4  A    between atoms: O_3  and  C_31
REMARK    5  A    between atoms: N_4  and  C_13
REMARK    6  A    between atoms: C_13  and  C_18
REMARK    7  A    between atoms: C_14  and  C_19
REMARK                            x       y       z     vdW  Elec       q    Type
REMARK                         _______ _______ _______ _____ _____    ______ ____
ROOT
ATOM      1  O   UNL     1     -12.084 -12.604  21.406  0.00  0.00    -0.268 OA
ATOM      4  N   UNL     1      -7.980 -11.167  18.968  0.00  0.00    -0.297 NA
ATOM      5  N   UNL     1     -11.042 -11.891  19.433  0.00  0.00    -0.311 N 
ATOM      6  C   UNL     1      -9.182 -13.262  18.319  0.00  0.00    +0.024 C 
ATOM      7  C   UNL     1      -9.879 -11.130  17.340  0.00  0.00    +0.051 C 
ATOM      8  C   UNL     1      -9.680 -12.614  17.038  0.00  0.00    +0.017 C 
ATOM      9  C   UNL     1      -7.855 -12.615  18.767  0.00  0.00    +0.090 C 
ATOM     10  C   UNL     1      -8.531 -10.510  17.774  0.00  0.00    +0.094 C 
ATOM     11  C   UNL     1     -10.277 -13.145  19.381  0.00  0.00    +0.130 C 
ATOM     12  C   UNL     1     -10.947 -10.920  18.417  0.00  0.00    +0.034 A 
ATOM     14  C   UNL     1     -11.774  -9.842  18.432  0.00  0.00    +0.002 A 
ATOM     15  C   UNL     1     -11.951 -11.780  20.501  0.00  0.00    +0.252 A 
ATOM     16  C   UNL     1     -12.721  -9.691  19.520  0.00  0.00    +0.015 A 
ATOM     17  C   UNL     1     -12.815 -10.578  20.511  0.00  0.00    +0.071 A 
ENDROOT
BRANCH  14  19
ATOM     19  C   UNL     1     -11.725  -8.808  17.375  0.00  0.00    -0.016 A 
ATOM     22  C   UNL     1     -12.604  -8.877  16.298  0.00  0.00    +0.012 A 
ATOM     23  C   UNL     1     -10.798  -7.773  17.464  0.00  0.00    +0.012 A 
ATOM     26  C   UNL     1     -12.557  -7.903  15.301  0.00  0.00    +0.046 A 
ATOM     27  C   UNL     1     -10.751  -6.800  16.467  0.00  0.00    +0.046 A 
ATOM     29  C   UNL     1     -11.630  -6.864  15.385  0.00  0.00    +0.120 A 
BRANCH  29   3
ATOM      3  O   UNL     1     -11.584  -5.913  14.413  0.00  0.00    -0.495 OA
ATOM     31  C   UNL     1     -12.811  -5.260  14.086  0.00  0.00    +0.277 C 
ENDBRANCH  29   3
ENDBRANCH  14  19
BRANCH   4  13
ATOM     13  C   UNL     1      -6.696 -10.579  19.343  0.00  0.00    +0.119 C 
BRANCH  13  18
ATOM     18  C   UNL     1      -5.710 -10.611  18.205  0.00  0.00    -0.033 A 
ATOM     20  C   UNL     1      -5.993  -9.916  17.037  0.00  0.00    +0.008 A 
ATOM     21  C   UNL     1      -4.534 -11.335  18.339  0.00  0.00    +0.008 A 
ATOM     24  C   UNL     1      -5.080  -9.946  15.983  0.00  0.00    +0.046 A 
ATOM     25  C   UNL     1      -3.622 -11.365  17.285  0.00  0.00    +0.046 A 
ATOM     28  C   UNL     1      -3.894 -10.671  16.107  0.00  0.00    +0.120 A 
BRANCH  28   2
ATOM      2  O   UNL     1      -3.004 -10.699  15.077  0.00  0.00    -0.495 OA
ATOM     30  C   UNL     1      -1.659 -11.052  15.393  0.00  0.00    +0.277 C 
ENDBRANCH  28   2
ENDBRANCH  13  18
ENDBRANCH   4  13
TORSDOF 5
ENDMDL
