MODEL 1
REMARK VINA RESULT:      -7.4      0.000      0.000
REMARK  Name = 45361631
REMARK  10 active torsions:
REMARK  status: ('A' for Active; 'I' for Inactive)
REMARK    1  A    between atoms: O_1  and  C_12
REMARK    2  A    between atoms: N_5  and  C_16
REMARK    3  A    between atoms: N_6  and  C_26
REMARK    4  A    between atoms: C_9  and  C_19
REMARK    5  A    between atoms: C_11  and  C_21
REMARK    6  A    between atoms: C_15  and  C_20
REMARK    7  A    between atoms: C_20  and  C_22
REMARK    8  A    between atoms: C_20  and  C_23
REMARK    9  A    between atoms: C_24  and  C_25
REMARK   10  A    between atoms: C_26  and  C_29
REMARK                            x       y       z     vdW  Elec       q    Type
REMARK                         _______ _______ _______ _____ _____    ______ ____
ROOT
ATOM      9  C   UNL     1     -16.589   6.392  22.619  0.00  0.00    -0.027 C 
ATOM     10  C   UNL     1     -15.130   5.914  22.926  0.00  0.00    +0.028 C 
ATOM     11  C   UNL     1     -14.204   6.107  21.671  0.00  0.00    +0.012 C 
ATOM     12  C   UNL     1     -15.123   4.488  23.548  0.00  0.00    +0.122 C 
ATOM     13  C   UNL     1     -17.444   6.294  23.905  0.00  0.00    +0.007 C 
ATOM     14  C   UNL     1     -16.553   7.877  22.189  0.00  0.00    +0.009 C 
ATOM     15  C   UNL     1     -16.060   4.370  24.773  0.00  0.00    +0.029 C 
ATOM     16  C   UNL     1     -14.236   7.588  21.202  0.00  0.00    +0.076 C 
ATOM     17  C   UNL     1     -17.470   4.890  24.496  0.00  0.00    +0.007 C 
ATOM     18  C   UNL     1     -15.649   8.129  20.992  0.00  0.00    +0.023 C 
ATOM     19  C   UNL     1     -17.267   5.554  21.507  0.00  0.00    +0.011 C 
ATOM     21  C   UNL     1     -12.746   5.684  21.911  0.00  0.00    +0.010 C 
ENDROOT
BRANCH  16   5
ATOM      3  O   UNL     1     -12.076   9.434  20.786  0.00  0.00    -0.270 OA
ATOM      5  N   UNL     1     -13.484   7.780  19.978  0.00  0.00    -0.308 N 
ATOM     24  C   UNL     1     -12.456   8.700  19.877  0.00  0.00    +0.247 C 
ATOM     34  H   UNL     1     -13.808   7.282  19.155  0.00  0.00    +0.149 HD
BRANCH  24  25
ATOM      7  N   UNL     1      -9.914   9.420  17.192  0.00  0.00    -0.243 NA
ATOM      8  N   UNL     1     -11.860   8.435  16.167  0.00  0.00    -0.243 NA
ATOM     25  C   UNL     1     -11.802   8.795  18.547  0.00  0.00    +0.073 A 
ATOM     27  C   UNL     1     -10.537   9.319  18.385  0.00  0.00    +0.127 A 
ATOM     28  C   UNL     1     -12.423   8.364  17.391  0.00  0.00    +0.127 A 
ATOM     31  C   UNL     1     -10.623   8.965  16.141  0.00  0.00    +0.221 A 
ENDBRANCH  24  25
ENDBRANCH  16   5
BRANCH  12   1
ATOM      1  O   UNL     1     -13.807   4.177  24.010  0.00  0.00    -0.391 OA
ATOM     35  H   UNL     1     -13.872   3.423  24.622  0.00  0.00    +0.210 HD
ENDBRANCH  12   1
BRANCH  15  20
ATOM     20  C   UNL     1     -16.139   2.929  25.292  0.00  0.00    +0.077 C 
ATOM     22  C   UNL     1     -17.182   2.144  24.504  0.00  0.00    +0.017 C 
BRANCH  20  23
ATOM      2  O   UNL     1     -17.559   2.633  27.230  0.00  0.00    -0.276 OA
ATOM      6  N   UNL     1     -15.361   3.298  27.557  0.00  0.00    -0.308 N 
ATOM     23  C   UNL     1     -16.452   2.929  26.784  0.00  0.00    +0.217 C 
ATOM     36  H   UNL     1     -14.490   3.556  27.101  0.00  0.00    +0.149 HD
BRANCH   6  26
ATOM     26  C   UNL     1     -15.414   3.375  28.998  0.00  0.00    +0.178 C 
BRANCH  26  29
ATOM      4  O   UNL     1     -13.856   1.856  30.082  0.00  0.00    -0.466 OA
ATOM     29  C   UNL     1     -15.128   2.049  29.643  0.00  0.00    +0.122 A 
ATOM     30  C   UNL     1     -15.901   0.941  29.897  0.00  0.00    +0.046 A 
ATOM     32  C   UNL     1     -15.051   0.006  30.534  0.00  0.00    +0.041 A 
ATOM     33  C   UNL     1     -13.817   0.611  30.623  0.00  0.00    +0.195 A 
ENDBRANCH  26  29
ENDBRANCH   6  26
ENDBRANCH  20  23
ENDBRANCH  15  20
TORSDOF 7
ENDMDL
MODEL 2
REMARK VINA RESULT:      -6.9     28.053     32.834
REMARK  Name = 45361631
REMARK  10 active torsions:
REMARK  status: ('A' for Active; 'I' for Inactive)
REMARK    1  A    between atoms: O_1  and  C_12
REMARK    2  A    between atoms: N_5  and  C_16
REMARK    3  A    between atoms: N_6  and  C_26
REMARK    4  A    between atoms: C_9  and  C_19
REMARK    5  A    between atoms: C_11  and  C_21
REMARK    6  A    between atoms: C_15  and  C_20
REMARK    7  A    between atoms: C_20  and  C_22
REMARK    8  A    between atoms: C_20  and  C_23
REMARK    9  A    between atoms: C_24  and  C_25
REMARK   10  A    between atoms: C_26  and  C_29
REMARK                            x       y       z     vdW  Elec       q    Type
REMARK                         _______ _______ _______ _____ _____    ______ ____
ROOT
ATOM      9  C   UNL     1       9.440   6.131   6.176  0.00  0.00    -0.027 C 
ATOM     10  C   UNL     1      10.486   7.205   5.724  0.00  0.00    +0.028 C 
ATOM     11  C   UNL     1      10.020   8.647   6.140  0.00  0.00    +0.012 C 
ATOM     12  C   UNL     1      10.862   7.030   4.225  0.00  0.00    +0.122 C 
ATOM     13  C   UNL     1       9.980   4.718   5.854  0.00  0.00    +0.007 C 
ATOM     14  C   UNL     1       9.251   6.225   7.708  0.00  0.00    +0.009 C 
ATOM     15  C   UNL     1      11.303   5.587   3.888  0.00  0.00    +0.029 C 
ATOM     16  C   UNL     1       9.760   8.709   7.671  0.00  0.00    +0.076 C 
ATOM     17  C   UNL     1      10.313   4.530   4.379  0.00  0.00    +0.007 C 
ATOM     18  C   UNL     1       8.824   7.610   8.173  0.00  0.00    +0.023 C 
ATOM     19  C   UNL     1       8.067   6.309   5.480  0.00  0.00    +0.011 C 
ATOM     21  C   UNL     1      11.018   9.751   5.752  0.00  0.00    +0.010 C 
ENDROOT
BRANCH  16   5
ATOM      3  O   UNL     1      11.051  10.676   9.317  0.00  0.00    -0.270 OA
ATOM      5  N   UNL     1       9.219   9.991   8.072  0.00  0.00    -0.308 N 
ATOM     24  C   UNL     1       9.923  10.874   8.872  0.00  0.00    +0.247 C 
ATOM     34  H   UNL     1       8.253  10.181   7.828  0.00  0.00    +0.149 HD
BRANCH  24  25
ATOM      7  N   UNL     1       8.709  14.438   8.733  0.00  0.00    -0.243 NA
ATOM      8  N   UNL     1       7.750  13.371  10.670  0.00  0.00    -0.243 NA
ATOM     25  C   UNL     1       9.218  12.136   9.217  0.00  0.00    +0.073 A 
ATOM     27  C   UNL     1       9.334  13.275   8.449  0.00  0.00    +0.127 A 
ATOM     28  C   UNL     1       8.404  12.242  10.327  0.00  0.00    +0.127 A 
ATOM     31  C   UNL     1       7.944  14.415   9.841  0.00  0.00    +0.221 A 
ENDBRANCH  24  25
ENDBRANCH  16   5
BRANCH  12   1
ATOM      1  O   UNL     1      11.967   7.878   3.909  0.00  0.00    -0.391 OA
ATOM     35  H   UNL     1      12.241   7.690   2.995  0.00  0.00    +0.210 HD
ENDBRANCH  12   1
BRANCH  15  20
ATOM     20  C   UNL     1      11.544   5.402   2.384  0.00  0.00    +0.077 C 
ATOM     22  C   UNL     1      10.776   4.187   1.875  0.00  0.00    +0.017 C 
BRANCH  20  23
ATOM      2  O   UNL     1      13.810   6.226   2.168  0.00  0.00    -0.276 OA
ATOM      6  N   UNL     1      13.408   3.974   1.788  0.00  0.00    -0.308 N 
ATOM     23  C   UNL     1      13.038   5.271   2.109  0.00  0.00    +0.217 C 
ATOM     36  H   UNL     1      12.697   3.250   1.733  0.00  0.00    +0.149 HD
BRANCH   6  26
ATOM     26  C   UNL     1      14.770   3.602   1.483  0.00  0.00    +0.178 C 
BRANCH  26  29
ATOM      4  O   UNL     1      14.182   3.917  -0.855  0.00  0.00    -0.466 OA
ATOM     29  C   UNL     1      15.161   3.992   0.086  0.00  0.00    +0.122 A 
ATOM     30  C   UNL     1      16.339   4.426  -0.474  0.00  0.00    +0.046 A 
ATOM     32  C   UNL     1      16.068   4.632  -1.848  0.00  0.00    +0.041 A 
ATOM     33  C   UNL     1      14.743   4.308  -2.029  0.00  0.00    +0.195 A 
ENDBRANCH  26  29
ENDBRANCH   6  26
ENDBRANCH  20  23
ENDBRANCH  15  20
TORSDOF 7
ENDMDL
MODEL 3
REMARK VINA RESULT:      -6.9      2.575     10.942
REMARK  Name = 45361631
REMARK  10 active torsions:
REMARK  status: ('A' for Active; 'I' for Inactive)
REMARK    1  A    between atoms: O_1  and  C_12
REMARK    2  A    between atoms: N_5  and  C_16
REMARK    3  A    between atoms: N_6  and  C_26
REMARK    4  A    between atoms: C_9  and  C_19
REMARK    5  A    between atoms: C_11  and  C_21
REMARK    6  A    between atoms: C_15  and  C_20
REMARK    7  A    between atoms: C_20  and  C_22
REMARK    8  A    between atoms: C_20  and  C_23
REMARK    9  A    between atoms: C_24  and  C_25
REMARK   10  A    between atoms: C_26  and  C_29
REMARK                            x       y       z     vdW  Elec       q    Type
REMARK                         _______ _______ _______ _____ _____    ______ ____
ROOT
ATOM      9  C   UNL     1     -15.020   7.498  20.502  0.00  0.00    -0.027 C 
ATOM     10  C   UNL     1     -13.794   6.596  20.868  0.00  0.00    +0.028 C 
ATOM     11  C   UNL     1     -14.021   5.879  22.248  0.00  0.00    +0.012 C 
ATOM     12  C   UNL     1     -12.457   7.379  20.734  0.00  0.00    +0.122 C 
ATOM     13  C   UNL     1     -14.815   8.098  19.091  0.00  0.00    +0.007 C 
ATOM     14  C   UNL     1     -16.295   6.625  20.461  0.00  0.00    +0.009 C 
ATOM     15  C   UNL     1     -12.305   8.063  19.355  0.00  0.00    +0.029 C 
ATOM     16  C   UNL     1     -15.345   5.065  22.220  0.00  0.00    +0.076 C 
ATOM     17  C   UNL     1     -13.525   8.899  18.967  0.00  0.00    +0.007 C 
ATOM     18  C   UNL     1     -16.552   5.884  21.765  0.00  0.00    +0.023 C 
ATOM     19  C   UNL     1     -15.226   8.657  21.510  0.00  0.00    +0.011 C 
ATOM     21  C   UNL     1     -12.865   4.951  22.656  0.00  0.00    +0.010 C 
ENDROOT
BRANCH  16   5
ATOM      3  O   UNL     1     -16.448   2.461  22.716  0.00  0.00    -0.270 OA
ATOM      5  N   UNL     1     -15.645   4.484  23.513  0.00  0.00    -0.308 N 
ATOM     24  C   UNL     1     -16.178   3.214  23.648  0.00  0.00    +0.247 C 
ATOM     34  H   UNL     1     -15.545   5.086  24.323  0.00  0.00    +0.149 HD
BRANCH  24  25
ATOM      7  N   UNL     1     -17.220   1.093  26.582  0.00  0.00    -0.243 NA
ATOM      8  N   UNL     1     -16.461   3.227  27.405  0.00  0.00    -0.243 NA
ATOM     25  C   UNL     1     -16.454   2.775  25.040  0.00  0.00    +0.073 A 
ATOM     27  C   UNL     1     -16.958   1.524  25.329  0.00  0.00    +0.127 A 
ATOM     28  C   UNL     1     -16.222   3.593  26.128  0.00  0.00    +0.127 A 
ATOM     31  C   UNL     1     -16.952   1.982  27.556  0.00  0.00    +0.221 A 
ENDBRANCH  24  25
ENDBRANCH  16   5
BRANCH  12   1
ATOM      1  O   UNL     1     -11.359   6.474  20.863  0.00  0.00    -0.391 OA
ATOM     35  H   UNL     1     -11.319   6.178  21.789  0.00  0.00    +0.210 HD
ENDBRANCH  12   1
BRANCH  15  20
ATOM     20  C   UNL     1     -11.045   8.936  19.289  0.00  0.00    +0.077 C 
ATOM     22  C   UNL     1     -11.282  10.256  20.013  0.00  0.00    +0.017 C 
BRANCH  20  23
ATOM      2  O   UNL     1     -10.215  10.239  17.425  0.00  0.00    -0.276 OA
ATOM      6  N   UNL     1     -10.824   8.033  17.051  0.00  0.00    -0.308 N 
ATOM     23  C   UNL     1     -10.645   9.163  17.835  0.00  0.00    +0.217 C 
ATOM     36  H   UNL     1     -11.214   7.192  17.468  0.00  0.00    +0.149 HD
BRANCH   6  26
ATOM     26  C   UNL     1     -10.518   8.003  15.640  0.00  0.00    +0.178 C 
BRANCH  26  29
ATOM      4  O   UNL     1     -11.471   8.666  13.504  0.00  0.00    -0.466 OA
ATOM     29  C   UNL     1     -11.718   8.324  14.797  0.00  0.00    +0.122 A 
ATOM     30  C   UNL     1     -13.069   8.350  15.054  0.00  0.00    +0.046 A 
ATOM     32  C   UNL     1     -13.693   8.731  13.843  0.00  0.00    +0.041 A 
ATOM     33  C   UNL     1     -12.678   8.912  12.931  0.00  0.00    +0.195 A 
ENDBRANCH  26  29
ENDBRANCH   6  26
ENDBRANCH  20  23
ENDBRANCH  15  20
TORSDOF 7
ENDMDL
MODEL 4
REMARK VINA RESULT:      -6.8     18.823     21.796
REMARK  Name = 45361631
REMARK  10 active torsions:
REMARK  status: ('A' for Active; 'I' for Inactive)
REMARK    1  A    between atoms: O_1  and  C_12
REMARK    2  A    between atoms: N_5  and  C_16
REMARK    3  A    between atoms: N_6  and  C_26
REMARK    4  A    between atoms: C_9  and  C_19
REMARK    5  A    between atoms: C_11  and  C_21
REMARK    6  A    between atoms: C_15  and  C_20
REMARK    7  A    between atoms: C_20  and  C_22
REMARK    8  A    between atoms: C_20  and  C_23
REMARK    9  A    between atoms: C_24  and  C_25
REMARK   10  A    between atoms: C_26  and  C_29
REMARK                            x       y       z     vdW  Elec       q    Type
REMARK                         _______ _______ _______ _____ _____    ______ ____
ROOT
ATOM      9  C   UNL     1      -4.726 -11.025  16.909  0.00  0.00    -0.027 C 
ATOM     10  C   UNL     1      -5.502 -10.400  15.702  0.00  0.00    +0.028 C 
ATOM     11  C   UNL     1      -7.054 -10.503  15.923  0.00  0.00    +0.012 C 
ATOM     12  C   UNL     1      -4.982 -10.959  14.347  0.00  0.00    +0.122 C 
ATOM     13  C   UNL     1      -3.207 -10.806  16.714  0.00  0.00    +0.007 C 
ATOM     14  C   UNL     1      -5.142 -10.296  18.208  0.00  0.00    +0.009 C 
ATOM     15  C   UNL     1      -3.447 -10.831  14.201  0.00  0.00    +0.029 C 
ATOM     16  C   UNL     1      -7.451  -9.834  17.269  0.00  0.00    +0.076 C 
ATOM     17  C   UNL     1      -2.686 -11.387  15.405  0.00  0.00    +0.007 C 
ATOM     18  C   UNL     1      -6.642 -10.340  18.462  0.00  0.00    +0.023 C 
ATOM     19  C   UNL     1      -4.993 -12.543  17.066  0.00  0.00    +0.011 C 
ATOM     21  C   UNL     1      -7.880  -9.880  14.786  0.00  0.00    +0.010 C 
ENDROOT
BRANCH  16   5
ATOM      3  O   UNL     1      -9.458  -7.781  17.349  0.00  0.00    -0.270 OA
ATOM      5  N   UNL     1      -8.859 -10.011  17.561  0.00  0.00    -0.308 N 
ATOM     24  C   UNL     1      -9.751  -8.952  17.575  0.00  0.00    +0.247 C 
ATOM     34  H   UNL     1      -9.157 -10.934  17.859  0.00  0.00    +0.149 HD
BRANCH  24  25
ATOM      7  N   UNL     1     -12.750 -10.271  19.435  0.00  0.00    -0.243 NA
ATOM      8  N   UNL     1     -13.498  -9.281  17.369  0.00  0.00    -0.243 NA
ATOM     25  C   UNL     1     -11.155  -9.295  17.920  0.00  0.00    +0.073 A 
ATOM     27  C   UNL     1     -11.486  -9.944  19.091  0.00  0.00    +0.127 A 
ATOM     28  C   UNL     1     -12.212  -8.984  17.088  0.00  0.00    +0.127 A 
ATOM     31  C   UNL     1     -13.692  -9.914  18.541  0.00  0.00    +0.221 A 
ENDBRANCH  24  25
ENDBRANCH  16   5
BRANCH  12   1
ATOM      1  O   UNL     1      -5.557 -10.214  13.272  0.00  0.00    -0.391 OA
ATOM     35  H   UNL     1      -4.944  -9.496  13.040  0.00  0.00    +0.210 HD
ENDBRANCH  12   1
BRANCH  15  20
ATOM     20  C   UNL     1      -2.940 -11.504  12.920  0.00  0.00    +0.077 C 
ATOM     22  C   UNL     1      -1.755 -12.410  13.236  0.00  0.00    +0.017 C 
BRANCH  20  23
ATOM      2  O   UNL     1      -1.458  -9.922  11.842  0.00  0.00    -0.276 OA
ATOM      6  N   UNL     1      -3.618 -10.149  11.028  0.00  0.00    -0.308 N 
ATOM     23  C   UNL     1      -2.570 -10.444  11.887  0.00  0.00    +0.217 C 
ATOM     36  H   UNL     1      -4.515 -10.610  11.157  0.00  0.00    +0.149 HD
BRANCH   6  26
ATOM     26  C   UNL     1      -3.509  -9.175   9.968  0.00  0.00    +0.178 C 
BRANCH  26  29
ATOM      4  O   UNL     1      -5.714  -8.210   9.628  0.00  0.00    -0.466 OA
ATOM     29  C   UNL     1      -4.773  -9.075   9.164  0.00  0.00    +0.122 A 
ATOM     30  C   UNL     1      -5.207  -9.691   8.013  0.00  0.00    +0.046 A 
ATOM     32  C   UNL     1      -6.498  -9.172   7.753  0.00  0.00    +0.041 A 
ATOM     33  C   UNL     1      -6.760  -8.275   8.764  0.00  0.00    +0.195 A 
ENDBRANCH  26  29
ENDBRANCH   6  26
ENDBRANCH  20  23
ENDBRANCH  15  20
TORSDOF 7
ENDMDL
MODEL 5
REMARK VINA RESULT:      -6.6     20.246     21.772
REMARK  Name = 45361631
REMARK  10 active torsions:
REMARK  status: ('A' for Active; 'I' for Inactive)
REMARK    1  A    between atoms: O_1  and  C_12
REMARK    2  A    between atoms: N_5  and  C_16
REMARK    3  A    between atoms: N_6  and  C_26
REMARK    4  A    between atoms: C_9  and  C_19
REMARK    5  A    between atoms: C_11  and  C_21
REMARK    6  A    between atoms: C_15  and  C_20
REMARK    7  A    between atoms: C_20  and  C_22
REMARK    8  A    between atoms: C_20  and  C_23
REMARK    9  A    between atoms: C_24  and  C_25
REMARK   10  A    between atoms: C_26  and  C_29
REMARK                            x       y       z     vdW  Elec       q    Type
REMARK                         _______ _______ _______ _____ _____    ______ ____
ROOT
ATOM      9  C   UNL     1      -3.168 -11.367  11.746  0.00  0.00    -0.027 C 
ATOM     10  C   UNL     1      -4.506 -10.882  12.398  0.00  0.00    +0.028 C 
ATOM     11  C   UNL     1      -5.290  -9.933  11.421  0.00  0.00    +0.012 C 
ATOM     12  C   UNL     1      -4.266 -10.318  13.828  0.00  0.00    +0.122 C 
ATOM     13  C   UNL     1      -2.478 -12.386  12.685  0.00  0.00    +0.007 C 
ATOM     14  C   UNL     1      -3.487 -12.092  10.418  0.00  0.00    +0.009 C 
ATOM     15  C   UNL     1      -3.484 -11.301  14.730  0.00  0.00    +0.029 C 
ATOM     16  C   UNL     1      -5.539 -10.645  10.062  0.00  0.00    +0.076 C 
ATOM     17  C   UNL     1      -2.206 -11.824  14.075  0.00  0.00    +0.007 C 
ATOM     18  C   UNL     1      -4.270 -11.229   9.441  0.00  0.00    +0.023 C 
ATOM     19  C   UNL     1      -2.185 -10.202  11.469  0.00  0.00    +0.011 C 
ATOM     21  C   UNL     1      -6.633  -9.441  11.987  0.00  0.00    +0.010 C 
ENDROOT
BRANCH  16   5
ATOM      3  O   UNL     1      -7.779 -11.249   8.370  0.00  0.00    -0.270 OA
ATOM      5  N   UNL     1      -6.158  -9.760   9.097  0.00  0.00    -0.308 N 
ATOM     24  C   UNL     1      -7.239 -10.146   8.325  0.00  0.00    +0.247 C 
ATOM     34  H   UNL     1      -5.703  -8.868   8.931  0.00  0.00    +0.149 HD
BRANCH  24  25
ATOM      7  N   UNL     1      -8.307  -8.494   5.112  0.00  0.00    -0.243 NA
ATOM      8  N   UNL     1      -8.583  -6.921   6.917  0.00  0.00    -0.243 NA
ATOM     25  C   UNL     1      -7.741  -9.131   7.363  0.00  0.00    +0.073 A 
ATOM     27  C   UNL     1      -7.855  -9.392   6.013  0.00  0.00    +0.127 A 
ATOM     28  C   UNL     1      -8.123  -7.866   7.762  0.00  0.00    +0.127 A 
ATOM     31  C   UNL     1      -8.648  -7.297   5.625  0.00  0.00    +0.221 A 
ENDBRANCH  24  25
ENDBRANCH  16   5
BRANCH  12   1
ATOM      1  O   UNL     1      -5.523 -10.089  14.467  0.00  0.00    -0.391 OA
ATOM     35  H   UNL     1      -6.128 -10.805  14.209  0.00  0.00    +0.210 HD
ENDBRANCH  12   1
BRANCH  15  20
ATOM     20  C   UNL     1      -3.144 -10.678  16.089  0.00  0.00    +0.077 C 
ATOM     22  C   UNL     1      -1.634 -10.672  16.301  0.00  0.00    +0.017 C 
BRANCH  20  23
ATOM      2  O   UNL     1      -3.472 -11.422  18.370  0.00  0.00    -0.276 OA
ATOM      6  N   UNL     1      -4.971 -12.128  16.747  0.00  0.00    -0.308 N 
ATOM     23  C   UNL     1      -3.859 -11.436  17.203  0.00  0.00    +0.217 C 
ATOM     36  H   UNL     1      -5.201 -12.108  15.757  0.00  0.00    +0.149 HD
BRANCH   6  26
ATOM     26  C   UNL     1      -5.807 -12.923  17.616  0.00  0.00    +0.178 C 
BRANCH  26  29
ATOM      4  O   UNL     1      -7.547 -11.247  17.340  0.00  0.00    -0.466 OA
ATOM     29  C   UNL     1      -6.944 -12.124  18.186  0.00  0.00    +0.122 A 
ATOM     30  C   UNL     1      -7.535 -12.082  19.427  0.00  0.00    +0.046 A 
ATOM     32  C   UNL     1      -8.568 -11.118  19.339  0.00  0.00    +0.041 A 
ATOM     33  C   UNL     1      -8.533 -10.639  18.049  0.00  0.00    +0.195 A 
ENDBRANCH  26  29
ENDBRANCH   6  26
ENDBRANCH  20  23
ENDBRANCH  15  20
TORSDOF 7
ENDMDL
MODEL 6
REMARK VINA RESULT:      -6.6     19.905     23.214
REMARK  Name = 45361631
REMARK  10 active torsions:
REMARK  status: ('A' for Active; 'I' for Inactive)
REMARK    1  A    between atoms: O_1  and  C_12
REMARK    2  A    between atoms: N_5  and  C_16
REMARK    3  A    between atoms: N_6  and  C_26
REMARK    4  A    between atoms: C_9  and  C_19
REMARK    5  A    between atoms: C_11  and  C_21
REMARK    6  A    between atoms: C_15  and  C_20
REMARK    7  A    between atoms: C_20  and  C_22
REMARK    8  A    between atoms: C_20  and  C_23
REMARK    9  A    between atoms: C_24  and  C_25
REMARK   10  A    between atoms: C_26  and  C_29
REMARK                            x       y       z     vdW  Elec       q    Type
REMARK                         _______ _______ _______ _____ _____    ______ ____
ROOT
ATOM      9  C   UNL     1      -4.998 -11.266  17.976  0.00  0.00    -0.027 C 
ATOM     10  C   UNL     1      -5.765 -12.316  17.104  0.00  0.00    +0.028 C 
ATOM     11  C   UNL     1      -6.584 -13.303  18.011  0.00  0.00    +0.012 C 
ATOM     12  C   UNL     1      -4.819 -12.988  16.068  0.00  0.00    +0.122 C 
ATOM     13  C   UNL     1      -4.295 -10.243  17.052  0.00  0.00    +0.007 C 
ATOM     14  C   UNL     1      -6.015 -10.493  18.846  0.00  0.00    +0.009 C 
ATOM     15  C   UNL     1      -4.042 -11.958  15.217  0.00  0.00    +0.029 C 
ATOM     16  C   UNL     1      -7.549 -12.510  18.936  0.00  0.00    +0.076 C 
ATOM     17  C   UNL     1      -3.339 -10.895  16.062  0.00  0.00    +0.007 C 
ATOM     18  C   UNL     1      -6.858 -11.402  19.729  0.00  0.00    +0.023 C 
ATOM     19  C   UNL     1      -3.934 -11.920  18.893  0.00  0.00    +0.011 C 
ATOM     21  C   UNL     1      -7.388 -14.345  17.216  0.00  0.00    +0.010 C 
ENDROOT
BRANCH  16   5
ATOM      3  O   UNL     1     -10.217 -12.176  19.946  0.00  0.00    -0.270 OA
ATOM      5  N   UNL     1      -8.237 -13.381  19.867  0.00  0.00    -0.308 N 
ATOM     24  C   UNL     1      -9.529 -13.133  20.296  0.00  0.00    +0.247 C 
ATOM     34  H   UNL     1      -7.697 -14.134  20.279  0.00  0.00    +0.149 HD
BRANCH  24  25
ATOM      7  N   UNL     1     -11.925 -14.912  22.595  0.00  0.00    -0.243 NA
ATOM      8  N   UNL     1      -9.792 -16.029  22.691  0.00  0.00    -0.243 NA
ATOM     25  C   UNL     1     -10.083 -14.105  21.273  0.00  0.00    +0.073 A 
ATOM     27  C   UNL     1     -11.390 -14.045  21.709  0.00  0.00    +0.127 A 
ATOM     28  C   UNL     1      -9.322 -15.129  21.802  0.00  0.00    +0.127 A 
ATOM     31  C   UNL     1     -11.083 -15.864  23.038  0.00  0.00    +0.221 A 
ENDBRANCH  24  25
ENDBRANCH  16   5
BRANCH  12   1
ATOM      1  O   UNL     1      -5.591 -13.771  15.156  0.00  0.00    -0.391 OA
ATOM     35  H   UNL     1      -6.393 -14.071  15.618  0.00  0.00    +0.210 HD
ENDBRANCH  12   1
BRANCH  15  20
ATOM     20  C   UNL     1      -3.021 -12.636  14.295  0.00  0.00    +0.077 C 
ATOM     22  C   UNL     1      -1.649 -11.994  14.468  0.00  0.00    +0.017 C 
BRANCH  20  23
ATOM      2  O   UNL     1      -4.340 -13.316  12.382  0.00  0.00    -0.276 OA
ATOM      6  N   UNL     1      -2.863 -11.545  12.136  0.00  0.00    -0.308 N 
ATOM     23  C   UNL     1      -3.494 -12.556  12.847  0.00  0.00    +0.217 C 
ATOM     36  H   UNL     1      -2.152 -10.981  12.594  0.00  0.00    +0.149 HD
BRANCH   6  26
ATOM     26  C   UNL     1      -3.143 -11.276  10.745  0.00  0.00    +0.178 C 
BRANCH  26  29
ATOM      4  O   UNL     1      -4.855  -9.771  11.589  0.00  0.00    -0.466 OA
ATOM     29  C   UNL     1      -4.002 -10.057  10.570  0.00  0.00    +0.122 A 
ATOM     30  C   UNL     1      -4.121  -9.127   9.564  0.00  0.00    +0.046 A 
ATOM     32  C   UNL     1      -5.111  -8.209   9.992  0.00  0.00    +0.041 A 
ATOM     33  C   UNL     1      -5.526  -8.646  11.229  0.00  0.00    +0.195 A 
ENDBRANCH  26  29
ENDBRANCH   6  26
ENDBRANCH  20  23
ENDBRANCH  15  20
TORSDOF 7
ENDMDL
MODEL 7
REMARK VINA RESULT:      -6.6     29.194     35.318
REMARK  Name = 45361631
REMARK  10 active torsions:
REMARK  status: ('A' for Active; 'I' for Inactive)
REMARK    1  A    between atoms: O_1  and  C_12
REMARK    2  A    between atoms: N_5  and  C_16
REMARK    3  A    between atoms: N_6  and  C_26
REMARK    4  A    between atoms: C_9  and  C_19
REMARK    5  A    between atoms: C_11  and  C_21
REMARK    6  A    between atoms: C_15  and  C_20
REMARK    7  A    between atoms: C_20  and  C_22
REMARK    8  A    between atoms: C_20  and  C_23
REMARK    9  A    between atoms: C_24  and  C_25
REMARK   10  A    between atoms: C_26  and  C_29
REMARK                            x       y       z     vdW  Elec       q    Type
REMARK                         _______ _______ _______ _____ _____    ______ ____
ROOT
ATOM      9  C   UNL     1      13.883   4.855   0.575  0.00  0.00    -0.027 C 
ATOM     10  C   UNL     1      12.326   4.766   0.433  0.00  0.00    +0.028 C 
ATOM     11  C   UNL     1      11.642   4.664   1.844  0.00  0.00    +0.012 C 
ATOM     12  C   UNL     1      11.915   3.668  -0.590  0.00  0.00    +0.122 C 
ATOM     13  C   UNL     1      14.516   5.068  -0.821  0.00  0.00    +0.007 C 
ATOM     14  C   UNL     1      14.241   6.082   1.446  0.00  0.00    +0.009 C 
ATOM     15  C   UNL     1      12.631   3.826  -1.951  0.00  0.00    +0.029 C 
ATOM     16  C   UNL     1      12.070   5.863   2.737  0.00  0.00    +0.076 C 
ATOM     17  C   UNL     1      14.147   3.973  -1.814  0.00  0.00    +0.007 C 
ATOM     18  C   UNL     1      13.584   6.051   2.818  0.00  0.00    +0.023 C 
ATOM     19  C   UNL     1      14.496   3.581   1.210  0.00  0.00    +0.011 C 
ATOM     21  C   UNL     1      10.107   4.603   1.780  0.00  0.00    +0.010 C 
ENDROOT
BRANCH  16   5
ATOM      3  O   UNL     1      10.103   7.550   3.975  0.00  0.00    -0.270 OA
ATOM      5  N   UNL     1      11.549   5.741   4.083  0.00  0.00    -0.308 N 
ATOM     24  C   UNL     1      10.598   6.609   4.591  0.00  0.00    +0.247 C 
ATOM     34  H   UNL     1      11.985   5.051   4.686  0.00  0.00    +0.149 HD
BRANCH  24  25
ATOM      7  N   UNL     1       9.839   4.852   7.835  0.00  0.00    -0.243 NA
ATOM      8  N   UNL     1       9.387   7.204   8.108  0.00  0.00    -0.243 NA
ATOM     25  C   UNL     1      10.188   6.367   5.998  0.00  0.00    +0.073 A 
ATOM     27  C   UNL     1      10.205   5.108   6.561  0.00  0.00    +0.127 A 
ATOM     28  C   UNL     1       9.766   7.388   6.826  0.00  0.00    +0.127 A 
ATOM     31  C   UNL     1       9.447   5.930   8.541  0.00  0.00    +0.221 A 
ENDBRANCH  24  25
ENDBRANCH  16   5
BRANCH  12   1
ATOM      1  O   UNL     1      10.514   3.762  -0.852  0.00  0.00    -0.391 OA
ATOM     35  H   UNL     1      10.354   3.444  -1.757  0.00  0.00    +0.210 HD
ENDBRANCH  12   1
BRANCH  15  20
ATOM     20  C   UNL     1      12.314   2.664  -2.899  0.00  0.00    +0.077 C 
ATOM     22  C   UNL     1      13.099   2.815  -4.197  0.00  0.00    +0.017 C 
BRANCH  20  23
ATOM      2  O   UNL     1      10.102   1.691  -2.739  0.00  0.00    -0.276 OA
ATOM      6  N   UNL     1      10.360   3.670  -3.920  0.00  0.00    -0.308 N 
ATOM     23  C   UNL     1      10.813   2.601  -3.162  0.00  0.00    +0.217 C 
ATOM     36  H   UNL     1      11.025   4.364  -4.253  0.00  0.00    +0.149 HD
BRANCH   6  26
ATOM     26  C   UNL     1       8.976   3.829  -4.300  0.00  0.00    +0.178 C 
BRANCH  26  29
ATOM      4  O   UNL     1       9.012   5.641  -2.680  0.00  0.00    -0.466 OA
ATOM     29  C   UNL     1       8.385   5.098  -3.757  0.00  0.00    +0.122 A 
ATOM     30  C   UNL     1       7.304   5.865  -4.125  0.00  0.00    +0.046 A 
ATOM     32  C   UNL     1       7.264   6.949  -3.216  0.00  0.00    +0.041 A 
ATOM     33  C   UNL     1       8.324   6.766  -2.357  0.00  0.00    +0.195 A 
ENDBRANCH  26  29
ENDBRANCH   6  26
ENDBRANCH  20  23
ENDBRANCH  15  20
TORSDOF 7
ENDMDL
MODEL 8
REMARK VINA RESULT:      -6.5      7.361     10.660
REMARK  Name = 45361631
REMARK  10 active torsions:
REMARK  status: ('A' for Active; 'I' for Inactive)
REMARK    1  A    between atoms: O_1  and  C_12
REMARK    2  A    between atoms: N_5  and  C_16
REMARK    3  A    between atoms: N_6  and  C_26
REMARK    4  A    between atoms: C_9  and  C_19
REMARK    5  A    between atoms: C_11  and  C_21
REMARK    6  A    between atoms: C_15  and  C_20
REMARK    7  A    between atoms: C_20  and  C_22
REMARK    8  A    between atoms: C_20  and  C_23
REMARK    9  A    between atoms: C_24  and  C_25
REMARK   10  A    between atoms: C_26  and  C_29
REMARK                            x       y       z     vdW  Elec       q    Type
REMARK                         _______ _______ _______ _____ _____    ______ ____
ROOT
ATOM      9  C   UNL     1     -14.606   2.156  31.230  0.00  0.00    -0.027 C 
ATOM     10  C   UNL     1     -15.833   3.100  30.994  0.00  0.00    +0.028 C 
ATOM     11  C   UNL     1     -16.317   3.023  29.502  0.00  0.00    +0.012 C 
ATOM     12  C   UNL     1     -15.554   4.532  31.534  0.00  0.00    +0.122 C 
ATOM     13  C   UNL     1     -14.226   2.169  32.730  0.00  0.00    +0.007 C 
ATOM     14  C   UNL     1     -15.004   0.709  30.858  0.00  0.00    +0.009 C 
ATOM     15  C   UNL     1     -15.076   4.530  33.005  0.00  0.00    +0.029 C 
ATOM     16  C   UNL     1     -16.641   1.553  29.116  0.00  0.00    +0.076 C 
ATOM     17  C   UNL     1     -13.915   3.566  33.253  0.00  0.00    +0.007 C 
ATOM     18  C   UNL     1     -15.507   0.578  29.428  0.00  0.00    +0.023 C 
ATOM     19  C   UNL     1     -13.366   2.575  30.400  0.00  0.00    +0.011 C 
ATOM     21  C   UNL     1     -17.541   3.906  29.206  0.00  0.00    +0.010 C 
ENDROOT
BRANCH  16   5
ATOM      3  O   UNL     1     -18.669  -0.137  27.984  0.00  0.00    -0.270 OA
ATOM      5  N   UNL     1     -16.981   1.429  27.713  0.00  0.00    -0.308 N 
ATOM     24  C   UNL     1     -17.979   0.582  27.265  0.00  0.00    +0.247 C 
ATOM     34  H   UNL     1     -16.386   1.914  27.050  0.00  0.00    +0.149 HD
BRANCH  24  25
ATOM      7  N   UNL     1     -17.528   1.228  23.581  0.00  0.00    -0.243 NA
ATOM      8  N   UNL     1     -19.427  -0.225  23.882  0.00  0.00    -0.243 NA
ATOM     25  C   UNL     1     -18.186   0.549  25.794  0.00  0.00    +0.073 A 
ATOM     27  C   UNL     1     -17.369   1.236  24.922  0.00  0.00    +0.127 A 
ATOM     28  C   UNL     1     -19.210  -0.173  25.213  0.00  0.00    +0.127 A 
ATOM     31  C   UNL     1     -18.561   0.487  23.136  0.00  0.00    +0.221 A 
ENDBRANCH  24  25
ENDBRANCH  16   5
BRANCH  12   1
ATOM      1  O   UNL     1     -16.760   5.297  31.499  0.00  0.00    -0.391 OA
ATOM     35  H   UNL     1     -17.344   4.910  30.825  0.00  0.00    +0.210 HD
ENDBRANCH  12   1
BRANCH  15  20
ATOM     20  C   UNL     1     -14.683   5.935  33.477  0.00  0.00    +0.077 C 
ATOM     22  C   UNL     1     -13.617   6.520  32.556  0.00  0.00    +0.017 C 
BRANCH  20  23
ATOM      2  O   UNL     1     -14.614   5.054  35.731  0.00  0.00    -0.276 OA
ATOM      6  N   UNL     1     -13.260   6.862  35.206  0.00  0.00    -0.308 N 
ATOM     23  C   UNL     1     -14.200   5.883  34.923  0.00  0.00    +0.217 C 
ATOM     36  H   UNL     1     -12.996   7.526  34.483  0.00  0.00    +0.149 HD
BRANCH   6  26
ATOM     26  C   UNL     1     -12.658   7.014  36.510  0.00  0.00    +0.178 C 
BRANCH  26  29
ATOM      4  O   UNL     1     -11.497   8.928  35.560  0.00  0.00    -0.466 OA
ATOM     29  C   UNL     1     -11.462   7.923  36.475  0.00  0.00    +0.122 A 
ATOM     30  C   UNL     1     -10.291   7.963  37.194  0.00  0.00    +0.046 A 
ATOM     32  C   UNL     1      -9.558   9.064  36.690  0.00  0.00    +0.041 A 
ATOM     33  C   UNL     1     -10.336   9.618  35.698  0.00  0.00    +0.195 A 
ENDBRANCH  26  29
ENDBRANCH   6  26
ENDBRANCH  20  23
ENDBRANCH  15  20
TORSDOF 7
ENDMDL
MODEL 9
REMARK VINA RESULT:      -6.4      6.540      9.734
REMARK  Name = 45361631
REMARK  10 active torsions:
REMARK  status: ('A' for Active; 'I' for Inactive)
REMARK    1  A    between atoms: O_1  and  C_12
REMARK    2  A    between atoms: N_5  and  C_16
REMARK    3  A    between atoms: N_6  and  C_26
REMARK    4  A    between atoms: C_9  and  C_19
REMARK    5  A    between atoms: C_11  and  C_21
REMARK    6  A    between atoms: C_15  and  C_20
REMARK    7  A    between atoms: C_20  and  C_22
REMARK    8  A    between atoms: C_20  and  C_23
REMARK    9  A    between atoms: C_24  and  C_25
REMARK   10  A    between atoms: C_26  and  C_29
REMARK                            x       y       z     vdW  Elec       q    Type
REMARK                         _______ _______ _______ _____ _____    ______ ____
ROOT
ATOM      9  C   UNL     1     -14.884   1.759  31.171  0.00  0.00    -0.027 C 
ATOM     10  C   UNL     1     -16.194   2.593  30.972  0.00  0.00    +0.028 C 
ATOM     11  C   UNL     1     -16.507   2.785  29.444  0.00  0.00    +0.012 C 
ATOM     12  C   UNL     1     -16.165   3.899  31.817  0.00  0.00    +0.122 C 
ATOM     13  C   UNL     1     -14.667   1.493  32.679  0.00  0.00    +0.007 C 
ATOM     14  C   UNL     1     -15.046   0.391  30.470  0.00  0.00    +0.009 C 
ATOM     15  C   UNL     1     -15.845   3.635  33.307  0.00  0.00    +0.029 C 
ATOM     16  C   UNL     1     -16.593   1.405  28.735  0.00  0.00    +0.076 C 
ATOM     17  C   UNL     1     -14.599   2.772  33.505  0.00  0.00    +0.007 C 
ATOM     18  C   UNL     1     -15.378   0.514  28.990  0.00  0.00    +0.023 C 
ATOM     19  C   UNL     1     -13.632   2.477  30.607  0.00  0.00    +0.011 C 
ATOM     21  C   UNL     1     -17.800   3.573  29.175  0.00  0.00    +0.010 C 
ENDROOT
BRANCH  16   5
ATOM      3  O   UNL     1     -18.368  -0.111  27.063  0.00  0.00    -0.270 OA
ATOM      5  N   UNL     1     -16.766   1.547  27.304  0.00  0.00    -0.308 N 
ATOM     24  C   UNL     1     -17.652   0.764  26.584  0.00  0.00    +0.247 C 
ATOM     34  H   UNL     1     -16.134   2.178  26.823  0.00  0.00    +0.149 HD
BRANCH  24  25
ATOM      7  N   UNL     1     -16.962   2.266  23.199  0.00  0.00    -0.243 NA
ATOM      8  N   UNL     1     -18.536   0.461  22.935  0.00  0.00    -0.243 NA
ATOM     25  C   UNL     1     -17.692   1.014  25.120  0.00  0.00    +0.073 A 
ATOM     27  C   UNL     1     -16.949   2.011  24.524  0.00  0.00    +0.127 A 
ATOM     28  C   UNL     1     -18.476   0.262  24.268  0.00  0.00    +0.127 A 
ATOM     31  C   UNL     1     -17.765   1.464  22.474  0.00  0.00    +0.221 A 
ENDBRANCH  24  25
ENDBRANCH  16   5
BRANCH  12   1
ATOM      1  O   UNL     1     -17.451   4.519  31.780  0.00  0.00    -0.391 OA
ATOM     35  H   UNL     1     -17.328   5.479  31.879  0.00  0.00    +0.210 HD
ENDBRANCH  12   1
BRANCH  15  20
ATOM     20  C   UNL     1     -15.692   4.942  34.096  0.00  0.00    +0.077 C 
ATOM     22  C   UNL     1     -17.055   5.425  34.580  0.00  0.00    +0.017 C 
BRANCH  20  23
ATOM      2  O   UNL     1     -13.818   5.918  32.915  0.00  0.00    -0.276 OA
ATOM      6  N   UNL     1     -15.857   7.021  32.862  0.00  0.00    -0.308 N 
ATOM     23  C   UNL     1     -15.003   5.994  33.232  0.00  0.00    +0.217 C 
ATOM     36  H   UNL     1     -16.818   7.017  33.195  0.00  0.00    +0.149 HD
BRANCH   6  26
ATOM     26  C   UNL     1     -15.433   8.134  32.046  0.00  0.00    +0.178 C 
BRANCH  26  29
ATOM      4  O   UNL     1     -16.737   6.974  30.353  0.00  0.00    -0.466 OA
ATOM     29  C   UNL     1     -16.076   8.114  30.688  0.00  0.00    +0.122 A 
ATOM     30  C   UNL     1     -16.146   9.032  29.667  0.00  0.00    +0.046 A 
ATOM     32  C   UNL     1     -16.899   8.418  28.638  0.00  0.00    +0.041 A 
ATOM     33  C   UNL     1     -17.235   7.168  29.104  0.00  0.00    +0.195 A 
ENDBRANCH  26  29
ENDBRANCH   6  26
ENDBRANCH  20  23
ENDBRANCH  15  20
TORSDOF 7
ENDMDL
MODEL 10
REMARK VINA RESULT:      -6.3     21.635     25.014
REMARK  Name = 45361631
REMARK  10 active torsions:
REMARK  status: ('A' for Active; 'I' for Inactive)
REMARK    1  A    between atoms: O_1  and  C_12
REMARK    2  A    between atoms: N_5  and  C_16
REMARK    3  A    between atoms: N_6  and  C_26
REMARK    4  A    between atoms: C_9  and  C_19
REMARK    5  A    between atoms: C_11  and  C_21
REMARK    6  A    between atoms: C_15  and  C_20
REMARK    7  A    between atoms: C_20  and  C_22
REMARK    8  A    between atoms: C_20  and  C_23
REMARK    9  A    between atoms: C_24  and  C_25
REMARK   10  A    between atoms: C_26  and  C_29
REMARK                            x       y       z     vdW  Elec       q    Type
REMARK                         _______ _______ _______ _____ _____    ______ ____
ROOT
ATOM      9  C   UNL     1      -5.671 -11.316   7.969  0.00  0.00    -0.027 C 
ATOM     10  C   UNL     1      -5.622  -9.839   8.485  0.00  0.00    +0.028 C 
ATOM     11  C   UNL     1      -5.324  -9.796  10.027  0.00  0.00    +0.012 C 
ATOM     12  C   UNL     1      -6.874  -9.039   8.023  0.00  0.00    +0.122 C 
ATOM     13  C   UNL     1      -5.853 -11.320   6.432  0.00  0.00    +0.007 C 
ATOM     14  C   UNL     1      -4.323 -12.005   8.285  0.00  0.00    +0.009 C 
ATOM     15  C   UNL     1      -7.110  -9.132   6.498  0.00  0.00    +0.029 C 
ATOM     16  C   UNL     1      -4.007 -10.557  10.342  0.00  0.00    +0.076 C 
ATOM     17  C   UNL     1      -7.099 -10.570   5.979  0.00  0.00    +0.007 C 
ATOM     18  C   UNL     1      -3.968 -11.971   9.764  0.00  0.00    +0.023 C 
ATOM     19  C   UNL     1      -6.824 -12.131   8.607  0.00  0.00    +0.011 C 
ATOM     21  C   UNL     1      -5.234  -8.370  10.596  0.00  0.00    +0.010 C 
ENDROOT
BRANCH  16   5
ATOM      3  O   UNL     1      -1.553  -9.932  11.697  0.00  0.00    -0.270 OA
ATOM      5  N   UNL     1      -3.761 -10.636  11.767  0.00  0.00    -0.308 N 
ATOM     24  C   UNL     1      -2.537 -10.312  12.327  0.00  0.00    +0.247 C 
ATOM     34  H   UNL     1      -4.494 -11.040  12.340  0.00  0.00    +0.149 HD
BRANCH  24  25
ATOM      7  N   UNL     1      -1.161 -10.304  15.834  0.00  0.00    -0.243 NA
ATOM      8  N   UNL     1      -3.438 -11.092  15.900  0.00  0.00    -0.243 NA
ATOM     25  C   UNL     1      -2.437 -10.473  13.800  0.00  0.00    +0.073 A 
ATOM     27  C   UNL     1      -1.286 -10.170  14.496  0.00  0.00    +0.127 A 
ATOM     28  C   UNL     1      -3.493 -10.934  14.561  0.00  0.00    +0.127 A 
ATOM     31  C   UNL     1      -2.260 -10.763  16.463  0.00  0.00    +0.221 A 
ENDBRANCH  24  25
ENDBRANCH  16   5
BRANCH  12   1
ATOM      1  O   UNL     1      -6.693  -7.655   8.324  0.00  0.00    -0.391 OA
ATOM     35  H   UNL     1      -6.825  -7.533   9.280  0.00  0.00    +0.210 HD
ENDBRANCH  12   1
BRANCH  15  20
ATOM     20  C   UNL     1      -8.417  -8.448   6.081  0.00  0.00    +0.077 C 
ATOM     22  C   UNL     1      -9.580  -8.994   6.902  0.00  0.00    +0.017 C 
BRANCH  20  23
ATOM      2  O   UNL     1      -9.458  -9.456   4.141  0.00  0.00    -0.276 OA
ATOM      6  N   UNL     1      -7.863  -7.804   3.811  0.00  0.00    -0.308 N 
ATOM     23  C   UNL     1      -8.653  -8.640   4.586  0.00  0.00    +0.217 C 
ATOM     36  H   UNL     1      -7.201  -7.180   4.265  0.00  0.00    +0.149 HD
BRANCH   6  26
ATOM     26  C   UNL     1      -7.906  -7.805   2.368  0.00  0.00    +0.178 C 
BRANCH  26  29
ATOM      4  O   UNL     1      -9.743  -7.711   0.778  0.00  0.00    -0.466 OA
ATOM     29  C   UNL     1      -9.135  -7.121   1.841  0.00  0.00    +0.122 A 
ATOM     30  C   UNL     1      -9.809  -5.982   2.214  0.00  0.00    +0.046 A 
ATOM     32  C   UNL     1     -10.902  -5.863   1.322  0.00  0.00    +0.041 A 
ATOM     33  C   UNL     1     -10.817  -6.939   0.468  0.00  0.00    +0.195 A 
ENDBRANCH  26  29
ENDBRANCH   6  26
ENDBRANCH  20  23
ENDBRANCH  15  20
TORSDOF 7
ENDMDL
