MODEL 1
REMARK VINA RESULT:      -7.9      0.000      0.000
REMARK  Name = 11941660
REMARK  8 active torsions:
REMARK  status: ('A' for Active; 'I' for Inactive)
REMARK    1  A    between atoms: O_4  and  C_33
REMARK    2  A    between atoms: O_4  and  C_36
REMARK    3  A    between atoms: N_6  and  C_13
REMARK    4  A    between atoms: N_7  and  C_14
REMARK    5  A    between atoms: N_8  and  C_20
REMARK    6  A    between atoms: C_19  and  C_23
REMARK    7  A    between atoms: C_30  and  C_34
REMARK    8  A    between atoms: C_34  and  C_35
REMARK                            x       y       z     vdW  Elec       q    Type
REMARK                         _______ _______ _______ _____ _____    ______ ____
ROOT
ATOM      1  O   UNL     1      -5.213  -9.024  10.385  0.00  0.00    -0.370 OA
ATOM      2  O   UNL     1      -6.560 -11.804  10.823  0.00  0.00    -0.370 OA
ATOM     11  C   UNL     1      -5.204 -11.339  10.934  0.00  0.00    +0.171 C 
ATOM     12  C   UNL     1      -4.983 -10.327   9.826  0.00  0.00    +0.171 C 
ATOM     13  C   UNL     1      -5.026 -10.540  12.204  0.00  0.00    +0.130 C 
ATOM     14  C   UNL     1      -6.051 -10.658   8.808  0.00  0.00    +0.131 C 
ATOM     15  C   UNL     1      -5.479  -9.152  11.789  0.00  0.00    +0.185 C 
ATOM     16  C   UNL     1      -7.174 -11.196   9.677  0.00  0.00    +0.185 C 
ENDROOT
BRANCH  13   6
ATOM      6  N   UNL     1      -3.631 -10.519  12.585  0.00  0.00    -0.306 N 
ATOM      9  N   UNL     1      -4.149 -10.636  14.845  0.00  0.00    -0.214 NA
ATOM     10  N   UNL     1      -1.862 -10.542  14.090  0.00  0.00    -0.223 NA
ATOM     17  C   UNL     1      -3.195 -10.568  13.897  0.00  0.00    +0.216 A 
ATOM     19  C   UNL     1      -3.689 -10.682  16.113  0.00  0.00    +0.076 A 
ATOM     21  C   UNL     1      -1.473 -10.591  15.380  0.00  0.00    +0.116 A 
ATOM     22  C   UNL     1      -2.349 -10.663  16.443  0.00  0.00    +0.048 A 
ATOM     37  H   UNL     1      -2.918 -10.520  11.865  0.00  0.00    +0.149 HD
BRANCH  19  23
ATOM     23  C   UNL     1      -4.708 -10.756  17.132  0.00  0.00    +0.001 A 
ATOM     28  C   UNL     1      -4.427 -11.371  18.353  0.00  0.00    +0.013 A 
ATOM     29  C   UNL     1      -5.972 -10.216  16.897  0.00  0.00    +0.013 A 
ATOM     31  C   UNL     1      -5.412 -11.445  19.338  0.00  0.00    +0.046 A 
ATOM     32  C   UNL     1      -6.956 -10.292  17.883  0.00  0.00    +0.046 A 
ATOM     33  C   UNL     1      -6.676 -10.906  19.103  0.00  0.00    +0.120 A 
BRANCH  33   4
ATOM      4  O   UNL     1      -7.636 -10.977  20.066  0.00  0.00    -0.495 OA
ATOM     36  C   UNL     1      -8.986 -11.129  19.628  0.00  0.00    +0.277 C 
ENDBRANCH  33   4
ENDBRANCH  19  23
ENDBRANCH  13   6
BRANCH  14   7
ATOM      3  O   UNL     1      -5.391 -10.249   6.051  0.00  0.00    -0.252 OA
ATOM      7  N   UNL     1      -5.590 -11.657   7.874  0.00  0.00    -0.292 N 
ATOM      8  N   UNL     1      -4.868 -12.532   5.876  0.00  0.00    -0.269 N 
ATOM     18  C   UNL     1      -5.288 -11.373   6.537  0.00  0.00    +0.304 C 
ATOM     38  H   UNL     1      -5.415 -12.597   8.218  0.00  0.00    +0.151 HD
ATOM     39  H   UNL     1      -4.840 -13.386   6.427  0.00  0.00    +0.156 HD
BRANCH   8  20
ATOM     20  C   UNL     1      -4.474 -12.665   4.524  0.00  0.00    +0.035 A 
ATOM     24  C   UNL     1      -3.130 -12.529   4.173  0.00  0.00    +0.024 A 
ATOM     25  C   UNL     1      -5.428 -12.932   3.543  0.00  0.00    +0.024 A 
ATOM     26  C   UNL     1      -2.742 -12.661   2.840  0.00  0.00    +0.013 A 
ATOM     27  C   UNL     1      -5.039 -13.062   2.210  0.00  0.00    +0.013 A 
ATOM     30  C   UNL     1      -3.696 -12.926   1.858  0.00  0.00    +0.017 A 
BRANCH  30  34
ATOM      5  O   UNL     1      -2.095 -12.956   0.126  0.00  0.00    -0.292 OA
ATOM     34  C   UNL     1      -3.290 -13.064   0.469  0.00  0.00    +0.160 C 
ATOM     35  C   UNL     1      -4.328 -13.349  -0.612  0.00  0.00    +0.091 C 
ENDBRANCH  30  34
ENDBRANCH   8  20
ENDBRANCH  14   7
TORSDOF 6
ENDMDL
MODEL 2
REMARK VINA RESULT:      -7.6     28.811     32.877
REMARK  Name = 11941660
REMARK  8 active torsions:
REMARK  status: ('A' for Active; 'I' for Inactive)
REMARK    1  A    between atoms: O_4  and  C_33
REMARK    2  A    between atoms: O_4  and  C_36
REMARK    3  A    between atoms: N_6  and  C_13
REMARK    4  A    between atoms: N_7  and  C_14
REMARK    5  A    between atoms: N_8  and  C_20
REMARK    6  A    between atoms: C_19  and  C_23
REMARK    7  A    between atoms: C_30  and  C_34
REMARK    8  A    between atoms: C_34  and  C_35
REMARK                            x       y       z     vdW  Elec       q    Type
REMARK                         _______ _______ _______ _____ _____    ______ ____
ROOT
ATOM      1  O   UNL     1      19.614   8.196  22.829  0.00  0.00    -0.370 OA
ATOM      2  O   UNL     1      19.869   6.657  20.127  0.00  0.00    -0.370 OA
ATOM     11  C   UNL     1      18.909   6.615  21.196  0.00  0.00    +0.171 C 
ATOM     12  C   UNL     1      19.673   6.800  22.494  0.00  0.00    +0.171 C 
ATOM     13  C   UNL     1      17.998   7.818  21.131  0.00  0.00    +0.130 C 
ATOM     14  C   UNL     1      21.089   6.403  22.146  0.00  0.00    +0.131 C 
ATOM     15  C   UNL     1      18.792   8.878  21.871  0.00  0.00    +0.185 C 
ATOM     16  C   UNL     1      21.186   6.791  20.681  0.00  0.00    +0.185 C 
ENDROOT
BRANCH  13   6
ATOM      6  N   UNL     1      16.760   7.541  21.827  0.00  0.00    -0.306 N 
ATOM      9  N   UNL     1      15.479   8.323  20.055  0.00  0.00    -0.214 NA
ATOM     10  N   UNL     1      14.451   7.475  22.064  0.00  0.00    -0.223 NA
ATOM     17  C   UNL     1      15.509   7.791  21.292  0.00  0.00    +0.216 A 
ATOM     19  C   UNL     1      14.242   8.554  19.565  0.00  0.00    +0.076 A 
ATOM     21  C   UNL     1      13.248   7.732  21.512  0.00  0.00    +0.116 A 
ATOM     22  C   UNL     1      13.080   8.275  20.255  0.00  0.00    +0.048 A 
ATOM     37  H   UNL     1      16.790   7.092  22.735  0.00  0.00    +0.149 HD
BRANCH  19  23
ATOM     23  C   UNL     1      14.206   9.123  18.240  0.00  0.00    +0.001 A 
ATOM     28  C   UNL     1      14.049   8.293  17.130  0.00  0.00    +0.013 A 
ATOM     29  C   UNL     1      14.328  10.502  18.067  0.00  0.00    +0.013 A 
ATOM     31  C   UNL     1      14.015   8.841  15.848  0.00  0.00    +0.046 A 
ATOM     32  C   UNL     1      14.295  11.050  16.785  0.00  0.00    +0.046 A 
ATOM     33  C   UNL     1      14.138  10.220  15.675  0.00  0.00    +0.120 A 
BRANCH  33   4
ATOM      4  O   UNL     1      14.103  10.754  14.424  0.00  0.00    -0.495 OA
ATOM     36  C   UNL     1      14.344  12.157  14.310  0.00  0.00    +0.277 C 
ENDBRANCH  33   4
ENDBRANCH  19  23
ENDBRANCH  13   6
BRANCH  14   7
ATOM      3  O   UNL     1      23.602   5.054  22.412  0.00  0.00    -0.252 OA
ATOM      7  N   UNL     1      21.293   4.986  22.326  0.00  0.00    -0.292 N 
ATOM      8  N   UNL     1      22.447   3.020  22.611  0.00  0.00    -0.269 N 
ATOM     18  C   UNL     1      22.560   4.404  22.448  0.00  0.00    +0.304 C 
ATOM     38  H   UNL     1      20.477   4.389  22.433  0.00  0.00    +0.151 HD
ATOM     39  H   UNL     1      21.505   2.637  22.617  0.00  0.00    +0.156 HD
BRANCH   8  20
ATOM     20  C   UNL     1      23.489   2.076  22.768  0.00  0.00    +0.035 A 
ATOM     24  C   UNL     1      23.848   1.641  24.044  0.00  0.00    +0.024 A 
ATOM     25  C   UNL     1      24.157   1.582  21.648  0.00  0.00    +0.024 A 
ATOM     26  C   UNL     1      24.876   0.710  24.199  0.00  0.00    +0.013 A 
ATOM     27  C   UNL     1      25.185   0.652  21.805  0.00  0.00    +0.013 A 
ATOM     30  C   UNL     1      25.545   0.217  23.079  0.00  0.00    +0.017 A 
BRANCH  30  34
ATOM      5  O   UNL     1      27.501  -0.607  24.108  0.00  0.00    -0.292 OA
ATOM     34  C   UNL     1      26.615  -0.754  23.243  0.00  0.00    +0.160 C 
ATOM     35  C   UNL     1      26.676  -1.989  22.349  0.00  0.00    +0.091 C 
ENDBRANCH  30  34
ENDBRANCH   8  20
ENDBRANCH  14   7
TORSDOF 6
ENDMDL
MODEL 3
REMARK VINA RESULT:      -7.2      3.210      3.643
REMARK  Name = 11941660
REMARK  8 active torsions:
REMARK  status: ('A' for Active; 'I' for Inactive)
REMARK    1  A    between atoms: O_4  and  C_33
REMARK    2  A    between atoms: O_4  and  C_36
REMARK    3  A    between atoms: N_6  and  C_13
REMARK    4  A    between atoms: N_7  and  C_14
REMARK    5  A    between atoms: N_8  and  C_20
REMARK    6  A    between atoms: C_19  and  C_23
REMARK    7  A    between atoms: C_30  and  C_34
REMARK    8  A    between atoms: C_34  and  C_35
REMARK                            x       y       z     vdW  Elec       q    Type
REMARK                         _______ _______ _______ _____ _____    ______ ____
ROOT
ATOM      1  O   UNL     1      -6.058  -8.245  11.442  0.00  0.00    -0.370 OA
ATOM      2  O   UNL     1      -7.107 -10.872  10.126  0.00  0.00    -0.370 OA
ATOM     11  C   UNL     1      -5.790 -10.372  10.409  0.00  0.00    +0.171 C 
ATOM     12  C   UNL     1      -5.817  -8.873  10.173  0.00  0.00    +0.171 C 
ATOM     13  C   UNL     1      -5.483 -10.506  11.882  0.00  0.00    +0.130 C 
ATOM     14  C   UNL     1      -6.998  -8.668   9.252  0.00  0.00    +0.131 C 
ATOM     15  C   UNL     1      -6.098  -9.248  12.467  0.00  0.00    +0.185 C 
ATOM     16  C   UNL     1      -7.933  -9.792   9.666  0.00  0.00    +0.185 C 
ENDROOT
BRANCH  13   6
ATOM      6  N   UNL     1      -4.052 -10.509  12.092  0.00  0.00    -0.306 N 
ATOM      9  N   UNL     1      -4.296 -10.625  14.399  0.00  0.00    -0.214 NA
ATOM     10  N   UNL     1      -2.115 -10.566  13.373  0.00  0.00    -0.223 NA
ATOM     17  C   UNL     1      -3.462 -10.569  13.343  0.00  0.00    +0.216 A 
ATOM     19  C   UNL     1      -3.686 -10.683  15.602  0.00  0.00    +0.076 A 
ATOM     21  C   UNL     1      -1.574 -10.625  14.607  0.00  0.00    +0.116 A 
ATOM     22  C   UNL     1      -2.317 -10.686  15.768  0.00  0.00    +0.048 A 
ATOM     37  H   UNL     1      -3.431 -10.520  11.292  0.00  0.00    +0.149 HD
BRANCH  19  23
ATOM     23  C   UNL     1      -4.576 -10.744  16.736  0.00  0.00    +0.001 A 
ATOM     28  C   UNL     1      -5.836 -10.150  16.665  0.00  0.00    +0.013 A 
ATOM     29  C   UNL     1      -4.178 -11.396  17.903  0.00  0.00    +0.013 A 
ATOM     31  C   UNL     1      -6.697 -10.207  17.760  0.00  0.00    +0.046 A 
ATOM     32  C   UNL     1      -5.039 -11.452  18.999  0.00  0.00    +0.046 A 
ATOM     33  C   UNL     1      -6.299 -10.858  18.928  0.00  0.00    +0.120 A 
BRANCH  33   4
ATOM      4  O   UNL     1      -7.140 -10.915  19.996  0.00  0.00    -0.495 OA
ATOM     36  C   UNL     1      -8.526 -11.121  19.722  0.00  0.00    +0.277 C 
ENDBRANCH  33   4
ENDBRANCH  19  23
ENDBRANCH  13   6
BRANCH  14   7
ATOM      3  O   UNL     1      -8.712  -8.464   6.966  0.00  0.00    -0.252 OA
ATOM      7  N   UNL     1      -6.610  -8.795   7.868  0.00  0.00    -0.292 N 
ATOM      8  N   UNL     1      -6.853  -8.850   5.584  0.00  0.00    -0.269 N 
ATOM     18  C   UNL     1      -7.514  -8.682   6.805  0.00  0.00    +0.304 C 
ATOM     38  H   UNL     1      -5.624  -8.909   7.651  0.00  0.00    +0.151 HD
ATOM     39  H   UNL     1      -5.852  -9.025   5.627  0.00  0.00    +0.156 HD
BRANCH   8  20
ATOM     20  C   UNL     1      -7.409  -8.807   4.284  0.00  0.00    +0.035 A 
ATOM     24  C   UNL     1      -7.728  -9.993   3.623  0.00  0.00    +0.024 A 
ATOM     25  C   UNL     1      -7.637  -7.579   3.663  0.00  0.00    +0.024 A 
ATOM     26  C   UNL     1      -8.276  -9.951   2.341  0.00  0.00    +0.013 A 
ATOM     27  C   UNL     1      -8.184  -7.537   2.381  0.00  0.00    +0.013 A 
ATOM     30  C   UNL     1      -8.503  -8.723   1.719  0.00  0.00    +0.017 A 
BRANCH  30  34
ATOM      5  O   UNL     1     -10.256  -8.330   0.192  0.00  0.00    -0.292 OA
ATOM     34  C   UNL     1      -9.075  -8.680   0.383  0.00  0.00    +0.160 C 
ATOM     35  C   UNL     1      -8.230  -9.064  -0.827  0.00  0.00    +0.091 C 
ENDBRANCH  30  34
ENDBRANCH   8  20
ENDBRANCH  14   7
TORSDOF 6
ENDMDL
MODEL 4
REMARK VINA RESULT:      -7.1      4.315      8.881
REMARK  Name = 11941660
REMARK  8 active torsions:
REMARK  status: ('A' for Active; 'I' for Inactive)
REMARK    1  A    between atoms: O_4  and  C_33
REMARK    2  A    between atoms: O_4  and  C_36
REMARK    3  A    between atoms: N_6  and  C_13
REMARK    4  A    between atoms: N_7  and  C_14
REMARK    5  A    between atoms: N_8  and  C_20
REMARK    6  A    between atoms: C_19  and  C_23
REMARK    7  A    between atoms: C_30  and  C_34
REMARK    8  A    between atoms: C_34  and  C_35
REMARK                            x       y       z     vdW  Elec       q    Type
REMARK                         _______ _______ _______ _____ _____    ______ ____
ROOT
ATOM      1  O   UNL     1      -4.538 -14.661   2.913  0.00  0.00    -0.370 OA
ATOM      2  O   UNL     1      -1.827 -13.386   3.784  0.00  0.00    -0.370 OA
ATOM     11  C   UNL     1      -3.093 -12.832   3.391  0.00  0.00    +0.171 C 
ATOM     12  C   UNL     1      -3.651 -13.717   2.292  0.00  0.00    +0.171 C 
ATOM     13  C   UNL     1      -4.095 -12.964   4.514  0.00  0.00    +0.130 C 
ATOM     14  C   UNL     1      -2.435 -14.424   1.738  0.00  0.00    +0.131 C 
ATOM     15  C   UNL     1      -4.636 -14.367   4.314  0.00  0.00    +0.185 C 
ATOM     16  C   UNL     1      -1.532 -14.520   2.955  0.00  0.00    +0.185 C 
ENDROOT
BRANCH  13   6
ATOM      6  N   UNL     1      -5.153 -11.991   4.352  0.00  0.00    -0.306 N 
ATOM      9  N   UNL     1      -4.833 -11.146   6.491  0.00  0.00    -0.214 NA
ATOM     10  N   UNL     1      -6.523 -10.242   5.030  0.00  0.00    -0.223 NA
ATOM     17  C   UNL     1      -5.519 -11.087   5.334  0.00  0.00    +0.216 A 
ATOM     19  C   UNL     1      -5.216 -10.251   7.426  0.00  0.00    +0.076 A 
ATOM     21  C   UNL     1      -6.853  -9.375   6.009  0.00  0.00    +0.116 A 
ATOM     22  C   UNL     1      -6.229  -9.333   7.238  0.00  0.00    +0.048 A 
ATOM     37  H   UNL     1      -5.629 -11.917   3.460  0.00  0.00    +0.149 HD
BRANCH  19  23
ATOM     23  C   UNL     1      -4.482 -10.310   8.667  0.00  0.00    +0.001 A 
ATOM     28  C   UNL     1      -3.941  -9.146   9.211  0.00  0.00    +0.013 A 
ATOM     29  C   UNL     1      -4.313 -11.530   9.322  0.00  0.00    +0.013 A 
ATOM     31  C   UNL     1      -3.230  -9.201  10.410  0.00  0.00    +0.046 A 
ATOM     32  C   UNL     1      -3.602 -11.585  10.520  0.00  0.00    +0.046 A 
ATOM     33  C   UNL     1      -3.061 -10.421  11.065  0.00  0.00    +0.120 A 
BRANCH  33   4
ATOM      4  O   UNL     1      -2.369 -10.474  12.236  0.00  0.00    -0.495 OA
ATOM     36  C   UNL     1      -3.129 -10.639  13.433  0.00  0.00    +0.277 C 
ENDBRANCH  33   4
ENDBRANCH  19  23
ENDBRANCH  13   6
BRANCH  14   7
ATOM      3  O   UNL     1      -1.128 -15.449  -0.595  0.00  0.00    -0.252 OA
ATOM      7  N   UNL     1      -1.816 -13.653   0.688  0.00  0.00    -0.292 N 
ATOM      8  N   UNL     1      -0.687 -13.243  -1.271  0.00  0.00    -0.269 N 
ATOM     18  C   UNL     1      -1.195 -14.233  -0.424  0.00  0.00    +0.304 C 
ATOM     38  H   UNL     1      -1.890 -12.640   0.723  0.00  0.00    +0.151 HD
ATOM     39  H   UNL     1      -0.828 -12.279  -0.981  0.00  0.00    +0.156 HD
BRANCH   8  20
ATOM     20  C   UNL     1       0.005 -13.417  -2.492  0.00  0.00    +0.035 A 
ATOM     24  C   UNL     1      -0.708 -13.612  -3.676  0.00  0.00    +0.024 A 
ATOM     25  C   UNL     1       1.399 -13.394  -2.513  0.00  0.00    +0.024 A 
ATOM     26  C   UNL     1      -0.025 -13.784  -4.880  0.00  0.00    +0.013 A 
ATOM     27  C   UNL     1       2.081 -13.566  -3.717  0.00  0.00    +0.013 A 
ATOM     30  C   UNL     1       1.370 -13.762  -4.901  0.00  0.00    +0.017 A 
BRANCH  30  34
ATOM      5  O   UNL     1       1.554 -14.522  -7.125  0.00  0.00    -0.292 OA
ATOM     34  C   UNL     1       2.081 -13.940  -6.157  0.00  0.00    +0.160 C 
ATOM     35  C   UNL     1       3.501 -13.408  -6.318  0.00  0.00    +0.091 C 
ENDBRANCH  30  34
ENDBRANCH   8  20
ENDBRANCH  14   7
TORSDOF 6
ENDMDL
MODEL 5
REMARK VINA RESULT:      -7.0     24.223     30.063
REMARK  Name = 11941660
REMARK  8 active torsions:
REMARK  status: ('A' for Active; 'I' for Inactive)
REMARK    1  A    between atoms: O_4  and  C_33
REMARK    2  A    between atoms: O_4  and  C_36
REMARK    3  A    between atoms: N_6  and  C_13
REMARK    4  A    between atoms: N_7  and  C_14
REMARK    5  A    between atoms: N_8  and  C_20
REMARK    6  A    between atoms: C_19  and  C_23
REMARK    7  A    between atoms: C_30  and  C_34
REMARK    8  A    between atoms: C_34  and  C_35
REMARK                            x       y       z     vdW  Elec       q    Type
REMARK                         _______ _______ _______ _____ _____    ______ ____
ROOT
ATOM      1  O   UNL     1     -15.705   5.500  34.584  0.00  0.00    -0.370 OA
ATOM      2  O   UNL     1     -15.726   6.427  31.605  0.00  0.00    -0.370 OA
ATOM     11  C   UNL     1     -15.132   5.307  32.282  0.00  0.00    +0.171 C 
ATOM     12  C   UNL     1     -14.664   5.799  33.640  0.00  0.00    +0.171 C 
ATOM     13  C   UNL     1     -16.184   4.273  32.608  0.00  0.00    +0.130 C 
ATOM     14  C   UNL     1     -14.529   7.294  33.462  0.00  0.00    +0.131 C 
ATOM     15  C   UNL     1     -16.753   4.778  33.921  0.00  0.00    +0.185 C 
ATOM     16  C   UNL     1     -15.598   7.597  32.427  0.00  0.00    +0.185 C 
ENDROOT
BRANCH  13   6
ATOM      6  N   UNL     1     -15.565   2.979  32.795  0.00  0.00    -0.306 N 
ATOM      9  N   UNL     1     -15.814   2.431  30.552  0.00  0.00    -0.214 NA
ATOM     10  N   UNL     1     -14.786   0.902  32.106  0.00  0.00    -0.223 NA
ATOM     17  C   UNL     1     -15.380   2.064  31.773  0.00  0.00    +0.216 A 
ATOM     19  C   UNL     1     -15.618   1.515  29.580  0.00  0.00    +0.076 A 
ATOM     21  C   UNL     1     -14.621   0.035  31.087  0.00  0.00    +0.116 A 
ATOM     22  C   UNL     1     -15.021   0.289  29.791  0.00  0.00    +0.048 A 
ATOM     37  H   UNL     1     -15.194   2.731  33.705  0.00  0.00    +0.149 HD
BRANCH  19  23
ATOM     23  C   UNL     1     -16.080   1.905  28.270  0.00  0.00    +0.001 A 
ATOM     28  C   UNL     1     -16.670   0.960  27.431  0.00  0.00    +0.013 A 
ATOM     29  C   UNL     1     -15.936   3.225  27.841  0.00  0.00    +0.013 A 
ATOM     31  C   UNL     1     -17.117   1.334  26.163  0.00  0.00    +0.046 A 
ATOM     32  C   UNL     1     -16.381   3.598  26.574  0.00  0.00    +0.046 A 
ATOM     33  C   UNL     1     -16.972   2.653  25.735  0.00  0.00    +0.120 A 
BRANCH  33   4
ATOM      4  O   UNL     1     -17.409   3.019  24.499  0.00  0.00    -0.495 OA
ATOM     36  C   UNL     1     -16.416   3.231  23.495  0.00  0.00    +0.277 C 
ENDBRANCH  33   4
ENDBRANCH  19  23
ENDBRANCH  13   6
BRANCH  14   7
ATOM      3  O   UNL     1     -13.334   9.897  33.487  0.00  0.00    -0.252 OA
ATOM      7  N   UNL     1     -13.217   7.645  32.976  0.00  0.00    -0.292 N 
ATOM      8  N   UNL     1     -11.417   8.985  32.484  0.00  0.00    -0.269 N 
ATOM     18  C   UNL     1     -12.706   8.947  33.024  0.00  0.00    +0.304 C 
ATOM     38  H   UNL     1     -12.610   6.903  32.640  0.00  0.00    +0.151 HD
ATOM     39  H   UNL     1     -11.040   8.105  32.142  0.00  0.00    +0.156 HD
BRANCH   8  20
ATOM     20  C   UNL     1     -10.564  10.106  32.351  0.00  0.00    +0.035 A 
ATOM     24  C   UNL     1     -10.835  11.078  31.388  0.00  0.00    +0.024 A 
ATOM     25  C   UNL     1      -9.452  10.239  33.183  0.00  0.00    +0.024 A 
ATOM     26  C   UNL     1      -9.993  12.182  31.257  0.00  0.00    +0.013 A 
ATOM     27  C   UNL     1      -8.611  11.343  33.051  0.00  0.00    +0.013 A 
ATOM     30  C   UNL     1      -8.881  12.315  32.088  0.00  0.00    +0.017 A 
BRANCH  30  34
ATOM      5  O   UNL     1      -8.386  14.615  32.260  0.00  0.00    -0.292 OA
ATOM     34  C   UNL     1      -8.005  13.468  31.951  0.00  0.00    +0.160 C 
ATOM     35  C   UNL     1      -6.585  13.296  31.422  0.00  0.00    +0.091 C 
ENDBRANCH  30  34
ENDBRANCH   8  20
ENDBRANCH  14   7
TORSDOF 6
ENDMDL
MODEL 6
REMARK VINA RESULT:      -7.0     25.004     27.207
REMARK  Name = 11941660
REMARK  8 active torsions:
REMARK  status: ('A' for Active; 'I' for Inactive)
REMARK    1  A    between atoms: O_4  and  C_33
REMARK    2  A    between atoms: O_4  and  C_36
REMARK    3  A    between atoms: N_6  and  C_13
REMARK    4  A    between atoms: N_7  and  C_14
REMARK    5  A    between atoms: N_8  and  C_20
REMARK    6  A    between atoms: C_19  and  C_23
REMARK    7  A    between atoms: C_30  and  C_34
REMARK    8  A    between atoms: C_34  and  C_35
REMARK                            x       y       z     vdW  Elec       q    Type
REMARK                         _______ _______ _______ _____ _____    ______ ____
ROOT
ATOM      1  O   UNL     1      12.464   5.739  -0.321  0.00  0.00    -0.370 OA
ATOM      2  O   UNL     1      11.851   3.918   2.137  0.00  0.00    -0.370 OA
ATOM     11  C   UNL     1      11.585   5.300   1.846  0.00  0.00    +0.171 C 
ATOM     12  C   UNL     1      12.778   5.836   1.077  0.00  0.00    +0.171 C 
ATOM     13  C   UNL     1      10.436   5.419   0.872  0.00  0.00    +0.130 C 
ATOM     14  C   UNL     1      13.899   4.887   1.432  0.00  0.00    +0.131 C 
ATOM     15  C   UNL     1      11.121   5.257  -0.472  0.00  0.00    +0.185 C 
ATOM     16  C   UNL     1      13.161   3.579   1.657  0.00  0.00    +0.185 C 
ENDROOT
BRANCH  13   6
ATOM      6  N   UNL     1       9.834   6.731   0.973  0.00  0.00    -0.306 N 
ATOM      9  N   UNL     1       9.596   6.547   3.276  0.00  0.00    -0.214 NA
ATOM     10  N   UNL     1       8.878   8.524   2.098  0.00  0.00    -0.223 NA
ATOM     17  C   UNL     1       9.418   7.291   2.168  0.00  0.00    +0.216 A 
ATOM     19  C   UNL     1       9.179   7.125   4.422  0.00  0.00    +0.076 A 
ATOM     21  C   UNL     1       8.484   9.039   3.280  0.00  0.00    +0.116 A 
ATOM     22  C   UNL     1       8.610   8.380   4.485  0.00  0.00    +0.048 A 
ATOM     37  H   UNL     1       9.752   7.306   0.143  0.00  0.00    +0.149 HD
BRANCH  19  23
ATOM     23  C   UNL     1       9.369   6.331   5.612  0.00  0.00    +0.001 A 
ATOM     28  C   UNL     1       9.250   6.922   6.869  0.00  0.00    +0.013 A 
ATOM     29  C   UNL     1       9.672   4.973   5.506  0.00  0.00    +0.013 A 
ATOM     31  C   UNL     1       9.435   6.157   8.021  0.00  0.00    +0.046 A 
ATOM     32  C   UNL     1       9.858   4.208   6.657  0.00  0.00    +0.046 A 
ATOM     33  C   UNL     1       9.739   4.800   7.915  0.00  0.00    +0.120 A 
BRANCH  33   4
ATOM      4  O   UNL     1       9.918   4.053   9.038  0.00  0.00    -0.495 OA
ATOM     36  C   UNL     1       9.186   4.442  10.201  0.00  0.00    +0.277 C 
ENDBRANCH  33   4
ENDBRANCH  19  23
ENDBRANCH  13   6
BRANCH  14   7
ATOM      3  O   UNL     1      14.987   7.485   1.950  0.00  0.00    -0.252 OA
ATOM      7  N   UNL     1      14.585   5.312   2.628  0.00  0.00    -0.292 N 
ATOM      8  N   UNL     1      15.700   6.726   4.055  0.00  0.00    -0.269 N 
ATOM     18  C   UNL     1      15.089   6.606   2.803  0.00  0.00    +0.304 C 
ATOM     38  H   UNL     1      14.650   4.661   3.406  0.00  0.00    +0.151 HD
ATOM     39  H   UNL     1      15.700   5.897   4.644  0.00  0.00    +0.156 HD
BRANCH   8  20
ATOM     20  C   UNL     1      16.326   7.866   4.609  0.00  0.00    +0.035 A 
ATOM     24  C   UNL     1      17.675   8.115   4.352  0.00  0.00    +0.024 A 
ATOM     25  C   UNL     1      15.596   8.741   5.413  0.00  0.00    +0.024 A 
ATOM     26  C   UNL     1      18.292   9.240   4.899  0.00  0.00    +0.013 A 
ATOM     27  C   UNL     1      16.214   9.865   5.960  0.00  0.00    +0.013 A 
ATOM     30  C   UNL     1      17.562  10.115   5.704  0.00  0.00    +0.017 A 
BRANCH  30  34
ATOM      5  O   UNL     1      19.446  11.354   6.395  0.00  0.00    -0.292 OA
ATOM     34  C   UNL     1      18.207  11.288   6.273  0.00  0.00    +0.160 C 
ATOM     35  C   UNL     1      17.370  12.476   6.735  0.00  0.00    +0.091 C 
ENDBRANCH  30  34
ENDBRANCH   8  20
ENDBRANCH  14   7
TORSDOF 6
ENDMDL
MODEL 7
REMARK VINA RESULT:      -7.0      2.631     12.095
REMARK  Name = 11941660
REMARK  8 active torsions:
REMARK  status: ('A' for Active; 'I' for Inactive)
REMARK    1  A    between atoms: O_4  and  C_33
REMARK    2  A    between atoms: O_4  and  C_36
REMARK    3  A    between atoms: N_6  and  C_13
REMARK    4  A    between atoms: N_7  and  C_14
REMARK    5  A    between atoms: N_8  and  C_20
REMARK    6  A    between atoms: C_19  and  C_23
REMARK    7  A    between atoms: C_30  and  C_34
REMARK    8  A    between atoms: C_34  and  C_35
REMARK                            x       y       z     vdW  Elec       q    Type
REMARK                         _______ _______ _______ _____ _____    ______ ____
ROOT
ATOM      1  O   UNL     1      -1.673  -9.919  13.524  0.00  0.00    -0.370 OA
ATOM      2  O   UNL     1      -2.298 -12.798  12.497  0.00  0.00    -0.370 OA
ATOM     11  C   UNL     1      -3.072 -11.589  12.565  0.00  0.00    +0.171 C 
ATOM     12  C   UNL     1      -2.689 -10.882  13.852  0.00  0.00    +0.171 C 
ATOM     13  C   UNL     1      -2.645 -10.631  11.478  0.00  0.00    +0.130 C 
ATOM     14  C   UNL     1      -2.113 -11.979  14.716  0.00  0.00    +0.131 C 
ATOM     15  C   UNL     1      -1.460  -9.921  12.105  0.00  0.00    +0.185 C 
ATOM     16  C   UNL     1      -1.509 -12.920  13.689  0.00  0.00    +0.185 C 
ENDROOT
BRANCH  13   6
ATOM      6  N   UNL     1      -3.707  -9.688  11.203  0.00  0.00    -0.306 N 
ATOM      9  N   UNL     1      -4.160 -10.654   9.141  0.00  0.00    -0.214 NA
ATOM     10  N   UNL     1      -5.416  -8.756   9.936  0.00  0.00    -0.223 NA
ATOM     17  C   UNL     1      -4.460  -9.700  10.043  0.00  0.00    +0.216 A 
ATOM     19  C   UNL     1      -4.915 -10.636   8.021  0.00  0.00    +0.076 A 
ATOM     21  C   UNL     1      -6.131  -8.798   8.793  0.00  0.00    +0.116 A 
ATOM     22  C   UNL     1      -5.923  -9.723   7.791  0.00  0.00    +0.048 A 
ATOM     37  H   UNL     1      -3.962  -9.006  11.908  0.00  0.00    +0.149 HD
BRANCH  19  23
ATOM     23  C   UNL     1      -4.597 -11.657   7.053  0.00  0.00    +0.001 A 
ATOM     28  C   UNL     1      -4.082 -12.883   7.478  0.00  0.00    +0.013 A 
ATOM     29  C   UNL     1      -4.802 -11.421   5.694  0.00  0.00    +0.013 A 
ATOM     31  C   UNL     1      -3.773 -13.871   6.544  0.00  0.00    +0.046 A 
ATOM     32  C   UNL     1      -4.492 -12.410   4.760  0.00  0.00    +0.046 A 
ATOM     33  C   UNL     1      -3.977 -13.635   5.185  0.00  0.00    +0.120 A 
BRANCH  33   4
ATOM      4  O   UNL     1      -3.677 -14.600   4.273  0.00  0.00    -0.495 OA
ATOM     36  C   UNL     1      -2.359 -14.588   3.724  0.00  0.00    +0.277 C 
ENDBRANCH  33   4
ENDBRANCH  19  23
ENDBRANCH  13   6
BRANCH  14   7
ATOM      3  O   UNL     1      -4.224 -10.715  16.183  0.00  0.00    -0.252 OA
ATOM      7  N   UNL     1      -3.144 -12.636  15.483  0.00  0.00    -0.292 N 
ATOM      8  N   UNL     1      -4.999 -12.836  16.823  0.00  0.00    -0.269 N 
ATOM     18  C   UNL     1      -4.144 -11.941  16.174  0.00  0.00    +0.304 C 
ATOM     38  H   UNL     1      -3.186 -13.651  15.469  0.00  0.00    +0.151 HD
ATOM     39  H   UNL     1      -4.792 -13.826  16.715  0.00  0.00    +0.156 HD
BRANCH   8  20
ATOM     20  C   UNL     1      -6.128 -12.535  17.621  0.00  0.00    +0.035 A 
ATOM     24  C   UNL     1      -7.412 -12.692  17.099  0.00  0.00    +0.024 A 
ATOM     25  C   UNL     1      -5.957 -12.080  18.929  0.00  0.00    +0.024 A 
ATOM     26  C   UNL     1      -8.525 -12.394  17.886  0.00  0.00    +0.013 A 
ATOM     27  C   UNL     1      -7.070 -11.783  19.714  0.00  0.00    +0.013 A 
ATOM     30  C   UNL     1      -8.354 -11.939  19.194  0.00  0.00    +0.017 A 
BRANCH  30  34
ATOM      5  O   UNL     1      -9.707 -10.483  20.464  0.00  0.00    -0.292 OA
ATOM     34  C   UNL     1      -9.515 -11.630  20.013  0.00  0.00    +0.160 C 
ATOM     35  C   UNL     1     -10.535 -12.716  20.341  0.00  0.00    +0.091 C 
ENDBRANCH  30  34
ENDBRANCH   8  20
ENDBRANCH  14   7
TORSDOF 6
ENDMDL
MODEL 8
REMARK VINA RESULT:      -6.7     23.735     28.899
REMARK  Name = 11941660
REMARK  8 active torsions:
REMARK  status: ('A' for Active; 'I' for Inactive)
REMARK    1  A    between atoms: O_4  and  C_33
REMARK    2  A    between atoms: O_4  and  C_36
REMARK    3  A    between atoms: N_6  and  C_13
REMARK    4  A    between atoms: N_7  and  C_14
REMARK    5  A    between atoms: N_8  and  C_20
REMARK    6  A    between atoms: C_19  and  C_23
REMARK    7  A    between atoms: C_30  and  C_34
REMARK    8  A    between atoms: C_34  and  C_35
REMARK                            x       y       z     vdW  Elec       q    Type
REMARK                         _______ _______ _______ _____ _____    ______ ____
ROOT
ATOM      1  O   UNL     1     -16.159   4.245  33.256  0.00  0.00    -0.370 OA
ATOM      2  O   UNL     1     -13.145   4.080  32.466  0.00  0.00    -0.370 OA
ATOM     11  C   UNL     1     -14.137   5.114  32.352  0.00  0.00    +0.171 C 
ATOM     12  C   UNL     1     -15.455   4.440  32.019  0.00  0.00    +0.171 C 
ATOM     13  C   UNL     1     -14.381   5.757  33.697  0.00  0.00    +0.130 C 
ATOM     14  C   UNL     1     -15.047   3.108  31.431  0.00  0.00    +0.131 C 
ATOM     15  C   UNL     1     -15.405   4.831  34.327  0.00  0.00    +0.185 C 
ATOM     16  C   UNL     1     -13.748   2.814  32.161  0.00  0.00    +0.185 C 
ENDROOT
BRANCH  13   6
ATOM      6  N   UNL     1     -14.943   7.079  33.520  0.00  0.00    -0.306 N 
ATOM      9  N   UNL     1     -13.088   8.097  34.476  0.00  0.00    -0.214 NA
ATOM     10  N   UNL     1     -14.952   9.396  33.672  0.00  0.00    -0.223 NA
ATOM     17  C   UNL     1     -14.299   8.241  33.906  0.00  0.00    +0.216 A 
ATOM     19  C   UNL     1     -12.490   9.251  34.840  0.00  0.00    +0.076 A 
ATOM     21  C   UNL     1     -14.297  10.509  34.060  0.00  0.00    +0.116 A 
ATOM     22  C   UNL     1     -13.052  10.498  34.655  0.00  0.00    +0.048 A 
ATOM     37  H   UNL     1     -15.831   7.183  33.043  0.00  0.00    +0.149 HD
BRANCH  19  23
ATOM     23  C   UNL     1     -11.191   9.101  35.450  0.00  0.00    +0.001 A 
ATOM     28  C   UNL     1     -11.049   8.332  36.605  0.00  0.00    +0.013 A 
ATOM     29  C   UNL     1     -10.077   9.725  34.887  0.00  0.00    +0.013 A 
ATOM     31  C   UNL     1      -9.795   8.187  37.197  0.00  0.00    +0.046 A 
ATOM     32  C   UNL     1      -8.823   9.580  35.479  0.00  0.00    +0.046 A 
ATOM     33  C   UNL     1      -8.681   8.811  36.634  0.00  0.00    +0.120 A 
BRANCH  33   4
ATOM      4  O   UNL     1      -7.457   8.668  37.211  0.00  0.00    -0.495 OA
ATOM     36  C   UNL     1      -7.193   9.446  38.379  0.00  0.00    +0.277 C 
ENDBRANCH  33   4
ENDBRANCH  19  23
ENDBRANCH  13   6
BRANCH  14   7
ATOM      3  O   UNL     1     -16.992   2.665  29.376  0.00  0.00    -0.252 OA
ATOM      7  N   UNL     1     -14.836   3.209  30.008  0.00  0.00    -0.292 N 
ATOM      8  N   UNL     1     -15.348   3.146  27.769  0.00  0.00    -0.269 N 
ATOM     18  C   UNL     1     -15.844   2.974  29.065  0.00  0.00    +0.304 C 
ATOM     38  H   UNL     1     -13.930   3.527  29.674  0.00  0.00    +0.151 HD
ATOM     39  H   UNL     1     -14.368   3.403  27.686  0.00  0.00    +0.156 HD
BRANCH   8  20
ATOM     20  C   UNL     1     -16.047   3.002  26.547  0.00  0.00    +0.035 A 
ATOM     24  C   UNL     1     -16.203   4.101  25.701  0.00  0.00    +0.024 A 
ATOM     25  C   UNL     1     -16.578   1.764  26.188  0.00  0.00    +0.024 A 
ATOM     26  C   UNL     1     -16.892   3.959  24.496  0.00  0.00    +0.013 A 
ATOM     27  C   UNL     1     -17.267   1.624  24.984  0.00  0.00    +0.013 A 
ATOM     30  C   UNL     1     -17.425   2.721  24.138  0.00  0.00    +0.017 A 
BRANCH  30  34
ATOM      5  O   UNL     1     -17.707   1.850  21.964  0.00  0.00    -0.292 OA
ATOM     34  C   UNL     1     -18.141   2.575  22.881  0.00  0.00    +0.160 C 
ATOM     35  C   UNL     1     -19.457   3.313  22.656  0.00  0.00    +0.091 C 
ENDBRANCH  30  34
ENDBRANCH   8  20
ENDBRANCH  14   7
TORSDOF 6
ENDMDL
MODEL 9
REMARK VINA RESULT:      -6.7     22.953     25.064
REMARK  Name = 11941660
REMARK  8 active torsions:
REMARK  status: ('A' for Active; 'I' for Inactive)
REMARK    1  A    between atoms: O_4  and  C_33
REMARK    2  A    between atoms: O_4  and  C_36
REMARK    3  A    between atoms: N_6  and  C_13
REMARK    4  A    between atoms: N_7  and  C_14
REMARK    5  A    between atoms: N_8  and  C_20
REMARK    6  A    between atoms: C_19  and  C_23
REMARK    7  A    between atoms: C_30  and  C_34
REMARK    8  A    between atoms: C_34  and  C_35
REMARK                            x       y       z     vdW  Elec       q    Type
REMARK                         _______ _______ _______ _____ _____    ______ ____
ROOT
ATOM      1  O   UNL     1       5.886  13.493   3.663  0.00  0.00    -0.370 OA
ATOM      2  O   UNL     1       3.791  11.401   2.678  0.00  0.00    -0.370 OA
ATOM     11  C   UNL     1       4.188  11.857   3.982  0.00  0.00    +0.171 C 
ATOM     12  C   UNL     1       5.685  12.097   3.938  0.00  0.00    +0.171 C 
ATOM     13  C   UNL     1       3.604  13.222   4.261  0.00  0.00    +0.130 C 
ATOM     14  C   UNL     1       6.158  11.259   2.773  0.00  0.00    +0.131 C 
ATOM     15  C   UNL     1       4.613  14.154   3.617  0.00  0.00    +0.185 C 
ATOM     16  C   UNL     1       4.955  11.280   1.846  0.00  0.00    +0.185 C 
ENDROOT
BRANCH  13   6
ATOM      6  N   UNL     1       3.546  13.454   5.688  0.00  0.00    -0.306 N 
ATOM      9  N   UNL     1       1.566  12.260   5.897  0.00  0.00    -0.214 NA
ATOM     10  N   UNL     1       2.623  13.274   7.811  0.00  0.00    -0.223 NA
ATOM     17  C   UNL     1       2.534  12.975   6.500  0.00  0.00    +0.216 A 
ATOM     19  C   UNL     1       0.595  11.808   6.719  0.00  0.00    +0.076 A 
ATOM     21  C   UNL     1       1.620  12.791   8.573  0.00  0.00    +0.116 A 
ATOM     22  C   UNL     1       0.571  12.045   8.078  0.00  0.00    +0.048 A 
ATOM     37  H   UNL     1       4.305  13.948   6.143  0.00  0.00    +0.149 HD
BRANCH  19  23
ATOM     23  C   UNL     1      -0.443  11.041   6.077  0.00  0.00    +0.001 A 
ATOM     28  C   UNL     1      -0.749  11.270   4.735  0.00  0.00    +0.013 A 
ATOM     29  C   UNL     1      -1.142  10.070   6.795  0.00  0.00    +0.013 A 
ATOM     31  C   UNL     1      -1.754  10.530   4.112  0.00  0.00    +0.046 A 
ATOM     32  C   UNL     1      -2.147   9.331   6.172  0.00  0.00    +0.046 A 
ATOM     33  C   UNL     1      -2.453   9.560   4.830  0.00  0.00    +0.120 A 
BRANCH  33   4
ATOM      4  O   UNL     1      -3.432   8.837   4.222  0.00  0.00    -0.495 OA
ATOM     36  C   UNL     1      -4.781   9.133   4.585  0.00  0.00    +0.277 C 
ENDBRANCH  33   4
ENDBRANCH  19  23
ENDBRANCH  13   6
BRANCH  14   7
ATOM      3  O   UNL     1       7.710  10.492   5.055  0.00  0.00    -0.252 OA
ATOM      7  N   UNL     1       6.471   9.913   3.191  0.00  0.00    -0.292 N 
ATOM      8  N   UNL     1       7.377   8.240   4.479  0.00  0.00    -0.269 N 
ATOM     18  C   UNL     1       7.240   9.623   4.324  0.00  0.00    +0.304 C 
ATOM     38  H   UNL     1       6.061   9.139   2.676  0.00  0.00    +0.151 HD
ATOM     39  H   UNL     1       6.923   7.656   3.781  0.00  0.00    +0.156 HD
BRANCH   8  20
ATOM     20  C   UNL     1       8.075   7.545   5.494  0.00  0.00    +0.035 A 
ATOM     24  C   UNL     1       8.567   6.263   5.248  0.00  0.00    +0.024 A 
ATOM     25  C   UNL     1       8.270   8.141   6.740  0.00  0.00    +0.024 A 
ATOM     26  C   UNL     1       9.255   5.577   6.249  0.00  0.00    +0.013 A 
ATOM     27  C   UNL     1       8.958   7.455   7.740  0.00  0.00    +0.013 A 
ATOM     30  C   UNL     1       9.450   6.173   7.496  0.00  0.00    +0.017 A 
BRANCH  30  34
ATOM      5  O   UNL     1      11.412   5.505   8.621  0.00  0.00    -0.292 OA
ATOM     34  C   UNL     1      10.169   5.458   8.538  0.00  0.00    +0.160 C 
ATOM     35  C   UNL     1       9.407   4.626   9.565  0.00  0.00    +0.091 C 
ENDBRANCH  30  34
ENDBRANCH   8  20
ENDBRANCH  14   7
TORSDOF 6
ENDMDL
MODEL 10
REMARK VINA RESULT:      -6.6     28.450     33.589
REMARK  Name = 11941660
REMARK  8 active torsions:
REMARK  status: ('A' for Active; 'I' for Inactive)
REMARK    1  A    between atoms: O_4  and  C_33
REMARK    2  A    between atoms: O_4  and  C_36
REMARK    3  A    between atoms: N_6  and  C_13
REMARK    4  A    between atoms: N_7  and  C_14
REMARK    5  A    between atoms: N_8  and  C_20
REMARK    6  A    between atoms: C_19  and  C_23
REMARK    7  A    between atoms: C_30  and  C_34
REMARK    8  A    between atoms: C_34  and  C_35
REMARK                            x       y       z     vdW  Elec       q    Type
REMARK                         _______ _______ _______ _____ _____    ______ ____
ROOT
ATOM      1  O   UNL     1      -8.345  13.606  34.501  0.00  0.00    -0.370 OA
ATOM      2  O   UNL     1      -7.083  12.149  32.047  0.00  0.00    -0.370 OA
ATOM     11  C   UNL     1      -8.172  11.828  32.929  0.00  0.00    +0.171 C 
ATOM     12  C   UNL     1      -7.781  12.298  34.318  0.00  0.00    +0.171 C 
ATOM     13  C   UNL     1      -9.386  12.660  32.588  0.00  0.00    +0.130 C 
ATOM     14  C   UNL     1      -6.272  12.379  34.266  0.00  0.00    +0.131 C 
ATOM     15  C   UNL     1      -9.134  13.946  33.352  0.00  0.00    +0.185 C 
ATOM     16  C   UNL     1      -6.014  12.728  32.811  0.00  0.00    +0.185 C 
ENDROOT
BRANCH  13   6
ATOM      6  N   UNL     1     -10.584  12.013  33.078  0.00  0.00    -0.306 N 
ATOM      9  N   UNL     1     -11.282  11.470  30.930  0.00  0.00    -0.214 NA
ATOM     10  N   UNL     1     -12.587  10.857  32.862  0.00  0.00    -0.223 NA
ATOM     17  C   UNL     1     -11.525  11.421  32.254  0.00  0.00    +0.216 A 
ATOM     19  C   UNL     1     -12.220  10.884  30.157  0.00  0.00    +0.076 A 
ATOM     21  C   UNL     1     -13.483  10.289  32.029  0.00  0.00    +0.116 A 
ATOM     22  C   UNL     1     -13.352  10.272  30.656  0.00  0.00    +0.048 A 
ATOM     37  H   UNL     1     -10.734  11.933  34.076  0.00  0.00    +0.149 HD
BRANCH  19  23
ATOM     23  C   UNL     1     -11.963  10.933  28.738  0.00  0.00    +0.001 A 
ATOM     28  C   UNL     1     -12.502  11.964  27.969  0.00  0.00    +0.013 A 
ATOM     29  C   UNL     1     -11.175   9.952  28.135  0.00  0.00    +0.013 A 
ATOM     31  C   UNL     1     -12.256  12.014  26.597  0.00  0.00    +0.046 A 
ATOM     32  C   UNL     1     -10.930  10.001  26.763  0.00  0.00    +0.046 A 
ATOM     33  C   UNL     1     -11.470  11.032  25.994  0.00  0.00    +0.120 A 
BRANCH  33   4
ATOM      4  O   UNL     1     -11.228  11.081  24.656  0.00  0.00    -0.495 OA
ATOM     36  C   UNL     1     -12.341  11.352  23.803  0.00  0.00    +0.277 C 
ENDBRANCH  33   4
ENDBRANCH  19  23
ENDBRANCH  13   6
BRANCH  14   7
ATOM      3  O   UNL     1      -4.764  11.796  36.630  0.00  0.00    -0.252 OA
ATOM      7  N   UNL     1      -5.669  11.115  34.615  0.00  0.00    -0.292 N 
ATOM      8  N   UNL     1      -4.481   9.595  35.862  0.00  0.00    -0.269 N 
ATOM     18  C   UNL     1      -4.944  10.913  35.795  0.00  0.00    +0.304 C 
ATOM     38  H   UNL     1      -5.831  10.317  34.007  0.00  0.00    +0.151 HD
ATOM     39  H   UNL     1      -4.719   8.988  35.081  0.00  0.00    +0.156 HD
BRANCH   8  20
ATOM     20  C   UNL     1      -3.715   8.995  36.889  0.00  0.00    +0.035 A 
ATOM     24  C   UNL     1      -2.350   8.774  36.701  0.00  0.00    +0.024 A 
ATOM     25  C   UNL     1      -4.323   8.625  38.088  0.00  0.00    +0.024 A 
ATOM     26  C   UNL     1      -1.595   8.183  37.713  0.00  0.00    +0.013 A 
ATOM     27  C   UNL     1      -3.567   8.033  39.099  0.00  0.00    +0.013 A 
ATOM     30  C   UNL     1      -2.203   7.811  38.912  0.00  0.00    +0.017 A 
BRANCH  30  34
ATOM      5  O   UNL     1      -0.924   7.873  40.893  0.00  0.00    -0.292 OA
ATOM     34  C   UNL     1      -1.414   7.196  39.967  0.00  0.00    +0.160 C 
ATOM     35  C   UNL     1      -1.169   5.690  39.965  0.00  0.00    +0.091 C 
ENDBRANCH  30  34
ENDBRANCH   8  20
ENDBRANCH  14   7
TORSDOF 6
ENDMDL
