MODEL 1
REMARK VINA RESULT:      -6.2      0.000      0.000
REMARK  Name = 26742444
REMARK  11 active torsions:
REMARK  status: ('A' for Active; 'I' for Inactive)
REMARK    1  A    between atoms: S_1  and  N_8
REMARK    2  A    between atoms: S_1  and  C_23
REMARK    3  A    between atoms: O_5  and  C_26
REMARK    4  A    between atoms: O_5  and  C_34
REMARK    5  A    between atoms: O_6  and  C_29
REMARK    6  A    between atoms: O_6  and  C_35
REMARK    7  A    between atoms: N_8  and  C_18
REMARK    8  A    between atoms: C_12  and  C_19
REMARK    9  A    between atoms: C_13  and  C_18
REMARK   10  A    between atoms: C_21  and  C_24
REMARK   11  A    between atoms: C_22  and  C_25
REMARK                            x       y       z     vdW  Elec       q    Type
REMARK                         _______ _______ _______ _____ _____    ______ ____
ROOT
ATOM      7  N   UNL     1      -5.050 -11.125   9.342  0.00  0.00    -0.297 NA
ATOM     11  C   UNL     1      -3.938  -9.387  10.930  0.00  0.00    +0.002 C 
ATOM     12  C   UNL     1      -3.103 -10.697  10.888  0.00  0.00    +0.055 C 
ATOM     13  C   UNL     1      -6.059 -10.586  10.292  0.00  0.00    +0.072 C 
ATOM     14  C   UNL     1      -5.380  -9.715  11.371  0.00  0.00    +0.024 C 
ATOM     15  C   UNL     1      -4.014  -8.861   9.480  0.00  0.00    +0.019 C 
ATOM     16  C   UNL     1      -3.928 -11.746  10.090  0.00  0.00    +0.094 C 
ATOM     17  C   UNL     1      -4.512  -9.988   8.559  0.00  0.00    +0.085 C 
ENDROOT
BRANCH  12  19
ATOM      9  N   UNL     1      -2.188 -10.358  13.131  0.00  0.00    -0.237 NA
ATOM     10  N   UNL     1      -1.621 -12.199  14.578  0.00  0.00    -0.229 NA
ATOM     19  C   UNL     1      -2.576 -11.255  12.201  0.00  0.00    +0.050 A 
ATOM     20  C   UNL     1      -2.517 -12.622  12.385  0.00  0.00    +0.055 A 
ATOM     21  C   UNL     1      -2.026 -13.041  13.605  0.00  0.00    +0.110 A 
ATOM     22  C   UNL     1      -1.727 -10.890  14.279  0.00  0.00    +0.127 A 
ATOM     25  C   UNL     1      -1.291  -9.928  15.331  0.00  0.00    +0.088 C 
BRANCH  21  24
ATOM      4  O   UNL     1      -0.731 -15.019  13.577  0.00  0.00    -0.461 OA
ATOM     24  C   UNL     1      -1.909 -14.437  13.927  0.00  0.00    +0.153 A 
ATOM     28  C   UNL     1      -2.740 -15.353  14.531  0.00  0.00    +0.051 A 
ATOM     31  C   UNL     1      -2.027 -16.576  14.551  0.00  0.00    +0.042 A 
ATOM     33  C   UNL     1      -0.812 -16.321  13.959  0.00  0.00    +0.196 A 
ENDBRANCH  21  24
ENDBRANCH  12  19
BRANCH  13  18
ATOM     18  C   UNL     1      -6.923 -11.687  10.911  0.00  0.00    +0.124 C 
BRANCH  18   8
ATOM      8  N   UNL     1      -7.196 -11.354  12.319  0.00  0.00    -0.188 NA
ATOM     36  H   UNL     1      -7.069 -10.371  12.590  0.00  0.00    +0.148 HD
BRANCH   8   1
ATOM      1  S   UNL     1      -6.943 -12.516  13.537  0.00  0.00    +0.062 S 
ATOM      2  O   UNL     1      -5.865 -13.401  13.138  0.00  0.00    -0.153 OA
ATOM      3  O   UNL     1      -8.223 -13.064  13.945  0.00  0.00    -0.153 OA
BRANCH   1  23
ATOM     23  C   UNL     1      -6.361 -11.517  14.874  0.00  0.00    +0.150 A 
ATOM     26  C   UNL     1      -6.993 -10.316  15.198  0.00  0.00    +0.147 A 
ATOM     27  C   UNL     1      -5.254 -11.942  15.608  0.00  0.00    +0.077 A 
ATOM     29  C   UNL     1      -4.778 -11.166  16.666  0.00  0.00    +0.122 A 
ATOM     30  C   UNL     1      -6.517  -9.540  16.255  0.00  0.00    +0.051 A 
ATOM     32  C   UNL     1      -5.410  -9.966  16.989  0.00  0.00    +0.049 A 
BRANCH  26   5
ATOM      5  O   UNL     1      -8.076  -9.881  14.495  0.00  0.00    -0.493 OA
ATOM     34  C   UNL     1      -9.272  -9.637  15.233  0.00  0.00    +0.277 C 
ENDBRANCH  26   5
BRANCH  29   6
ATOM      6  O   UNL     1      -3.697 -11.581  17.382  0.00  0.00    -0.495 OA
ATOM     35  C   UNL     1      -3.914 -11.908  18.753  0.00  0.00    +0.277 C 
ENDBRANCH  29   6
ENDBRANCH   1  23
ENDBRANCH   8   1
ENDBRANCH  18   8
ENDBRANCH  13  18
TORSDOF 8
ENDMDL
MODEL 2
REMARK VINA RESULT:      -6.2      3.548      8.965
REMARK  Name = 26742444
REMARK  11 active torsions:
REMARK  status: ('A' for Active; 'I' for Inactive)
REMARK    1  A    between atoms: S_1  and  N_8
REMARK    2  A    between atoms: S_1  and  C_23
REMARK    3  A    between atoms: O_5  and  C_26
REMARK    4  A    between atoms: O_5  and  C_34
REMARK    5  A    between atoms: O_6  and  C_29
REMARK    6  A    between atoms: O_6  and  C_35
REMARK    7  A    between atoms: N_8  and  C_18
REMARK    8  A    between atoms: C_12  and  C_19
REMARK    9  A    between atoms: C_13  and  C_18
REMARK   10  A    between atoms: C_21  and  C_24
REMARK   11  A    between atoms: C_22  and  C_25
REMARK                            x       y       z     vdW  Elec       q    Type
REMARK                         _______ _______ _______ _____ _____    ______ ____
ROOT
ATOM      7  N   UNL     1      -5.919 -11.802  17.400  0.00  0.00    -0.297 NA
ATOM     11  C   UNL     1      -6.769 -10.806  19.650  0.00  0.00    +0.002 C 
ATOM     12  C   UNL     1      -7.936 -11.487  18.882  0.00  0.00    +0.055 C 
ATOM     13  C   UNL     1      -5.469 -10.391  17.533  0.00  0.00    +0.072 C 
ATOM     14  C   UNL     1      -6.133  -9.722  18.756  0.00  0.00    +0.024 C 
ATOM     15  C   UNL     1      -5.696 -11.892  19.882  0.00  0.00    +0.019 C 
ATOM     16  C   UNL     1      -7.400 -11.872  17.474  0.00  0.00    +0.094 C 
ATOM     17  C   UNL     1      -5.361 -12.566  18.540  0.00  0.00    +0.085 C 
ENDROOT
BRANCH  12  19
ATOM      9  N   UNL     1     -10.219 -11.145  19.691  0.00  0.00    -0.237 NA
ATOM     10  N   UNL     1     -11.686  -9.489  18.737  0.00  0.00    -0.229 NA
ATOM     19  C   UNL     1      -9.271 -10.760  18.813  0.00  0.00    +0.050 A 
ATOM     20  C   UNL     1      -9.453  -9.759  17.879  0.00  0.00    +0.055 A 
ATOM     21  C   UNL     1     -10.692  -9.153  17.887  0.00  0.00    +0.110 A 
ATOM     22  C   UNL     1     -11.386 -10.479  19.599  0.00  0.00    +0.127 A 
ATOM     25  C   UNL     1     -12.458 -10.877  20.556  0.00  0.00    +0.088 C 
BRANCH  21  24
ATOM      4  O   UNL     1      -9.959  -7.375  16.511  0.00  0.00    -0.461 OA
ATOM     24  C   UNL     1     -11.018  -8.098  16.966  0.00  0.00    +0.153 A 
ATOM     28  C   UNL     1     -12.191  -7.634  16.418  0.00  0.00    +0.051 A 
ATOM     31  C   UNL     1     -11.831  -6.557  15.573  0.00  0.00    +0.042 A 
ATOM     33  C   UNL     1     -10.464  -6.439  15.664  0.00  0.00    +0.196 A 
ENDBRANCH  21  24
ENDBRANCH  12  19
BRANCH  13  18
ATOM     18  C   UNL     1      -5.691  -9.585  16.253  0.00  0.00    +0.124 C 
BRANCH  18   8
ATOM      8  N   UNL     1      -4.778 -10.077  15.207  0.00  0.00    -0.188 NA
ATOM     36  H   UNL     1      -3.871  -9.601  15.130  0.00  0.00    +0.148 HD
BRANCH   8   1
ATOM      1  S   UNL     1      -5.403 -10.754  13.775  0.00  0.00    +0.062 S 
ATOM      2  O   UNL     1      -6.638 -10.079  13.425  0.00  0.00    -0.153 OA
ATOM      3  O   UNL     1      -5.369 -12.201  13.880  0.00  0.00    -0.153 OA
BRANCH   1  23
ATOM     23  C   UNL     1      -4.175 -10.294  12.591  0.00  0.00    +0.150 A 
ATOM     26  C   UNL     1      -2.819 -10.498  12.850  0.00  0.00    +0.147 A 
ATOM     27  C   UNL     1      -4.575  -9.718  11.386  0.00  0.00    +0.077 A 
ATOM     29  C   UNL     1      -3.620  -9.346  10.439  0.00  0.00    +0.122 A 
ATOM     30  C   UNL     1      -1.865 -10.126  11.903  0.00  0.00    +0.051 A 
ATOM     32  C   UNL     1      -2.266  -9.551  10.698  0.00  0.00    +0.049 A 
BRANCH  26   5
ATOM      5  O   UNL     1      -2.405 -11.058  14.020  0.00  0.00    -0.493 OA
ATOM     34  C   UNL     1      -1.476 -10.311  14.803  0.00  0.00    +0.277 C 
ENDBRANCH  26   5
BRANCH  29   6
ATOM      6  O   UNL     1      -4.011  -8.783   9.262  0.00  0.00    -0.495 OA
ATOM     35  C   UNL     1      -4.886  -9.551   8.436  0.00  0.00    +0.277 C 
ENDBRANCH  29   6
ENDBRANCH   1  23
ENDBRANCH   8   1
ENDBRANCH  18   8
ENDBRANCH  13  18
TORSDOF 8
ENDMDL
MODEL 3
REMARK VINA RESULT:      -6.2      2.639      8.174
REMARK  Name = 26742444
REMARK  11 active torsions:
REMARK  status: ('A' for Active; 'I' for Inactive)
REMARK    1  A    between atoms: S_1  and  N_8
REMARK    2  A    between atoms: S_1  and  C_23
REMARK    3  A    between atoms: O_5  and  C_26
REMARK    4  A    between atoms: O_5  and  C_34
REMARK    5  A    between atoms: O_6  and  C_29
REMARK    6  A    between atoms: O_6  and  C_35
REMARK    7  A    between atoms: N_8  and  C_18
REMARK    8  A    between atoms: C_12  and  C_19
REMARK    9  A    between atoms: C_13  and  C_18
REMARK   10  A    between atoms: C_21  and  C_24
REMARK   11  A    between atoms: C_22  and  C_25
REMARK                            x       y       z     vdW  Elec       q    Type
REMARK                         _______ _______ _______ _____ _____    ______ ____
ROOT
ATOM      7  N   UNL     1      -5.632 -12.950  17.503  0.00  0.00    -0.297 NA
ATOM     11  C   UNL     1      -5.662 -10.356  17.278  0.00  0.00    +0.002 C 
ATOM     12  C   UNL     1      -7.097 -10.932  17.125  0.00  0.00    +0.055 C 
ATOM     13  C   UNL     1      -4.597 -12.513  16.529  0.00  0.00    +0.072 C 
ATOM     14  C   UNL     1      -4.737 -11.005  16.226  0.00  0.00    +0.024 C 
ATOM     15  C   UNL     1      -5.151 -10.797  18.666  0.00  0.00    +0.019 C 
ATOM     16  C   UNL     1      -6.971 -12.481  17.068  0.00  0.00    +0.094 C 
ATOM     17  C   UNL     1      -5.322 -12.320  18.808  0.00  0.00    +0.085 C 
ENDROOT
BRANCH  12  19
ATOM      9  N   UNL     1      -7.877 -10.980  14.807  0.00  0.00    -0.237 NA
ATOM     10  N   UNL     1      -9.531  -9.439  13.976  0.00  0.00    -0.229 NA
ATOM     19  C   UNL     1      -7.977 -10.383  16.011  0.00  0.00    +0.050 A 
ATOM     20  C   UNL     1      -8.821  -9.321  16.272  0.00  0.00    +0.055 A 
ATOM     21  C   UNL     1      -9.582  -8.887  15.206  0.00  0.00    +0.110 A 
ATOM     22  C   UNL     1      -8.670 -10.466  13.848  0.00  0.00    +0.127 A 
ATOM     25  C   UNL     1      -8.588 -11.103  12.502  0.00  0.00    +0.088 C 
BRANCH  21  24
ATOM      4  O   UNL     1     -11.398  -7.656  14.326  0.00  0.00    -0.461 OA
ATOM     24  C   UNL     1     -10.501  -7.789  15.339  0.00  0.00    +0.153 A 
ATOM     28  C   UNL     1     -10.690  -6.809  16.285  0.00  0.00    +0.051 A 
ATOM     31  C   UNL     1     -11.773  -6.022  15.824  0.00  0.00    +0.042 A 
ATOM     33  C   UNL     1     -12.168  -6.577  14.629  0.00  0.00    +0.196 A 
ENDBRANCH  21  24
ENDBRANCH  12  19
BRANCH  13  18
ATOM     18  C   UNL     1      -4.608 -13.354  15.251  0.00  0.00    +0.124 C 
BRANCH  18   8
ATOM      8  N   UNL     1      -3.321 -14.059  15.125  0.00  0.00    -0.188 NA
ATOM     36  H   UNL     1      -2.647 -13.920  15.887  0.00  0.00    +0.148 HD
BRANCH   8   1
ATOM      1  S   UNL     1      -2.671 -14.385  13.586  0.00  0.00    +0.062 S 
ATOM      2  O   UNL     1      -3.621 -15.171  12.821  0.00  0.00    -0.153 OA
ATOM      3  O   UNL     1      -1.302 -14.840  13.735  0.00  0.00    -0.153 OA
BRANCH   1  23
ATOM     23  C   UNL     1      -2.602 -12.769  12.873  0.00  0.00    +0.150 A 
ATOM     26  C   UNL     1      -1.977 -11.717  13.544  0.00  0.00    +0.147 A 
ATOM     27  C   UNL     1      -3.183 -12.552  11.624  0.00  0.00    +0.077 A 
ATOM     29  C   UNL     1      -3.141 -11.283  11.046  0.00  0.00    +0.122 A 
ATOM     30  C   UNL     1      -1.935 -10.448  12.966  0.00  0.00    +0.051 A 
ATOM     32  C   UNL     1      -2.516 -10.232  11.717  0.00  0.00    +0.049 A 
BRANCH  26   5
ATOM      5  O   UNL     1      -1.403 -11.906  14.765  0.00  0.00    -0.493 OA
ATOM     34  C   UNL     1      -1.188 -10.745  15.566  0.00  0.00    +0.277 C 
ENDBRANCH  26   5
BRANCH  29   6
ATOM      6  O   UNL     1      -3.709 -11.071   9.827  0.00  0.00    -0.495 OA
ATOM     35  C   UNL     1      -4.025  -9.722   9.485  0.00  0.00    +0.277 C 
ENDBRANCH  29   6
ENDBRANCH   1  23
ENDBRANCH   8   1
ENDBRANCH  18   8
ENDBRANCH  13  18
TORSDOF 8
ENDMDL
MODEL 4
REMARK VINA RESULT:      -6.0      1.132      1.889
REMARK  Name = 26742444
REMARK  11 active torsions:
REMARK  status: ('A' for Active; 'I' for Inactive)
REMARK    1  A    between atoms: S_1  and  N_8
REMARK    2  A    between atoms: S_1  and  C_23
REMARK    3  A    between atoms: O_5  and  C_26
REMARK    4  A    between atoms: O_5  and  C_34
REMARK    5  A    between atoms: O_6  and  C_29
REMARK    6  A    between atoms: O_6  and  C_35
REMARK    7  A    between atoms: N_8  and  C_18
REMARK    8  A    between atoms: C_12  and  C_19
REMARK    9  A    between atoms: C_13  and  C_18
REMARK   10  A    between atoms: C_21  and  C_24
REMARK   11  A    between atoms: C_22  and  C_25
REMARK                            x       y       z     vdW  Elec       q    Type
REMARK                         _______ _______ _______ _____ _____    ______ ____
ROOT
ATOM      7  N   UNL     1      -5.557 -10.847   9.592  0.00  0.00    -0.297 NA
ATOM     11  C   UNL     1      -3.696  -9.350  10.628  0.00  0.00    +0.002 C 
ATOM     12  C   UNL     1      -3.306 -10.851  10.730  0.00  0.00    +0.055 C 
ATOM     13  C   UNL     1      -6.157  -9.879  10.548  0.00  0.00    +0.072 C 
ATOM     14  C   UNL     1      -5.054  -9.127  11.324  0.00  0.00    +0.024 C 
ATOM     15  C   UNL     1      -3.897  -9.044   9.128  0.00  0.00    +0.019 C 
ATOM     16  C   UNL     1      -4.542 -11.682  10.282  0.00  0.00    +0.094 C 
ATOM     17  C   UNL     1      -4.874 -10.071   8.529  0.00  0.00    +0.085 C 
ENDROOT
BRANCH  12  19
ATOM      9  N   UNL     1      -2.356 -10.417  12.942  0.00  0.00    -0.237 NA
ATOM     10  N   UNL     1      -1.656 -12.194  14.411  0.00  0.00    -0.229 NA
ATOM     19  C   UNL     1      -2.718 -11.352  12.041  0.00  0.00    +0.050 A 
ATOM     20  C   UNL     1      -2.581 -12.710  12.250  0.00  0.00    +0.055 A 
ATOM     21  C   UNL     1      -2.040 -13.076  13.465  0.00  0.00    +0.110 A 
ATOM     22  C   UNL     1      -1.840 -10.899  14.089  0.00  0.00    +0.127 A 
ATOM     25  C   UNL     1      -1.430  -9.893  15.110  0.00  0.00    +0.088 C 
BRANCH  21  24
ATOM      4  O   UNL     1      -0.709 -15.025  13.316  0.00  0.00    -0.461 OA
ATOM     24  C   UNL     1      -1.840 -14.458  13.812  0.00  0.00    +0.153 A 
ATOM     28  C   UNL     1      -2.552 -15.370  14.556  0.00  0.00    +0.051 A 
ATOM     31  C   UNL     1      -1.812 -16.575  14.514  0.00  0.00    +0.042 A 
ATOM     33  C   UNL     1      -0.699 -16.314  13.748  0.00  0.00    +0.196 A 
ENDBRANCH  21  24
ENDBRANCH  12  19
BRANCH  13  18
ATOM     18  C   UNL     1      -7.166 -10.539  11.489  0.00  0.00    +0.124 C 
BRANCH  18   8
ATOM      8  N   UNL     1      -6.900 -10.101  12.869  0.00  0.00    -0.188 NA
ATOM     36  H   UNL     1      -5.915  -9.949  13.119  0.00  0.00    +0.148 HD
BRANCH   8   1
ATOM      1  S   UNL     1      -7.939 -10.573  14.133  0.00  0.00    +0.062 S 
ATOM      2  O   UNL     1      -8.660 -11.768  13.738  0.00  0.00    -0.153 OA
ATOM      3  O   UNL     1      -8.662  -9.411  14.612  0.00  0.00    -0.153 OA
BRANCH   1  23
ATOM     23  C   UNL     1      -6.789 -11.022  15.398  0.00  0.00    +0.150 A 
ATOM     26  C   UNL     1      -5.721 -11.876  15.123  0.00  0.00    +0.147 A 
ATOM     27  C   UNL     1      -6.962 -10.513  16.685  0.00  0.00    +0.077 A 
ATOM     29  C   UNL     1      -6.066 -10.858  17.697  0.00  0.00    +0.122 A 
ATOM     30  C   UNL     1      -4.825 -12.221  16.135  0.00  0.00    +0.051 A 
ATOM     32  C   UNL     1      -4.998 -11.711  17.422  0.00  0.00    +0.049 A 
BRANCH  26   5
ATOM      5  O   UNL     1      -5.533 -12.386  13.874  0.00  0.00    -0.493 OA
ATOM     34  C   UNL     1      -5.809 -13.774  13.693  0.00  0.00    +0.277 C 
ENDBRANCH  26   5
BRANCH  29   6
ATOM      6  O   UNL     1      -6.235 -10.361  18.954  0.00  0.00    -0.495 OA
ATOM     35  C   UNL     1      -5.930 -11.232  20.042  0.00  0.00    +0.277 C 
ENDBRANCH  29   6
ENDBRANCH   1  23
ENDBRANCH   8   1
ENDBRANCH  18   8
ENDBRANCH  13  18
TORSDOF 8
ENDMDL
MODEL 5
REMARK VINA RESULT:      -6.0      3.404      7.097
REMARK  Name = 26742444
REMARK  11 active torsions:
REMARK  status: ('A' for Active; 'I' for Inactive)
REMARK    1  A    between atoms: S_1  and  N_8
REMARK    2  A    between atoms: S_1  and  C_23
REMARK    3  A    between atoms: O_5  and  C_26
REMARK    4  A    between atoms: O_5  and  C_34
REMARK    5  A    between atoms: O_6  and  C_29
REMARK    6  A    between atoms: O_6  and  C_35
REMARK    7  A    between atoms: N_8  and  C_18
REMARK    8  A    between atoms: C_12  and  C_19
REMARK    9  A    between atoms: C_13  and  C_18
REMARK   10  A    between atoms: C_21  and  C_24
REMARK   11  A    between atoms: C_22  and  C_25
REMARK                            x       y       z     vdW  Elec       q    Type
REMARK                         _______ _______ _______ _____ _____    ______ ____
ROOT
ATOM      7  N   UNL     1      -4.124  -9.562  11.540  0.00  0.00    -0.297 NA
ATOM     11  C   UNL     1      -5.080 -11.218   9.773  0.00  0.00    +0.002 C 
ATOM     12  C   UNL     1      -4.898  -9.805   9.152  0.00  0.00    +0.055 C 
ATOM     13  C   UNL     1      -5.293 -10.287  12.104  0.00  0.00    +0.072 C 
ATOM     14  C   UNL     1      -5.998 -11.117  11.010  0.00  0.00    +0.024 C 
ATOM     15  C   UNL     1      -3.690 -11.666  10.274  0.00  0.00    +0.019 C 
ATOM     16  C   UNL     1      -4.522  -8.836  10.308  0.00  0.00    +0.094 C 
ATOM     17  C   UNL     1      -3.099 -10.568  11.175  0.00  0.00    +0.085 C 
ENDROOT
BRANCH  12  19
ATOM      9  N   UNL     1      -6.049  -9.678   6.997  0.00  0.00    -0.237 NA
ATOM     10  N   UNL     1      -8.000  -8.304   6.663  0.00  0.00    -0.229 NA
ATOM     19  C   UNL     1      -6.015  -9.256   8.278  0.00  0.00    +0.050 A 
ATOM     20  C   UNL     1      -6.928  -8.371   8.817  0.00  0.00    +0.055 A 
ATOM     21  C   UNL     1      -7.908  -7.924   7.955  0.00  0.00    +0.110 A 
ATOM     22  C   UNL     1      -7.052  -9.169   6.256  0.00  0.00    +0.127 A 
ATOM     25  C   UNL     1      -7.122  -9.614   4.834  0.00  0.00    +0.088 C 
BRANCH  21  24
ATOM      4  O   UNL     1      -8.646  -5.686   8.154  0.00  0.00    -0.461 OA
ATOM     24  C   UNL     1      -8.920  -6.997   8.385  0.00  0.00    +0.153 A 
ATOM     28  C   UNL     1     -10.145  -7.134   8.995  0.00  0.00    +0.051 A 
ATOM     31  C   UNL     1     -10.655  -5.824   9.151  0.00  0.00    +0.042 A 
ATOM     33  C   UNL     1      -9.707  -4.978   8.624  0.00  0.00    +0.196 A 
ENDBRANCH  21  24
ENDBRANCH  12  19
BRANCH  13  18
ATOM     18  C   UNL     1      -6.266  -9.353  12.826  0.00  0.00    +0.124 C 
BRANCH  18   8
ATOM      8  N   UNL     1      -6.221  -9.629  14.271  0.00  0.00    -0.188 NA
ATOM     36  H   UNL     1      -5.310  -9.513  14.731  0.00  0.00    +0.148 HD
BRANCH   8   1
ATOM      1  S   UNL     1      -7.275 -10.777  14.956  0.00  0.00    +0.062 S 
ATOM      2  O   UNL     1      -7.042 -12.070  14.339  0.00  0.00    -0.153 OA
ATOM      3  O   UNL     1      -8.615 -10.223  15.003  0.00  0.00    -0.153 OA
BRANCH   1  23
ATOM     23  C   UNL     1      -6.691 -10.855  16.623  0.00  0.00    +0.150 A 
ATOM     26  C   UNL     1      -5.326 -10.913  16.901  0.00  0.00    +0.147 A 
ATOM     27  C   UNL     1      -7.616 -10.861  17.667  0.00  0.00    +0.077 A 
ATOM     29  C   UNL     1      -7.175 -10.923  18.989  0.00  0.00    +0.122 A 
ATOM     30  C   UNL     1      -4.885 -10.977  18.222  0.00  0.00    +0.051 A 
ATOM     32  C   UNL     1      -5.810 -10.981  19.266  0.00  0.00    +0.049 A 
BRANCH  26   5
ATOM      5  O   UNL     1      -4.404 -10.911  15.897  0.00  0.00    -0.493 OA
ATOM     34  C   UNL     1      -3.035 -10.782  16.275  0.00  0.00    +0.277 C 
ENDBRANCH  26   5
BRANCH  29   6
ATOM      6  O   UNL     1      -8.078 -10.928  20.008  0.00  0.00    -0.495 OA
ATOM     35  C   UNL     1      -9.459 -10.949  19.651  0.00  0.00    +0.277 C 
ENDBRANCH  29   6
ENDBRANCH   1  23
ENDBRANCH   8   1
ENDBRANCH  18   8
ENDBRANCH  13  18
TORSDOF 8
ENDMDL
MODEL 6
REMARK VINA RESULT:      -5.9      2.598      7.567
REMARK  Name = 26742444
REMARK  11 active torsions:
REMARK  status: ('A' for Active; 'I' for Inactive)
REMARK    1  A    between atoms: S_1  and  N_8
REMARK    2  A    between atoms: S_1  and  C_23
REMARK    3  A    between atoms: O_5  and  C_26
REMARK    4  A    between atoms: O_5  and  C_34
REMARK    5  A    between atoms: O_6  and  C_29
REMARK    6  A    between atoms: O_6  and  C_35
REMARK    7  A    between atoms: N_8  and  C_18
REMARK    8  A    between atoms: C_12  and  C_19
REMARK    9  A    between atoms: C_13  and  C_18
REMARK   10  A    between atoms: C_21  and  C_24
REMARK   11  A    between atoms: C_22  and  C_25
REMARK                            x       y       z     vdW  Elec       q    Type
REMARK                         _______ _______ _______ _____ _____    ______ ____
ROOT
ATOM      7  N   UNL     1      -5.489 -12.870  17.550  0.00  0.00    -0.297 NA
ATOM     11  C   UNL     1      -5.550 -10.291  17.904  0.00  0.00    +0.002 C 
ATOM     12  C   UNL     1      -6.984 -10.841  17.662  0.00  0.00    +0.055 C 
ATOM     13  C   UNL     1      -4.485 -12.212  16.672  0.00  0.00    +0.072 C 
ATOM     14  C   UNL     1      -4.648 -10.678  16.714  0.00  0.00    +0.024 C 
ATOM     15  C   UNL     1      -4.999 -11.020  19.149  0.00  0.00    +0.019 C 
ATOM     16  C   UNL     1      -6.844 -12.337  17.261  0.00  0.00    +0.094 C 
ATOM     17  C   UNL     1      -5.151 -12.538  18.954  0.00  0.00    +0.085 C 
ENDROOT
BRANCH  12  19
ATOM      9  N   UNL     1      -8.733  -9.174  17.280  0.00  0.00    -0.237 NA
ATOM     10  N   UNL     1      -9.560  -8.663  15.075  0.00  0.00    -0.229 NA
ATOM     19  C   UNL     1      -7.897 -10.072  16.719  0.00  0.00    +0.050 A 
ATOM     20  C   UNL     1      -7.836 -10.318  15.362  0.00  0.00    +0.055 A 
ATOM     21  C   UNL     1      -8.698  -9.576  14.581  0.00  0.00    +0.110 A 
ATOM     22  C   UNL     1      -9.525  -8.515  16.413  0.00  0.00    +0.127 A 
ATOM     25  C   UNL     1     -10.462  -7.512  16.997  0.00  0.00    +0.088 C 
BRANCH  21  24
ATOM      4  O   UNL     1      -7.565  -9.506  12.507  0.00  0.00    -0.461 OA
ATOM     24  C   UNL     1      -8.739  -9.734  13.152  0.00  0.00    +0.153 A 
ATOM     28  C   UNL     1      -9.726 -10.074  12.255  0.00  0.00    +0.051 A 
ATOM     31  C   UNL     1      -9.118 -10.053  10.977  0.00  0.00    +0.042 A 
ATOM     33  C   UNL     1      -7.804  -9.702  11.183  0.00  0.00    +0.196 A 
ENDBRANCH  21  24
ENDBRANCH  12  19
BRANCH  13  18
ATOM     18  C   UNL     1      -4.522 -12.750  15.241  0.00  0.00    +0.124 C 
BRANCH  18   8
ATOM      8  N   UNL     1      -3.313 -13.555  14.995  0.00  0.00    -0.188 NA
ATOM     36  H   UNL     1      -2.525 -13.404  15.636  0.00  0.00    +0.148 HD
BRANCH   8   1
ATOM      1  S   UNL     1      -2.921 -14.050  13.413  0.00  0.00    +0.062 S 
ATOM      2  O   UNL     1      -4.050 -14.758  12.840  0.00  0.00    -0.153 OA
ATOM      3  O   UNL     1      -1.605 -14.660  13.419  0.00  0.00    -0.153 OA
BRANCH   1  23
ATOM     23  C   UNL     1      -2.768 -12.500  12.577  0.00  0.00    +0.150 A 
ATOM     26  C   UNL     1      -1.981 -11.477  13.106  0.00  0.00    +0.147 A 
ATOM     27  C   UNL     1      -3.448 -12.306  11.375  0.00  0.00    +0.077 A 
ATOM     29  C   UNL     1      -3.340 -11.089  10.701  0.00  0.00    +0.122 A 
ATOM     30  C   UNL     1      -1.874 -10.260  12.433  0.00  0.00    +0.051 A 
ATOM     32  C   UNL     1      -2.553 -10.067  11.230  0.00  0.00    +0.049 A 
BRANCH  26   5
ATOM      5  O   UNL     1      -1.308 -11.643  14.279  0.00  0.00    -0.493 OA
ATOM     34  C   UNL     1      -1.340 -10.557  15.204  0.00  0.00    +0.277 C 
ENDBRANCH  26   5
BRANCH  29   6
ATOM      6  O   UNL     1      -4.004 -10.901   9.527  0.00  0.00    -0.495 OA
ATOM     35  C   UNL     1      -4.222  -9.552   9.116  0.00  0.00    +0.277 C 
ENDBRANCH  29   6
ENDBRANCH   1  23
ENDBRANCH   8   1
ENDBRANCH  18   8
ENDBRANCH  13  18
TORSDOF 8
ENDMDL
MODEL 7
REMARK VINA RESULT:      -5.9      2.808      5.026
REMARK  Name = 26742444
REMARK  11 active torsions:
REMARK  status: ('A' for Active; 'I' for Inactive)
REMARK    1  A    between atoms: S_1  and  N_8
REMARK    2  A    between atoms: S_1  and  C_23
REMARK    3  A    between atoms: O_5  and  C_26
REMARK    4  A    between atoms: O_5  and  C_34
REMARK    5  A    between atoms: O_6  and  C_29
REMARK    6  A    between atoms: O_6  and  C_35
REMARK    7  A    between atoms: N_8  and  C_18
REMARK    8  A    between atoms: C_12  and  C_19
REMARK    9  A    between atoms: C_13  and  C_18
REMARK   10  A    between atoms: C_21  and  C_24
REMARK   11  A    between atoms: C_22  and  C_25
REMARK                            x       y       z     vdW  Elec       q    Type
REMARK                         _______ _______ _______ _____ _____    ______ ____
ROOT
ATOM      7  N   UNL     1      -6.634 -11.418  11.384  0.00  0.00    -0.297 NA
ATOM     11  C   UNL     1      -4.721  -9.705  11.812  0.00  0.00    +0.002 C 
ATOM     12  C   UNL     1      -4.430 -11.041  12.551  0.00  0.00    +0.055 C 
ATOM     13  C   UNL     1      -7.206 -10.115  11.816  0.00  0.00    +0.072 C 
ATOM     14  C   UNL     1      -6.087  -9.155  12.272  0.00  0.00    +0.024 C 
ATOM     15  C   UNL     1      -4.850 -10.046  10.312  0.00  0.00    +0.019 C 
ATOM     16  C   UNL     1      -5.699 -11.930  12.416  0.00  0.00    +0.094 C 
ATOM     17  C   UNL     1      -5.867 -11.187  10.137  0.00  0.00    +0.085 C 
ENDROOT
BRANCH  12  19
ATOM      9  N   UNL     1      -2.629 -10.627  14.153  0.00  0.00    -0.237 NA
ATOM     10  N   UNL     1      -2.953 -10.835  16.532  0.00  0.00    -0.229 NA
ATOM     19  C   UNL     1      -3.921 -10.973  13.983  0.00  0.00    +0.050 A 
ATOM     20  C   UNL     1      -4.780 -11.261  15.025  0.00  0.00    +0.055 A 
ATOM     21  C   UNL     1      -4.236 -11.175  16.289  0.00  0.00    +0.110 A 
ATOM     22  C   UNL     1      -2.216 -10.578  15.434  0.00  0.00    +0.127 A 
ATOM     25  C   UNL     1      -0.792 -10.197  15.661  0.00  0.00    +0.088 C 
BRANCH  21  24
ATOM      4  O   UNL     1      -5.846 -12.526  17.373  0.00  0.00    -0.461 OA
ATOM     24  C   UNL     1      -5.019 -11.450  17.464  0.00  0.00    +0.153 A 
ATOM     28  C   UNL     1      -5.128 -10.860  18.702  0.00  0.00    +0.051 A 
ATOM     31  C   UNL     1      -6.085 -11.619  19.416  0.00  0.00    +0.042 A 
ATOM     33  C   UNL     1      -6.492 -12.621  18.565  0.00  0.00    +0.196 A 
ENDBRANCH  21  24
ENDBRANCH  12  19
BRANCH  13  18
ATOM     18  C   UNL     1      -8.287 -10.279  12.885  0.00  0.00    +0.124 C 
BRANCH  18   8
ATOM      8  N   UNL     1      -8.032  -9.330  13.981  0.00  0.00    -0.188 NA
ATOM     36  H   UNL     1      -7.326  -8.605  13.804  0.00  0.00    +0.148 HD
BRANCH   8   1
ATOM      1  S   UNL     1      -8.228  -9.819  15.600  0.00  0.00    +0.062 S 
ATOM      2  O   UNL     1      -7.224  -9.168  16.421  0.00  0.00    -0.153 OA
ATOM      3  O   UNL     1      -8.383 -11.261  15.645  0.00  0.00    -0.153 OA
BRANCH   1  23
ATOM     23  C   UNL     1      -9.800  -9.118  16.003  0.00  0.00    +0.150 A 
ATOM     26  C   UNL     1     -10.362  -9.301  17.266  0.00  0.00    +0.147 A 
ATOM     27  C   UNL     1     -10.479  -8.376  15.038  0.00  0.00    +0.077 A 
ATOM     29  C   UNL     1     -11.722  -7.816  15.336  0.00  0.00    +0.122 A 
ATOM     30  C   UNL     1     -11.605  -8.742  17.564  0.00  0.00    +0.051 A 
ATOM     32  C   UNL     1     -12.284  -7.999  16.599  0.00  0.00    +0.049 A 
BRANCH  26   5
ATOM      5  O   UNL     1      -9.717 -10.024  18.224  0.00  0.00    -0.493 OA
ATOM     34  C   UNL     1     -10.520 -10.859  19.056  0.00  0.00    +0.277 C 
ENDBRANCH  26   5
BRANCH  29   6
ATOM      6  O   UNL     1     -12.386  -7.091  14.393  0.00  0.00    -0.495 OA
ATOM     35  C   UNL     1     -12.506  -5.687  14.621  0.00  0.00    +0.277 C 
ENDBRANCH  29   6
ENDBRANCH   1  23
ENDBRANCH   8   1
ENDBRANCH  18   8
ENDBRANCH  13  18
TORSDOF 8
ENDMDL
MODEL 8
REMARK VINA RESULT:      -5.8     23.727     26.419
REMARK  Name = 26742444
REMARK  11 active torsions:
REMARK  status: ('A' for Active; 'I' for Inactive)
REMARK    1  A    between atoms: S_1  and  N_8
REMARK    2  A    between atoms: S_1  and  C_23
REMARK    3  A    between atoms: O_5  and  C_26
REMARK    4  A    between atoms: O_5  and  C_34
REMARK    5  A    between atoms: O_6  and  C_29
REMARK    6  A    between atoms: O_6  and  C_35
REMARK    7  A    between atoms: N_8  and  C_18
REMARK    8  A    between atoms: C_12  and  C_19
REMARK    9  A    between atoms: C_13  and  C_18
REMARK   10  A    between atoms: C_21  and  C_24
REMARK   11  A    between atoms: C_22  and  C_25
REMARK                            x       y       z     vdW  Elec       q    Type
REMARK                         _______ _______ _______ _____ _____    ______ ____
ROOT
ATOM      7  N   UNL     1       9.993   8.167   3.719  0.00  0.00    -0.297 NA
ATOM     11  C   UNL     1       9.507   7.978   1.169  0.00  0.00    +0.002 C 
ATOM     12  C   UNL     1       9.696   6.567   1.792  0.00  0.00    +0.055 C 
ATOM     13  C   UNL     1      10.892   9.078   2.962  0.00  0.00    +0.072 C 
ATOM     14  C   UNL     1      10.764   8.830   1.444  0.00  0.00    +0.024 C 
ATOM     15  C   UNL     1       8.334   8.642   1.920  0.00  0.00    +0.019 C 
ATOM     16  C   UNL     1      10.179   6.769   3.257  0.00  0.00    +0.094 C 
ATOM     17  C   UNL     1       8.595   8.568   3.434  0.00  0.00    +0.085 C 
ENDROOT
BRANCH  12  19
ATOM      9  N   UNL     1      11.634   5.078   1.677  0.00  0.00    -0.237 NA
ATOM     10  N   UNL     1      12.111   3.740  -0.269  0.00  0.00    -0.229 NA
ATOM     19  C   UNL     1      10.547   5.557   1.037  0.00  0.00    +0.050 A 
ATOM     20  C   UNL     1      10.182   5.179  -0.240  0.00  0.00    +0.055 A 
ATOM     21  C   UNL     1      11.009   4.259  -0.850  0.00  0.00    +0.110 A 
ATOM     22  C   UNL     1      12.361   4.187   0.976  0.00  0.00    +0.127 A 
ATOM     25  C   UNL     1      13.570   3.635   1.653  0.00  0.00    +0.088 C 
BRANCH  21  24
ATOM      4  O   UNL     1       9.497   4.033  -2.655  0.00  0.00    -0.461 OA
ATOM     24  C   UNL     1      10.747   3.781  -2.181  0.00  0.00    +0.153 A 
ATOM     28  C   UNL     1      11.492   3.105  -3.119  0.00  0.00    +0.051 A 
ATOM     31  C   UNL     1      10.647   2.930  -4.240  0.00  0.00    +0.042 A 
ATOM     33  C   UNL     1       9.445   3.511  -3.908  0.00  0.00    +0.196 A 
ENDBRANCH  21  24
ENDBRANCH  12  19
BRANCH  13  18
ATOM     18  C   UNL     1      12.344   8.990   3.433  0.00  0.00    +0.124 C 
BRANCH  18   8
ATOM      8  N   UNL     1      12.416   9.365   4.855  0.00  0.00    -0.188 NA
ATOM     36  H   UNL     1      12.641  10.346   5.059  0.00  0.00    +0.148 HD
BRANCH   8   1
ATOM      1  S   UNL     1      12.895   8.219   6.020  0.00  0.00    +0.062 S 
ATOM      2  O   UNL     1      13.758   8.859   6.994  0.00  0.00    -0.153 OA
ATOM      3  O   UNL     1      13.327   7.009   5.347  0.00  0.00    -0.153 OA
BRANCH   1  23
ATOM     23  C   UNL     1      11.360   7.847   6.814  0.00  0.00    +0.150 A 
ATOM     26  C   UNL     1      10.496   8.866   7.216  0.00  0.00    +0.147 A 
ATOM     27  C   UNL     1      11.017   6.514   7.039  0.00  0.00    +0.077 A 
ATOM     29  C   UNL     1       9.811   6.200   7.665  0.00  0.00    +0.122 A 
ATOM     30  C   UNL     1       9.291   8.552   7.843  0.00  0.00    +0.051 A 
ATOM     32  C   UNL     1       8.948   7.219   8.066  0.00  0.00    +0.049 A 
BRANCH  26   5
ATOM      5  O   UNL     1      10.810  10.175   7.008  0.00  0.00    -0.493 OA
ATOM     34  C   UNL     1      11.114  10.960   8.160  0.00  0.00    +0.277 C 
ENDBRANCH  26   5
BRANCH  29   6
ATOM      6  O   UNL     1       9.476   4.898   7.885  0.00  0.00    -0.495 OA
ATOM     35  C   UNL     1       9.472   4.450   9.239  0.00  0.00    +0.277 C 
ENDBRANCH  29   6
ENDBRANCH   1  23
ENDBRANCH   8   1
ENDBRANCH  18   8
ENDBRANCH  13  18
TORSDOF 8
ENDMDL
MODEL 9
REMARK VINA RESULT:      -5.7     23.762     26.882
REMARK  Name = 26742444
REMARK  11 active torsions:
REMARK  status: ('A' for Active; 'I' for Inactive)
REMARK    1  A    between atoms: S_1  and  N_8
REMARK    2  A    between atoms: S_1  and  C_23
REMARK    3  A    between atoms: O_5  and  C_26
REMARK    4  A    between atoms: O_5  and  C_34
REMARK    5  A    between atoms: O_6  and  C_29
REMARK    6  A    between atoms: O_6  and  C_35
REMARK    7  A    between atoms: N_8  and  C_18
REMARK    8  A    between atoms: C_12  and  C_19
REMARK    9  A    between atoms: C_13  and  C_18
REMARK   10  A    between atoms: C_21  and  C_24
REMARK   11  A    between atoms: C_22  and  C_25
REMARK                            x       y       z     vdW  Elec       q    Type
REMARK                         _______ _______ _______ _____ _____    ______ ____
ROOT
ATOM      7  N   UNL     1       9.240   5.317   6.174  0.00  0.00    -0.297 NA
ATOM     11  C   UNL     1      10.386   7.625   6.543  0.00  0.00    +0.002 C 
ATOM     12  C   UNL     1       8.931   7.816   6.034  0.00  0.00    +0.055 C 
ATOM     13  C   UNL     1      10.568   5.337   5.505  0.00  0.00    +0.072 C 
ATOM     14  C   UNL     1      11.170   6.759   5.535  0.00  0.00    +0.024 C 
ATOM     15  C   UNL     1      10.296   6.822   7.859  0.00  0.00    +0.019 C 
ATOM     16  C   UNL     1       8.387   6.411   5.647  0.00  0.00    +0.094 C 
ATOM     17  C   UNL     1       9.457   5.554   7.621  0.00  0.00    +0.085 C 
ENDROOT
BRANCH  12  19
ATOM      9  N   UNL     1       9.617   9.810   4.794  0.00  0.00    -0.237 NA
ATOM     10  N   UNL     1       8.284  10.738   3.015  0.00  0.00    -0.229 NA
ATOM     19  C   UNL     1       8.680   8.852   4.949  0.00  0.00    +0.050 A 
ATOM     20  C   UNL     1       7.533   8.772   4.183  0.00  0.00    +0.055 A 
ATOM     21  C   UNL     1       7.387   9.751   3.222  0.00  0.00    +0.110 A 
ATOM     22  C   UNL     1       9.359  10.708   3.824  0.00  0.00    +0.127 A 
ATOM     25  C   UNL     1      10.375  11.782   3.624  0.00  0.00    +0.088 C 
BRANCH  21  24
ATOM      4  O   UNL     1       5.042   9.940   2.985  0.00  0.00    -0.461 OA
ATOM     24  C   UNL     1       6.238   9.788   2.358  0.00  0.00    +0.153 A 
ATOM     28  C   UNL     1       6.063   9.703   0.996  0.00  0.00    +0.051 A 
ATOM     31  C   UNL     1       4.670   9.809   0.772  0.00  0.00    +0.042 A 
ATOM     33  C   UNL     1       4.092   9.951   2.012  0.00  0.00    +0.196 A 
ENDBRANCH  21  24
ENDBRANCH  12  19
BRANCH  13  18
ATOM     18  C   UNL     1      10.513   4.772   4.084  0.00  0.00    +0.124 C 
BRANCH  18   8
ATOM      8  N   UNL     1      11.635   5.318   3.302  0.00  0.00    -0.188 NA
ATOM     36  H   UNL     1      12.477   5.579   3.831  0.00  0.00    +0.148 HD
BRANCH   8   1
ATOM      1  S   UNL     1      11.337   6.191   1.871  0.00  0.00    +0.062 S 
ATOM      2  O   UNL     1      12.313   7.257   1.748  0.00  0.00    -0.153 OA
ATOM      3  O   UNL     1       9.919   6.487   1.782  0.00  0.00    -0.153 OA
BRANCH   1  23
ATOM     23  C   UNL     1      11.689   4.982   0.631  0.00  0.00    +0.150 A 
ATOM     26  C   UNL     1      12.861   4.226   0.680  0.00  0.00    +0.147 A 
ATOM     27  C   UNL     1      10.780   4.790  -0.409  0.00  0.00    +0.077 A 
ATOM     29  C   UNL     1      11.041   3.842  -1.399  0.00  0.00    +0.122 A 
ATOM     30  C   UNL     1      13.123   3.279  -0.309  0.00  0.00    +0.051 A 
ATOM     32  C   UNL     1      12.212   3.087  -1.348  0.00  0.00    +0.049 A 
BRANCH  26   5
ATOM      5  O   UNL     1      13.764   4.397   1.686  0.00  0.00    -0.493 OA
ATOM     34  C   UNL     1      14.918   3.559   1.669  0.00  0.00    +0.277 C 
ENDBRANCH  26   5
BRANCH  29   6
ATOM      6  O   UNL     1      10.153   3.655  -2.414  0.00  0.00    -0.495 OA
ATOM     35  C   UNL     1       9.440   4.803  -2.871  0.00  0.00    +0.277 C 
ENDBRANCH  29   6
ENDBRANCH   1  23
ENDBRANCH   8   1
ENDBRANCH  18   8
ENDBRANCH  13  18
TORSDOF 8
ENDMDL
MODEL 10
REMARK VINA RESULT:      -5.7      2.141      6.274
REMARK  Name = 26742444
REMARK  11 active torsions:
REMARK  status: ('A' for Active; 'I' for Inactive)
REMARK    1  A    between atoms: S_1  and  N_8
REMARK    2  A    between atoms: S_1  and  C_23
REMARK    3  A    between atoms: O_5  and  C_26
REMARK    4  A    between atoms: O_5  and  C_34
REMARK    5  A    between atoms: O_6  and  C_29
REMARK    6  A    between atoms: O_6  and  C_35
REMARK    7  A    between atoms: N_8  and  C_18
REMARK    8  A    between atoms: C_12  and  C_19
REMARK    9  A    between atoms: C_13  and  C_18
REMARK   10  A    between atoms: C_21  and  C_24
REMARK   11  A    between atoms: C_22  and  C_25
REMARK                            x       y       z     vdW  Elec       q    Type
REMARK                         _______ _______ _______ _____ _____    ______ ____
ROOT
ATOM      7  N   UNL     1      -6.239 -10.291  17.416  0.00  0.00    -0.297 NA
ATOM     11  C   UNL     1      -4.585 -12.285  17.154  0.00  0.00    +0.002 C 
ATOM     12  C   UNL     1      -4.057 -11.037  16.393  0.00  0.00    +0.055 C 
ATOM     13  C   UNL     1      -6.977 -11.511  16.991  0.00  0.00    +0.072 C 
ATOM     14  C   UNL     1      -5.992 -12.644  16.631  0.00  0.00    +0.024 C 
ATOM     15  C   UNL     1      -4.742 -11.871  18.632  0.00  0.00    +0.019 C 
ATOM     16  C   UNL     1      -5.183  -9.965  16.425  0.00  0.00    +0.094 C 
ATOM     17  C   UNL     1      -5.584 -10.586  18.712  0.00  0.00    +0.085 C 
ENDROOT
BRANCH  12  19
ATOM      9  N   UNL     1      -2.577 -12.218  14.845  0.00  0.00    -0.237 NA
ATOM     10  N   UNL     1      -2.433 -11.638  12.510  0.00  0.00    -0.229 NA
ATOM     19  C   UNL     1      -3.488 -11.235  14.996  0.00  0.00    +0.050 A 
ATOM     20  C   UNL     1      -3.917 -10.423  13.965  0.00  0.00    +0.055 A 
ATOM     21  C   UNL     1      -3.350 -10.673  12.732  0.00  0.00    +0.110 A 
ATOM     22  C   UNL     1      -2.097 -12.362  13.595  0.00  0.00    +0.127 A 
ATOM     25  C   UNL     1      -1.087 -13.440  13.389  0.00  0.00    +0.088 C 
BRANCH  21  24
ATOM      4  O   UNL     1      -4.847  -9.172  11.685  0.00  0.00    -0.461 OA
ATOM     24  C   UNL     1      -3.705  -9.899  11.573  0.00  0.00    +0.153 A 
ATOM     28  C   UNL     1      -3.136  -9.718  10.333  0.00  0.00    +0.051 A 
ATOM     31  C   UNL     1      -3.984  -8.822   9.639  0.00  0.00    +0.042 A 
ATOM     33  C   UNL     1      -5.011  -8.520  10.504  0.00  0.00    +0.196 A 
ENDBRANCH  21  24
ENDBRANCH  12  19
BRANCH  13  18
ATOM     18  C   UNL     1      -7.962 -11.230  15.855  0.00  0.00    +0.124 C 
BRANCH  18   8
ATOM      8  N   UNL     1      -7.385 -11.703  14.586  0.00  0.00    -0.188 NA
ATOM     36  H   UNL     1      -6.400 -11.468  14.415  0.00  0.00    +0.148 HD
BRANCH   8   1
ATOM      1  S   UNL     1      -8.373 -11.878  13.210  0.00  0.00    +0.062 S 
ATOM      2  O   UNL     1      -8.993 -10.604  12.900  0.00  0.00    -0.153 OA
ATOM      3  O   UNL     1      -9.188 -13.069  13.359  0.00  0.00    -0.153 OA
BRANCH   1  23
ATOM     23  C   UNL     1      -7.181 -12.225  11.951  0.00  0.00    +0.150 A 
ATOM     26  C   UNL     1      -6.164 -13.155  12.166  0.00  0.00    +0.147 A 
ATOM     27  C   UNL     1      -7.266 -11.553  10.732  0.00  0.00    +0.077 A 
ATOM     29  C   UNL     1      -6.333 -11.811   9.726  0.00  0.00    +0.122 A 
ATOM     30  C   UNL     1      -5.231 -13.413  11.161  0.00  0.00    +0.051 A 
ATOM     32  C   UNL     1      -5.317 -12.741   9.941  0.00  0.00    +0.049 A 
BRANCH  26   5
ATOM      5  O   UNL     1      -6.060 -13.822  13.349  0.00  0.00    -0.493 OA
ATOM     34  C   UNL     1      -4.936 -14.685  13.510  0.00  0.00    +0.277 C 
ENDBRANCH  26   5
BRANCH  29   6
ATOM      6  O   UNL     1      -6.416 -11.155   8.536  0.00  0.00    -0.495 OA
ATOM     35  C   UNL     1      -7.515 -10.261   8.364  0.00  0.00    +0.277 C 
ENDBRANCH  29   6
ENDBRANCH   1  23
ENDBRANCH   8   1
ENDBRANCH  18   8
ENDBRANCH  13  18
TORSDOF 8
ENDMDL
