MODEL 1
REMARK VINA RESULT:      -6.7      0.000      0.000
REMARK  Name = 11882035
REMARK  12 active torsions:
REMARK  status: ('A' for Active; 'I' for Inactive)
REMARK    1  A    between atoms: O_5  and  C_39
REMARK    2  A    between atoms: O_5  and  C_40
REMARK    3  A    between atoms: N_7  and  C_12
REMARK    4  A    between atoms: N_8  and  C_18
REMARK    5  A    between atoms: N_9  and  C_28
REMARK    6  A    between atoms: C_13  and  C_16
REMARK    7  A    between atoms: C_17  and  C_21
REMARK    8  A    between atoms: C_18  and  C_20
REMARK    9  A    between atoms: C_18  and  C_23
REMARK   10  A    between atoms: C_20  and  C_22
REMARK   11  A    between atoms: C_24  and  C_29
REMARK   12  A    between atoms: C_24  and  C_30
REMARK                            x       y       z     vdW  Elec       q    Type
REMARK                         _______ _______ _______ _____ _____    ______ ____
ROOT
ATOM      2  O   UNL     1       7.932   7.752   6.899  0.00  0.00    -0.271 OA
ATOM      6  N   UNL     1      10.206   7.713   6.453  0.00  0.00    -0.285 N 
ATOM     12  C   UNL     1      12.421   7.845   5.589  0.00  0.00    +0.094 C 
ATOM     13  C   UNL     1      10.144   8.595   5.295  0.00  0.00    +0.164 C 
ATOM     14  C   UNL     1      11.591   9.001   5.025  0.00  0.00    +0.056 C 
ATOM     15  C   UNL     1      11.591   7.352   6.770  0.00  0.00    +0.131 C 
ATOM     17  C   UNL     1       9.080   7.428   7.206  0.00  0.00    +0.240 C 
ENDROOT
BRANCH  12   7
ATOM      3  O   UNL     1      14.484   7.752   3.606  0.00  0.00    -0.253 OA
ATOM      7  N   UNL     1      12.628   6.807   4.609  0.00  0.00    -0.295 N 
ATOM      9  N   UNL     1      13.617   5.704   2.854  0.00  0.00    -0.269 N 
ATOM     19  C   UNL     1      13.667   6.838   3.670  0.00  0.00    +0.304 C 
ATOM     41  H   UNL     1      11.954   6.051   4.556  0.00  0.00    +0.151 HD
ATOM     43  H   UNL     1      12.870   5.040   3.041  0.00  0.00    +0.156 HD
BRANCH   9  28
ATOM     28  C   UNL     1      14.485   5.361   1.791  0.00  0.00    +0.035 A 
ATOM     35  C   UNL     1      14.860   4.031   1.598  0.00  0.00    +0.027 A 
ATOM     36  C   UNL     1      14.964   6.352   0.935  0.00  0.00    +0.027 A 
ATOM     37  C   UNL     1      15.714   3.693   0.548  0.00  0.00    +0.047 A 
ATOM     38  C   UNL     1      15.818   6.015  -0.114  0.00  0.00    +0.047 A 
ATOM     39  C   UNL     1      16.194   4.684  -0.308  0.00  0.00    +0.120 A 
BRANCH  39   5
ATOM      5  O   UNL     1      17.025   4.354  -1.333  0.00  0.00    -0.495 OA
ATOM     40  C   UNL     1      16.726   4.905  -2.614  0.00  0.00    +0.277 C 
ENDBRANCH  39   5
ENDBRANCH   9  28
ENDBRANCH  12   7
BRANCH  13  16
ATOM      1  O   UNL     1       9.032   6.738   4.288  0.00  0.00    -0.274 OA
ATOM      8  N   UNL     1       9.716   8.509   2.941  0.00  0.00    -0.302 N 
ATOM     16  C   UNL     1       9.561   7.837   4.141  0.00  0.00    +0.234 C 
ATOM     42  H   UNL     1      10.092   9.453   2.952  0.00  0.00    +0.150 HD
BRANCH   8  18
ATOM     18  C   UNL     1       9.260   7.982   1.674  0.00  0.00    +0.163 C 
BRANCH  18  23
ATOM      4  O   UNL     1       8.442   9.488  -0.049  0.00  0.00    -0.274 OA
ATOM     11  N   UNL     1       7.259   9.317   1.912  0.00  0.00    -0.328 N 
ATOM     23  C   UNL     1       8.312   9.012   1.076  0.00  0.00    +0.231 C 
ATOM     45  H   UNL     1       6.545   9.981   1.630  0.00  0.00    +0.145 HD
ATOM     46  H   UNL     1       7.152   8.896   2.830  0.00  0.00    +0.145 HD
ENDBRANCH  18  23
BRANCH  18  20
ATOM     20  C   UNL     1      10.420   7.697   0.712  0.00  0.00    +0.069 C 
BRANCH  20  22
ATOM     10  N   UNL     1      10.796   4.051   0.977  0.00  0.00    -0.360 N 
ATOM     22  C   UNL     1      10.736   6.235   0.586  0.00  0.00    -0.020 A 
ATOM     25  C   UNL     1      11.544   5.625  -0.414  0.00  0.00    +0.003 A 
ATOM     26  C   UNL     1      10.291   5.241   1.427  0.00  0.00    +0.087 A 
ATOM     27  C   UNL     1      11.565   4.255  -0.146  0.00  0.00    +0.047 A 
ATOM     31  C   UNL     1      12.262   6.109  -1.526  0.00  0.00    +0.010 A 
ATOM     32  C   UNL     1      12.270   3.341  -0.937  0.00  0.00    +0.026 A 
ATOM     33  C   UNL     1      12.971   5.207  -2.327  0.00  0.00    +0.001 A 
ATOM     34  C   UNL     1      12.974   3.844  -2.035  0.00  0.00    +0.002 A 
ATOM     44  H   UNL     1      10.631   3.152   1.409  0.00  0.00    +0.165 HD
ENDBRANCH  20  22
ENDBRANCH  18  20
ENDBRANCH   8  18
ENDBRANCH  13  16
BRANCH  17  21
ATOM     21  C   UNL     1       9.290   6.678   8.460  0.00  0.00    +0.066 C 
ATOM     24  C   UNL     1       9.503   5.353   8.534  0.00  0.00    -0.071 C 
ATOM     29  C   UNL     1       9.537   4.529   7.272  0.00  0.00    +0.039 C 
ATOM     30  C   UNL     1       9.721   4.554   9.790  0.00  0.00    +0.039 C 
ENDBRANCH  17  21
TORSDOF 9
ENDMDL
MODEL 2
REMARK VINA RESULT:      -6.6     23.826     26.711
REMARK  Name = 11882035
REMARK  12 active torsions:
REMARK  status: ('A' for Active; 'I' for Inactive)
REMARK    1  A    between atoms: O_5  and  C_39
REMARK    2  A    between atoms: O_5  and  C_40
REMARK    3  A    between atoms: N_7  and  C_12
REMARK    4  A    between atoms: N_8  and  C_18
REMARK    5  A    between atoms: N_9  and  C_28
REMARK    6  A    between atoms: C_13  and  C_16
REMARK    7  A    between atoms: C_17  and  C_21
REMARK    8  A    between atoms: C_18  and  C_20
REMARK    9  A    between atoms: C_18  and  C_23
REMARK   10  A    between atoms: C_20  and  C_22
REMARK   11  A    between atoms: C_24  and  C_29
REMARK   12  A    between atoms: C_24  and  C_30
REMARK                            x       y       z     vdW  Elec       q    Type
REMARK                         _______ _______ _______ _____ _____    ______ ____
ROOT
ATOM      2  O   UNL     1      -6.232 -10.078  17.136  0.00  0.00    -0.271 OA
ATOM      6  N   UNL     1      -7.342 -10.621  15.176  0.00  0.00    -0.285 N 
ATOM     12  C   UNL     1      -8.077 -11.344  13.029  0.00  0.00    +0.094 C 
ATOM     13  C   UNL     1      -6.325 -11.539  14.680  0.00  0.00    +0.164 C 
ATOM     14  C   UNL     1      -6.997 -12.301  13.540  0.00  0.00    +0.056 C 
ATOM     15  C   UNL     1      -8.503 -10.585  14.282  0.00  0.00    +0.131 C 
ATOM     17  C   UNL     1      -7.231 -10.021  16.418  0.00  0.00    +0.240 C 
ENDROOT
BRANCH  12   7
ATOM      3  O   UNL     1      -9.374 -10.631  10.577  0.00  0.00    -0.253 OA
ATOM      7  N   UNL     1      -7.569 -10.457  12.012  0.00  0.00    -0.295 N 
ATOM      9  N   UNL     1      -7.533  -9.276  10.042  0.00  0.00    -0.269 N 
ATOM     19  C   UNL     1      -8.270 -10.160  10.836  0.00  0.00    +0.304 C 
ATOM     41  H   UNL     1      -6.633 -10.079  12.122  0.00  0.00    +0.151 HD
ATOM     43  H   UNL     1      -6.630  -8.981  10.405  0.00  0.00    +0.156 HD
BRANCH   9  28
ATOM     28  C   UNL     1      -7.891  -8.735   8.785  0.00  0.00    +0.035 A 
ATOM     35  C   UNL     1      -8.236  -7.388   8.678  0.00  0.00    +0.027 A 
ATOM     36  C   UNL     1      -7.895  -9.549   7.652  0.00  0.00    +0.027 A 
ATOM     37  C   UNL     1      -8.586  -6.855   7.437  0.00  0.00    +0.047 A 
ATOM     38  C   UNL     1      -8.246  -9.016   6.412  0.00  0.00    +0.047 A 
ATOM     39  C   UNL     1      -8.592  -7.668   6.305  0.00  0.00    +0.120 A 
BRANCH  39   5
ATOM      5  O   UNL     1      -8.932  -7.147   5.094  0.00  0.00    -0.495 OA
ATOM     40  C   UNL     1      -8.574  -7.903   3.939  0.00  0.00    +0.277 C 
ENDBRANCH  39   5
ENDBRANCH   9  28
ENDBRANCH  12   7
BRANCH  13  16
ATOM      1  O   UNL     1      -5.292  -9.731  13.512  0.00  0.00    -0.274 OA
ATOM      8  N   UNL     1      -3.944 -11.298  14.584  0.00  0.00    -0.302 N 
ATOM     16  C   UNL     1      -5.152 -10.743  14.193  0.00  0.00    +0.234 C 
ATOM     42  H   UNL     1      -3.951 -12.089  15.220  0.00  0.00    +0.150 HD
BRANCH   8  18
ATOM     18  C   UNL     1      -2.663 -10.735  14.224  0.00  0.00    +0.163 C 
BRANCH  18  23
ATOM      4  O   UNL     1      -0.797  -9.991  15.593  0.00  0.00    -0.274 OA
ATOM     11  N   UNL     1      -2.452 -11.243  16.578  0.00  0.00    -0.328 N 
ATOM     23  C   UNL     1      -1.851 -10.617  15.506  0.00  0.00    +0.231 C 
ATOM     45  H   UNL     1      -2.022 -11.229  17.497  0.00  0.00    +0.145 HD
ATOM     46  H   UNL     1      -3.336 -11.735  16.496  0.00  0.00    +0.145 HD
ENDBRANCH  18  23
BRANCH  18  20
ATOM     20  C   UNL     1      -1.919 -11.594  13.195  0.00  0.00    +0.069 C 
BRANCH  20  22
ATOM     10  N   UNL     1      -3.937 -13.038  10.484  0.00  0.00    -0.360 N 
ATOM     22  C   UNL     1      -2.748 -11.917  11.986  0.00  0.00    -0.020 A 
ATOM     25  C   UNL     1      -3.176 -11.002  10.982  0.00  0.00    +0.003 A 
ATOM     26  C   UNL     1      -3.233 -13.160  11.652  0.00  0.00    +0.087 A 
ATOM     27  C   UNL     1      -3.920 -11.731  10.053  0.00  0.00    +0.047 A 
ATOM     31  C   UNL     1      -3.000  -9.620  10.775  0.00  0.00    +0.010 A 
ATOM     32  C   UNL     1      -4.500 -11.146   8.923  0.00  0.00    +0.026 A 
ATOM     33  C   UNL     1      -3.575  -9.019   9.649  0.00  0.00    +0.001 A 
ATOM     34  C   UNL     1      -4.312  -9.772   8.738  0.00  0.00    +0.002 A 
ATOM     44  H   UNL     1      -4.402 -13.798  10.007  0.00  0.00    +0.165 HD
ENDBRANCH  20  22
ENDBRANCH  18  20
ENDBRANCH   8  18
ENDBRANCH  13  16
BRANCH  17  21
ATOM     21  C   UNL     1      -8.402  -9.260  16.896  0.00  0.00    +0.066 C 
ATOM     24  C   UNL     1      -9.390  -9.769  17.651  0.00  0.00    -0.071 C 
ATOM     29  C   UNL     1      -9.345 -11.217  18.066  0.00  0.00    +0.039 C 
ATOM     30  C   UNL     1     -10.597  -9.028  18.157  0.00  0.00    +0.039 C 
ENDBRANCH  17  21
TORSDOF 9
ENDMDL
MODEL 3
REMARK VINA RESULT:      -6.4     24.308     27.754
REMARK  Name = 11882035
REMARK  12 active torsions:
REMARK  status: ('A' for Active; 'I' for Inactive)
REMARK    1  A    between atoms: O_5  and  C_39
REMARK    2  A    between atoms: O_5  and  C_40
REMARK    3  A    between atoms: N_7  and  C_12
REMARK    4  A    between atoms: N_8  and  C_18
REMARK    5  A    between atoms: N_9  and  C_28
REMARK    6  A    between atoms: C_13  and  C_16
REMARK    7  A    between atoms: C_17  and  C_21
REMARK    8  A    between atoms: C_18  and  C_20
REMARK    9  A    between atoms: C_18  and  C_23
REMARK   10  A    between atoms: C_20  and  C_22
REMARK   11  A    between atoms: C_24  and  C_29
REMARK   12  A    between atoms: C_24  and  C_30
REMARK                            x       y       z     vdW  Elec       q    Type
REMARK                         _______ _______ _______ _____ _____    ______ ____
ROOT
ATOM      2  O   UNL     1      -8.987  -8.187  17.773  0.00  0.00    -0.271 OA
ATOM      6  N   UNL     1      -9.264  -9.533  15.907  0.00  0.00    -0.285 N 
ATOM     12  C   UNL     1      -9.229 -11.178  14.186  0.00  0.00    +0.094 C 
ATOM     13  C   UNL     1      -8.596 -10.700  16.467  0.00  0.00    +0.164 C 
ATOM     14  C   UNL     1      -8.956 -11.853  15.533  0.00  0.00    +0.056 C 
ATOM     15  C   UNL     1      -9.807  -9.822  14.577  0.00  0.00    +0.131 C 
ATOM     17  C   UNL     1      -9.465  -8.387  16.657  0.00  0.00    +0.240 C 
ENDROOT
BRANCH  12   7
ATOM      3  O   UNL     1      -9.051 -11.086  11.330  0.00  0.00    -0.253 OA
ATOM      7  N   UNL     1      -8.027 -11.043  13.402  0.00  0.00    -0.295 N 
ATOM      9  N   UNL     1      -6.721 -10.869  11.520  0.00  0.00    -0.269 N 
ATOM     19  C   UNL     1      -8.026 -11.006  12.002  0.00  0.00    +0.304 C 
ATOM     41  H   UNL     1      -7.133 -11.038  13.883  0.00  0.00    +0.151 HD
ATOM     43  H   UNL     1      -5.981 -10.818  12.215  0.00  0.00    +0.156 HD
BRANCH   9  28
ATOM     28  C   UNL     1      -6.297 -10.792  10.173  0.00  0.00    +0.035 A 
ATOM     35  C   UNL     1      -6.213 -11.951   9.401  0.00  0.00    +0.027 A 
ATOM     36  C   UNL     1      -5.965  -9.557   9.616  0.00  0.00    +0.027 A 
ATOM     37  C   UNL     1      -5.797 -11.875   8.071  0.00  0.00    +0.047 A 
ATOM     38  C   UNL     1      -5.548  -9.481   8.287  0.00  0.00    +0.047 A 
ATOM     39  C   UNL     1      -5.464 -10.640   7.514  0.00  0.00    +0.120 A 
BRANCH  39   5
ATOM      5  O   UNL     1      -5.060 -10.566   6.217  0.00  0.00    -0.495 OA
ATOM     40  C   UNL     1      -5.241 -11.730   5.413  0.00  0.00    +0.277 C 
ENDBRANCH  39   5
ENDBRANCH   9  28
ENDBRANCH  12   7
BRANCH  13  16
ATOM      1  O   UNL     1      -6.589  -9.635  15.732  0.00  0.00    -0.274 OA
ATOM      8  N   UNL     1      -6.463 -11.242  17.412  0.00  0.00    -0.302 N 
ATOM     16  C   UNL     1      -7.118 -10.449  16.485  0.00  0.00    +0.234 C 
ATOM     42  H   UNL     1      -7.014 -11.817  18.042  0.00  0.00    +0.150 HD
BRANCH   8  18
ATOM     18  C   UNL     1      -5.031 -11.208  17.610  0.00  0.00    +0.163 C 
BRANCH  18  23
ATOM      4  O   UNL     1      -5.582 -11.495  19.960  0.00  0.00    -0.274 OA
ATOM     11  N   UNL     1      -3.541 -12.236  19.212  0.00  0.00    -0.328 N 
ATOM     23  C   UNL     1      -4.769 -11.632  19.049  0.00  0.00    +0.231 C 
ATOM     45  H   UNL     1      -3.246 -12.579  20.120  0.00  0.00    +0.145 HD
ATOM     46  H   UNL     1      -2.890 -12.365  18.444  0.00  0.00    +0.145 HD
ENDBRANCH  18  23
BRANCH  18  20
ATOM     20  C   UNL     1      -4.288 -12.130  16.636  0.00  0.00    +0.069 C 
BRANCH  20  22
ATOM     10  N   UNL     1      -1.793 -10.005  14.971  0.00  0.00    -0.360 N 
ATOM     22  C   UNL     1      -3.360 -11.389  15.716  0.00  0.00    -0.020 A 
ATOM     25  C   UNL     1      -3.271 -11.535  14.303  0.00  0.00    +0.003 A 
ATOM     26  C   UNL     1      -2.438 -10.441  16.097  0.00  0.00    +0.087 A 
ATOM     27  C   UNL     1      -2.281 -10.656  13.861  0.00  0.00    +0.047 A 
ATOM     31  C   UNL     1      -3.941 -12.334  13.355  0.00  0.00    +0.010 A 
ATOM     32  C   UNL     1      -1.925 -10.535  12.513  0.00  0.00    +0.026 A 
ATOM     33  C   UNL     1      -3.596 -12.224  12.003  0.00  0.00    +0.001 A 
ATOM     34  C   UNL     1      -2.603 -11.338  11.591  0.00  0.00    +0.002 A 
ATOM     44  H   UNL     1      -1.065  -9.304  14.956  0.00  0.00    +0.165 HD
ENDBRANCH  20  22
ENDBRANCH  18  20
ENDBRANCH   8  18
ENDBRANCH  13  16
BRANCH  17  21
ATOM     21  C   UNL     1     -10.314  -7.340  16.055  0.00  0.00    +0.066 C 
ATOM     24  C   UNL     1     -11.654  -7.290  16.149  0.00  0.00    -0.071 C 
ATOM     29  C   UNL     1     -12.389  -8.358  16.917  0.00  0.00    +0.039 C 
ATOM     30  C   UNL     1     -12.551  -6.242  15.551  0.00  0.00    +0.039 C 
ENDBRANCH  17  21
TORSDOF 9
ENDMDL
MODEL 4
REMARK VINA RESULT:      -6.4     33.089     36.517
REMARK  Name = 11882035
REMARK  12 active torsions:
REMARK  status: ('A' for Active; 'I' for Inactive)
REMARK    1  A    between atoms: O_5  and  C_39
REMARK    2  A    between atoms: O_5  and  C_40
REMARK    3  A    between atoms: N_7  and  C_12
REMARK    4  A    between atoms: N_8  and  C_18
REMARK    5  A    between atoms: N_9  and  C_28
REMARK    6  A    between atoms: C_13  and  C_16
REMARK    7  A    between atoms: C_17  and  C_21
REMARK    8  A    between atoms: C_18  and  C_20
REMARK    9  A    between atoms: C_18  and  C_23
REMARK   10  A    between atoms: C_20  and  C_22
REMARK   11  A    between atoms: C_24  and  C_29
REMARK   12  A    between atoms: C_24  and  C_30
REMARK                            x       y       z     vdW  Elec       q    Type
REMARK                         _______ _______ _______ _____ _____    ______ ____
ROOT
ATOM      2  O   UNL     1       6.438  -2.112  38.601  0.00  0.00    -0.271 OA
ATOM      6  N   UNL     1       5.891  -4.337  38.951  0.00  0.00    -0.285 N 
ATOM     12  C   UNL     1       5.672  -6.707  39.021  0.00  0.00    +0.094 C 
ATOM     13  C   UNL     1       7.126  -4.881  38.404  0.00  0.00    +0.164 C 
ATOM     14  C   UNL     1       7.148  -6.343  38.843  0.00  0.00    +0.056 C 
ATOM     15  C   UNL     1       5.035  -5.400  39.485  0.00  0.00    +0.131 C 
ATOM     17  C   UNL     1       5.690  -2.972  39.067  0.00  0.00    +0.240 C 
ENDROOT
BRANCH  12   7
ATOM      3  O   UNL     1       5.709  -9.395  38.035  0.00  0.00    -0.253 OA
ATOM      7  N   UNL     1       5.085  -7.182  37.792  0.00  0.00    -0.295 N 
ATOM      9  N   UNL     1       4.496  -8.683  36.156  0.00  0.00    -0.269 N 
ATOM     19  C   UNL     1       5.149  -8.520  37.382  0.00  0.00    +0.304 C 
ATOM     41  H   UNL     1       4.662  -6.506  37.164  0.00  0.00    +0.151 HD
ATOM     43  H   UNL     1       4.084  -7.850  35.744  0.00  0.00    +0.156 HD
BRANCH   9  28
ATOM     28  C   UNL     1       4.338  -9.873  35.409  0.00  0.00    +0.035 A 
ATOM     35  C   UNL     1       5.375 -10.331  34.598  0.00  0.00    +0.027 A 
ATOM     36  C   UNL     1       3.144 -10.591  35.486  0.00  0.00    +0.027 A 
ATOM     37  C   UNL     1       5.219 -11.507  33.863  0.00  0.00    +0.047 A 
ATOM     38  C   UNL     1       2.987 -11.766  34.751  0.00  0.00    +0.047 A 
ATOM     39  C   UNL     1       4.026 -12.224  33.939  0.00  0.00    +0.120 A 
BRANCH  39   5
ATOM      5  O   UNL     1       3.874 -13.372  33.224  0.00  0.00    -0.495 OA
ATOM     40  C   UNL     1       4.600 -13.475  32.000  0.00  0.00    +0.277 C 
ENDBRANCH  39   5
ENDBRANCH   9  28
ENDBRANCH  12   7
BRANCH  13  16
ATOM      1  O   UNL     1       6.319  -3.986  36.342  0.00  0.00    -0.274 OA
ATOM      8  N   UNL     1       7.991  -5.606  36.291  0.00  0.00    -0.302 N 
ATOM     16  C   UNL     1       7.090  -4.756  36.910  0.00  0.00    +0.234 C 
ATOM     42  H   UNL     1       8.640  -6.135  36.866  0.00  0.00    +0.150 HD
BRANCH   8  18
ATOM     18  C   UNL     1       8.136  -5.694  34.856  0.00  0.00    +0.163 C 
BRANCH  18  23
ATOM      4  O   UNL     1      10.388  -4.782  34.943  0.00  0.00    -0.274 OA
ATOM     11  N   UNL     1       8.887  -3.866  33.465  0.00  0.00    -0.328 N 
ATOM     23  C   UNL     1       9.258  -4.744  34.461  0.00  0.00    +0.231 C 
ATOM     45  H   UNL     1       9.546  -3.186  33.099  0.00  0.00    +0.145 HD
ATOM     46  H   UNL     1       7.957  -3.862  33.059  0.00  0.00    +0.145 HD
ENDBRANCH  18  23
BRANCH  18  20
ATOM     20  C   UNL     1       8.453  -7.121  34.391  0.00  0.00    +0.069 C 
BRANCH  20  22
ATOM     10  N   UNL     1       6.024  -7.621  31.679  0.00  0.00    -0.360 N 
ATOM     22  C   UNL     1       7.611  -7.563  33.229  0.00  0.00    -0.020 A 
ATOM     25  C   UNL     1       7.799  -8.734  32.443  0.00  0.00    +0.003 A 
ATOM     26  C   UNL     1       6.513  -6.899  32.734  0.00  0.00    +0.087 A 
ATOM     27  C   UNL     1       6.791  -8.746  31.477  0.00  0.00    +0.047 A 
ATOM     31  C   UNL     1       8.734  -9.788  32.460  0.00  0.00    +0.010 A 
ATOM     32  C   UNL     1       6.669  -9.763  30.524  0.00  0.00    +0.026 A 
ATOM     33  C   UNL     1       8.626 -10.813  31.513  0.00  0.00    +0.001 A 
ATOM     34  C   UNL     1       7.608 -10.799  30.561  0.00  0.00    +0.002 A 
ATOM     44  H   UNL     1       5.217  -7.366  31.127  0.00  0.00    +0.165 HD
ENDBRANCH  20  22
ENDBRANCH  18  20
ENDBRANCH   8  18
ENDBRANCH  13  16
BRANCH  17  21
ATOM     21  C   UNL     1       4.487  -2.537  39.803  0.00  0.00    +0.066 C 
ATOM     24  C   UNL     1       4.468  -2.181  41.099  0.00  0.00    -0.071 C 
ATOM     29  C   UNL     1       5.743  -2.212  41.902  0.00  0.00    +0.039 C 
ATOM     30  C   UNL     1       3.265  -1.734  41.882  0.00  0.00    +0.039 C 
ENDBRANCH  17  21
TORSDOF 9
ENDMDL
MODEL 5
REMARK VINA RESULT:      -6.2     24.526     28.155
REMARK  Name = 11882035
REMARK  12 active torsions:
REMARK  status: ('A' for Active; 'I' for Inactive)
REMARK    1  A    between atoms: O_5  and  C_39
REMARK    2  A    between atoms: O_5  and  C_40
REMARK    3  A    between atoms: N_7  and  C_12
REMARK    4  A    between atoms: N_8  and  C_18
REMARK    5  A    between atoms: N_9  and  C_28
REMARK    6  A    between atoms: C_13  and  C_16
REMARK    7  A    between atoms: C_17  and  C_21
REMARK    8  A    between atoms: C_18  and  C_20
REMARK    9  A    between atoms: C_18  and  C_23
REMARK   10  A    between atoms: C_20  and  C_22
REMARK   11  A    between atoms: C_24  and  C_29
REMARK   12  A    between atoms: C_24  and  C_30
REMARK                            x       y       z     vdW  Elec       q    Type
REMARK                         _______ _______ _______ _____ _____    ______ ____
ROOT
ATOM      2  O   UNL     1      -2.853 -15.064  14.913  0.00  0.00    -0.271 OA
ATOM      6  N   UNL     1      -2.566 -13.108  13.704  0.00  0.00    -0.285 N 
ATOM     12  C   UNL     1      -2.349 -10.892  12.861  0.00  0.00    +0.094 C 
ATOM     13  C   UNL     1      -2.391 -12.243  14.862  0.00  0.00    +0.164 C 
ATOM     14  C   UNL     1      -1.837 -10.934  14.303  0.00  0.00    +0.056 C 
ATOM     15  C   UNL     1      -2.393 -12.362  12.454  0.00  0.00    +0.131 C 
ATOM     17  C   UNL     1      -2.710 -14.479  13.840  0.00  0.00    +0.240 C 
ENDROOT
BRANCH  12   7
ATOM      3  O   UNL     1      -3.758 -10.211  10.462  0.00  0.00    -0.253 OA
ATOM      7  N   UNL     1      -3.647 -10.272  12.771  0.00  0.00    -0.295 N 
ATOM      9  N   UNL     1      -5.514  -9.376  11.778  0.00  0.00    -0.269 N 
ATOM     19  C   UNL     1      -4.269  -9.971  11.553  0.00  0.00    +0.304 C 
ATOM     41  H   UNL     1      -4.105  -9.981  13.629  0.00  0.00    +0.151 HD
ATOM     43  H   UNL     1      -5.790  -9.245  12.748  0.00  0.00    +0.156 HD
BRANCH   9  28
ATOM     28  C   UNL     1      -6.448  -8.927  10.814  0.00  0.00    +0.035 A 
ATOM     35  C   UNL     1      -6.029  -8.111   9.764  0.00  0.00    +0.027 A 
ATOM     36  C   UNL     1      -7.788  -9.304  10.914  0.00  0.00    +0.027 A 
ATOM     37  C   UNL     1      -6.950  -7.671   8.813  0.00  0.00    +0.047 A 
ATOM     38  C   UNL     1      -8.709  -8.864   9.963  0.00  0.00    +0.047 A 
ATOM     39  C   UNL     1      -8.289  -8.046   8.912  0.00  0.00    +0.120 A 
BRANCH  39   5
ATOM      5  O   UNL     1      -9.187  -7.619   7.984  0.00  0.00    -0.495 OA
ATOM     40  C   UNL     1      -9.406  -6.212   7.892  0.00  0.00    +0.277 C 
ENDBRANCH  39   5
ENDBRANCH   9  28
ENDBRANCH  12   7
BRANCH  13  16
ATOM      1  O   UNL     1      -4.772 -12.075  14.882  0.00  0.00    -0.274 OA
ATOM      8  N   UNL     1      -3.605 -11.797  16.877  0.00  0.00    -0.302 N 
ATOM     16  C   UNL     1      -3.722 -12.040  15.519  0.00  0.00    +0.234 C 
ATOM     42  H   UNL     1      -2.691 -11.878  17.313  0.00  0.00    +0.150 HD
BRANCH   8  18
ATOM     18  C   UNL     1      -4.740 -11.546  17.737  0.00  0.00    +0.163 C 
BRANCH  18  23
ATOM      4  O   UNL     1      -5.041 -11.796  20.135  0.00  0.00    -0.274 OA
ATOM     11  N   UNL     1      -2.958 -12.172  19.245  0.00  0.00    -0.328 N 
ATOM     23  C   UNL     1      -4.290 -11.827  19.164  0.00  0.00    +0.231 C 
ATOM     45  H   UNL     1      -2.532 -12.398  20.139  0.00  0.00    +0.145 HD
ATOM     46  H   UNL     1      -2.355 -12.216  18.430  0.00  0.00    +0.145 HD
ENDBRANCH  18  23
BRANCH  18  20
ATOM     20  C   UNL     1      -5.257 -10.108  17.610  0.00  0.00    +0.069 C 
BRANCH  20  22
ATOM     10  N   UNL     1      -8.490  -9.705  15.908  0.00  0.00    -0.360 N 
ATOM     22  C   UNL     1      -6.689 -10.034  17.163  0.00  0.00    -0.020 A 
ATOM     25  C   UNL     1      -7.837 -10.360  17.938  0.00  0.00    +0.003 A 
ATOM     26  C   UNL     1      -7.123  -9.635  15.920  0.00  0.00    +0.087 A 
ATOM     27  C   UNL     1      -8.953 -10.145  17.127  0.00  0.00    +0.047 A 
ATOM     31  C   UNL     1      -8.035 -10.818  19.256  0.00  0.00    +0.010 A 
ATOM     32  C   UNL     1     -10.262 -10.367  17.569  0.00  0.00    +0.026 A 
ATOM     33  C   UNL     1      -9.338 -11.045  19.712  0.00  0.00    +0.001 A 
ATOM     34  C   UNL     1     -10.433 -10.822  18.880  0.00  0.00    +0.002 A 
ATOM     44  H   UNL     1      -9.075  -9.466  15.119  0.00  0.00    +0.165 HD
ENDBRANCH  20  22
ENDBRANCH  18  20
ENDBRANCH   8  18
ENDBRANCH  13  16
BRANCH  17  21
ATOM     21  C   UNL     1      -2.693 -15.276  12.598  0.00  0.00    +0.066 C 
ATOM     24  C   UNL     1      -1.627 -15.950  12.134  0.00  0.00    -0.071 C 
ATOM     29  C   UNL     1      -0.332 -15.922  12.905  0.00  0.00    +0.039 C 
ATOM     30  C   UNL     1      -1.570 -16.771  10.876  0.00  0.00    +0.039 C 
ENDBRANCH  17  21
TORSDOF 9
ENDMDL
MODEL 6
REMARK VINA RESULT:      -6.2      3.436      8.622
REMARK  Name = 11882035
REMARK  12 active torsions:
REMARK  status: ('A' for Active; 'I' for Inactive)
REMARK    1  A    between atoms: O_5  and  C_39
REMARK    2  A    between atoms: O_5  and  C_40
REMARK    3  A    between atoms: N_7  and  C_12
REMARK    4  A    between atoms: N_8  and  C_18
REMARK    5  A    between atoms: N_9  and  C_28
REMARK    6  A    between atoms: C_13  and  C_16
REMARK    7  A    between atoms: C_17  and  C_21
REMARK    8  A    between atoms: C_18  and  C_20
REMARK    9  A    between atoms: C_18  and  C_23
REMARK   10  A    between atoms: C_20  and  C_22
REMARK   11  A    between atoms: C_24  and  C_29
REMARK   12  A    between atoms: C_24  and  C_30
REMARK                            x       y       z     vdW  Elec       q    Type
REMARK                         _______ _______ _______ _____ _____    ______ ____
ROOT
ATOM      2  O   UNL     1      15.676   7.138   4.576  0.00  0.00    -0.271 OA
ATOM      6  N   UNL     1      14.276   8.475   5.849  0.00  0.00    -0.285 N 
ATOM     12  C   UNL     1      12.515   9.548   7.041  0.00  0.00    +0.094 C 
ATOM     13  C   UNL     1      13.201   7.500   5.960  0.00  0.00    +0.164 C 
ATOM     14  C   UNL     1      12.289   8.034   7.063  0.00  0.00    +0.056 C 
ATOM     15  C   UNL     1      13.976   9.684   6.622  0.00  0.00    +0.131 C 
ATOM     17  C   UNL     1      15.468   8.169   5.215  0.00  0.00    +0.240 C 
ENDROOT
BRANCH  12   7
ATOM      3  O   UNL     1       9.782  10.263   7.507  0.00  0.00    -0.253 OA
ATOM      7  N   UNL     1      11.628  10.209   6.116  0.00  0.00    -0.295 N 
ATOM      9  N   UNL     1       9.686  11.158   5.339  0.00  0.00    -0.269 N 
ATOM     19  C   UNL     1      10.299  10.524   6.424  0.00  0.00    +0.304 C 
ATOM     41  H   UNL     1      11.962  10.398   5.176  0.00  0.00    +0.151 HD
ATOM     43  H   UNL     1      10.258  11.298   4.510  0.00  0.00    +0.156 HD
BRANCH   9  28
ATOM     28  C   UNL     1       8.357  11.633   5.248  0.00  0.00    +0.035 A 
ATOM     35  C   UNL     1       8.013  12.856   5.823  0.00  0.00    +0.027 A 
ATOM     36  C   UNL     1       7.391  10.879   4.582  0.00  0.00    +0.027 A 
ATOM     37  C   UNL     1       6.702  13.326   5.732  0.00  0.00    +0.047 A 
ATOM     38  C   UNL     1       6.081  11.347   4.491  0.00  0.00    +0.047 A 
ATOM     39  C   UNL     1       5.736  12.572   5.067  0.00  0.00    +0.120 A 
BRANCH  39   5
ATOM      5  O   UNL     1       4.458  13.030   4.977  0.00  0.00    -0.495 OA
ATOM     40  C   UNL     1       3.493  12.440   5.846  0.00  0.00    +0.277 C 
ENDBRANCH  39   5
ENDBRANCH   9  28
ENDBRANCH  12   7
BRANCH  13  16
ATOM      1  O   UNL     1      12.373   8.392   3.906  0.00  0.00    -0.274 OA
ATOM      8  N   UNL     1      11.972   6.154   4.407  0.00  0.00    -0.302 N 
ATOM     16  C   UNL     1      12.484   7.417   4.646  0.00  0.00    +0.234 C 
ATOM     42  H   UNL     1      12.200   5.402   5.049  0.00  0.00    +0.150 HD
BRANCH   8  18
ATOM     18  C   UNL     1      11.218   5.818   3.220  0.00  0.00    +0.163 C 
BRANCH  18  23
ATOM      4  O   UNL     1      11.321   3.510   2.464  0.00  0.00    -0.274 OA
ATOM     11  N   UNL     1      13.163   4.848   2.161  0.00  0.00    -0.328 N 
ATOM     23  C   UNL     1      11.881   4.595   2.601  0.00  0.00    +0.231 C 
ATOM     45  H   UNL     1      13.713   4.121   1.715  0.00  0.00    +0.145 HD
ATOM     46  H   UNL     1      13.604   5.757   2.259  0.00  0.00    +0.145 HD
ENDBRANCH  18  23
BRANCH  18  20
ATOM     20  C   UNL     1       9.744   5.531   3.529  0.00  0.00    +0.069 C 
BRANCH  20  22
ATOM     10  N   UNL     1       8.293   7.775   6.052  0.00  0.00    -0.360 N 
ATOM     22  C   UNL     1       9.246   6.253   4.747  0.00  0.00    -0.020 A 
ATOM     25  C   UNL     1       9.380   5.829   6.099  0.00  0.00    +0.003 A 
ATOM     26  C   UNL     1       8.572   7.453   4.751  0.00  0.00    +0.087 A 
ATOM     27  C   UNL     1       8.775   6.801   6.897  0.00  0.00    +0.047 A 
ATOM     31  C   UNL     1       9.962   4.707   6.722  0.00  0.00    +0.010 A 
ATOM     32  C   UNL     1       8.720   6.708   8.292  0.00  0.00    +0.026 A 
ATOM     33  C   UNL     1       9.915   4.600   8.117  0.00  0.00    +0.001 A 
ATOM     34  C   UNL     1       9.304   5.586   8.888  0.00  0.00    +0.002 A 
ATOM     44  H   UNL     1       7.806   8.609   6.349  0.00  0.00    +0.165 HD
ENDBRANCH  20  22
ENDBRANCH  18  20
ENDBRANCH   8  18
ENDBRANCH  13  16
BRANCH  17  21
ATOM     21  C   UNL     1      16.554   9.163   5.324  0.00  0.00    +0.066 C 
ATOM     24  C   UNL     1      16.814  10.117   4.413  0.00  0.00    -0.071 C 
ATOM     29  C   UNL     1      15.961  10.219   3.174  0.00  0.00    +0.039 C 
ATOM     30  C   UNL     1      17.908  11.146   4.488  0.00  0.00    +0.039 C 
ENDBRANCH  17  21
TORSDOF 9
ENDMDL
MODEL 7
REMARK VINA RESULT:      -6.2      3.564      4.755
REMARK  Name = 11882035
REMARK  12 active torsions:
REMARK  status: ('A' for Active; 'I' for Inactive)
REMARK    1  A    between atoms: O_5  and  C_39
REMARK    2  A    between atoms: O_5  and  C_40
REMARK    3  A    between atoms: N_7  and  C_12
REMARK    4  A    between atoms: N_8  and  C_18
REMARK    5  A    between atoms: N_9  and  C_28
REMARK    6  A    between atoms: C_13  and  C_16
REMARK    7  A    between atoms: C_17  and  C_21
REMARK    8  A    between atoms: C_18  and  C_20
REMARK    9  A    between atoms: C_18  and  C_23
REMARK   10  A    between atoms: C_20  and  C_22
REMARK   11  A    between atoms: C_24  and  C_29
REMARK   12  A    between atoms: C_24  and  C_30
REMARK                            x       y       z     vdW  Elec       q    Type
REMARK                         _______ _______ _______ _____ _____    ______ ____
ROOT
ATOM      2  O   UNL     1       9.821   6.444   4.616  0.00  0.00    -0.271 OA
ATOM      6  N   UNL     1      11.638   7.370   5.718  0.00  0.00    -0.285 N 
ATOM     12  C   UNL     1      13.548   8.575   6.473  0.00  0.00    +0.094 C 
ATOM     13  C   UNL     1      11.759   8.534   4.851  0.00  0.00    +0.164 C 
ATOM     14  C   UNL     1      12.691   9.489   5.593  0.00  0.00    +0.056 C 
ATOM     15  C   UNL     1      12.606   7.425   6.817  0.00  0.00    +0.131 C 
ATOM     17  C   UNL     1      10.613   6.453   5.559  0.00  0.00    +0.240 C 
ENDROOT
BRANCH  12   7
ATOM      3  O   UNL     1      16.130   9.813   6.477  0.00  0.00    -0.253 OA
ATOM      7  N   UNL     1      14.725   8.114   5.779  0.00  0.00    -0.295 N 
ATOM      9  N   UNL     1      16.908   8.105   5.066  0.00  0.00    -0.269 N 
ATOM     19  C   UNL     1      15.955   8.781   5.834  0.00  0.00    +0.304 C 
ATOM     41  H   UNL     1      14.643   7.305   5.172  0.00  0.00    +0.151 HD
ATOM     43  H   UNL     1      16.597   7.261   4.592  0.00  0.00    +0.156 HD
BRANCH   9  28
ATOM     28  C   UNL     1      18.265   8.453   4.864  0.00  0.00    +0.035 A 
ATOM     35  C   UNL     1      19.152   8.453   5.940  0.00  0.00    +0.027 A 
ATOM     36  C   UNL     1      18.715   8.792   3.588  0.00  0.00    +0.027 A 
ATOM     37  C   UNL     1      20.490   8.793   5.740  0.00  0.00    +0.047 A 
ATOM     38  C   UNL     1      20.052   9.133   3.388  0.00  0.00    +0.047 A 
ATOM     39  C   UNL     1      20.940   9.133   4.465  0.00  0.00    +0.120 A 
BRANCH  39   5
ATOM      5  O   UNL     1      22.246   9.464   4.269  0.00  0.00    -0.495 OA
ATOM     40  C   UNL     1      23.211   8.807   5.089  0.00  0.00    +0.277 C 
ENDBRANCH  39   5
ENDBRANCH   9  28
ENDBRANCH  12   7
BRANCH  13  16
ATOM      1  O   UNL     1      12.576   8.905   2.639  0.00  0.00    -0.274 OA
ATOM      8  N   UNL     1      12.554   6.735   3.484  0.00  0.00    -0.302 N 
ATOM     16  C   UNL     1      12.343   8.103   3.540  0.00  0.00    +0.234 C 
ATOM     42  H   UNL     1      12.406   6.181   4.322  0.00  0.00    +0.150 HD
BRANCH   8  18
ATOM     18  C   UNL     1      13.088   6.065   2.320  0.00  0.00    +0.163 C 
BRANCH  18  23
ATOM      4  O   UNL     1      15.307   6.805   2.981  0.00  0.00    -0.274 OA
ATOM     11  N   UNL     1      15.043   4.644   2.247  0.00  0.00    -0.328 N 
ATOM     23  C   UNL     1      14.586   5.912   2.542  0.00  0.00    +0.231 C 
ATOM     45  H   UNL     1      16.022   4.403   2.363  0.00  0.00    +0.145 HD
ATOM     46  H   UNL     1      14.430   3.909   1.908  0.00  0.00    +0.145 HD
ENDBRANCH  18  23
BRANCH  18  20
ATOM     20  C   UNL     1      12.437   4.696   2.089  0.00  0.00    +0.069 C 
BRANCH  20  22
ATOM     10  N   UNL     1       9.764   5.016  -0.413  0.00  0.00    -0.360 N 
ATOM     22  C   UNL     1      11.520   4.672   0.900  0.00  0.00    -0.020 A 
ATOM     25  C   UNL     1      11.770   4.043  -0.352  0.00  0.00    +0.003 A 
ATOM     26  C   UNL     1      10.279   5.263   0.831  0.00  0.00    +0.087 A 
ATOM     27  C   UNL     1      10.653   4.273  -1.157  0.00  0.00    +0.047 A 
ATOM     31  C   UNL     1      12.843   3.296  -0.878  0.00  0.00    +0.010 A 
ATOM     32  C   UNL     1      10.554   3.794  -2.468  0.00  0.00    +0.026 A 
ATOM     33  C   UNL     1      12.759   2.810  -2.187  0.00  0.00    +0.001 A 
ATOM     34  C   UNL     1      11.631   3.055  -2.968  0.00  0.00    +0.002 A 
ATOM     44  H   UNL     1       8.861   5.331  -0.739  0.00  0.00    +0.165 HD
ENDBRANCH  20  22
ENDBRANCH  18  20
ENDBRANCH   8  18
ENDBRANCH  13  16
BRANCH  17  21
ATOM     21  C   UNL     1      10.478   5.418   6.604  0.00  0.00    +0.066 C 
ATOM     24  C   UNL     1       9.771   5.561   7.737  0.00  0.00    -0.071 C 
ATOM     29  C   UNL     1       9.043   6.853   8.007  0.00  0.00    +0.039 C 
ATOM     30  C   UNL     1       9.610   4.532   8.823  0.00  0.00    +0.039 C 
ENDBRANCH  17  21
TORSDOF 9
ENDMDL
MODEL 8
REMARK VINA RESULT:      -6.2      3.764      6.634
REMARK  Name = 11882035
REMARK  12 active torsions:
REMARK  status: ('A' for Active; 'I' for Inactive)
REMARK    1  A    between atoms: O_5  and  C_39
REMARK    2  A    between atoms: O_5  and  C_40
REMARK    3  A    between atoms: N_7  and  C_12
REMARK    4  A    between atoms: N_8  and  C_18
REMARK    5  A    between atoms: N_9  and  C_28
REMARK    6  A    between atoms: C_13  and  C_16
REMARK    7  A    between atoms: C_17  and  C_21
REMARK    8  A    between atoms: C_18  and  C_20
REMARK    9  A    between atoms: C_18  and  C_23
REMARK   10  A    between atoms: C_20  and  C_22
REMARK   11  A    between atoms: C_24  and  C_29
REMARK   12  A    between atoms: C_24  and  C_30
REMARK                            x       y       z     vdW  Elec       q    Type
REMARK                         _______ _______ _______ _____ _____    ______ ____
ROOT
ATOM      2  O   UNL     1      10.168  10.682   6.687  0.00  0.00    -0.271 OA
ATOM      6  N   UNL     1      10.373   8.417   6.244  0.00  0.00    -0.285 N 
ATOM     12  C   UNL     1      11.024   6.154   5.894  0.00  0.00    +0.094 C 
ATOM     13  C   UNL     1      11.672   8.259   6.882  0.00  0.00    +0.164 C 
ATOM     14  C   UNL     1      11.868   6.751   7.022  0.00  0.00    +0.056 C 
ATOM     15  C   UNL     1       9.860   7.131   5.762  0.00  0.00    +0.131 C 
ATOM     17  C   UNL     1       9.695   9.624   6.272  0.00  0.00    +0.240 C 
ENDROOT
BRANCH  12   7
ATOM      3  O   UNL     1      10.359   4.537   3.625  0.00  0.00    -0.253 OA
ATOM      7  N   UNL     1      11.772   6.042   4.666  0.00  0.00    -0.295 N 
ATOM      9  N   UNL     1      12.293   5.320   2.549  0.00  0.00    -0.269 N 
ATOM     19  C   UNL     1      11.376   5.225   3.600  0.00  0.00    +0.304 C 
ATOM     41  H   UNL     1      12.660   6.529   4.595  0.00  0.00    +0.151 HD
ATOM     43  H   UNL     1      13.088   5.937   2.691  0.00  0.00    +0.156 HD
BRANCH   9  28
ATOM     28  C   UNL     1      12.253   4.656   1.300  0.00  0.00    +0.035 A 
ATOM     35  C   UNL     1      13.311   3.833   0.914  0.00  0.00    +0.027 A 
ATOM     36  C   UNL     1      11.155   4.823   0.457  0.00  0.00    +0.027 A 
ATOM     37  C   UNL     1      13.270   3.176  -0.316  0.00  0.00    +0.047 A 
ATOM     38  C   UNL     1      11.114   4.167  -0.773  0.00  0.00    +0.047 A 
ATOM     39  C   UNL     1      12.173   3.344  -1.160  0.00  0.00    +0.120 A 
BRANCH  39   5
ATOM      5  O   UNL     1      12.133   2.702  -2.360  0.00  0.00    -0.495 OA
ATOM     40  C   UNL     1      10.845   2.383  -2.882  0.00  0.00    +0.277 C 
ENDBRANCH  39   5
ENDBRANCH   9  28
ENDBRANCH  12   7
BRANCH  13  16
ATOM      1  O   UNL     1      12.550   9.014   4.794  0.00  0.00    -0.274 OA
ATOM      8  N   UNL     1      13.862   9.213   6.708  0.00  0.00    -0.302 N 
ATOM     16  C   UNL     1      12.721   8.870   6.003  0.00  0.00    +0.234 C 
ATOM     42  H   UNL     1      13.858   9.129   7.719  0.00  0.00    +0.150 HD
BRANCH   8  18
ATOM     18  C   UNL     1      15.029   9.799   6.087  0.00  0.00    +0.163 C 
BRANCH  18  23
ATOM      4  O   UNL     1      14.806  12.147   5.498  0.00  0.00    -0.274 OA
ATOM     11  N   UNL     1      15.097  11.591   7.708  0.00  0.00    -0.328 N 
ATOM     23  C   UNL     1      14.980  11.295   6.366  0.00  0.00    +0.231 C 
ATOM     45  H   UNL     1      15.067  12.552   8.033  0.00  0.00    +0.145 HD
ATOM     46  H   UNL     1      15.215  10.874   8.416  0.00  0.00    +0.145 HD
ENDBRANCH  18  23
BRANCH  18  20
ATOM     20  C   UNL     1      16.334   9.197   6.619  0.00  0.00    +0.069 C 
BRANCH  20  22
ATOM     10  N   UNL     1      17.908   7.860   3.578  0.00  0.00    -0.360 N 
ATOM     22  C   UNL     1      17.217   8.650   5.534  0.00  0.00    -0.020 A 
ATOM     25  C   UNL     1      18.611   8.380   5.630  0.00  0.00    +0.003 A 
ATOM     26  C   UNL     1      16.814   8.321   4.260  0.00  0.00    +0.087 A 
ATOM     27  C   UNL     1      19.019   7.885   4.390  0.00  0.00    +0.047 A 
ATOM     31  C   UNL     1      19.567   8.508   6.657  0.00  0.00    +0.010 A 
ATOM     32  C   UNL     1      20.341   7.512   4.123  0.00  0.00    +0.026 A 
ATOM     33  C   UNL     1      20.893   8.139   6.405  0.00  0.00    +0.001 A 
ATOM     34  C   UNL     1      21.272   7.648   5.158  0.00  0.00    +0.002 A 
ATOM     44  H   UNL     1      17.901   7.545   2.618  0.00  0.00    +0.165 HD
ENDBRANCH  20  22
ENDBRANCH  18  20
ENDBRANCH   8  18
ENDBRANCH  13  16
BRANCH  17  21
ATOM     21  C   UNL     1       8.311   9.622   5.759  0.00  0.00    +0.066 C 
ATOM     24  C   UNL     1       7.954   9.982   4.514  0.00  0.00    -0.071 C 
ATOM     29  C   UNL     1       9.008  10.427   3.533  0.00  0.00    +0.039 C 
ATOM     30  C   UNL     1       6.558   9.993   3.956  0.00  0.00    +0.039 C 
ENDBRANCH  17  21
TORSDOF 9
ENDMDL
MODEL 9
REMARK VINA RESULT:      -6.1     33.290     38.909
REMARK  Name = 11882035
REMARK  12 active torsions:
REMARK  status: ('A' for Active; 'I' for Inactive)
REMARK    1  A    between atoms: O_5  and  C_39
REMARK    2  A    between atoms: O_5  and  C_40
REMARK    3  A    between atoms: N_7  and  C_12
REMARK    4  A    between atoms: N_8  and  C_18
REMARK    5  A    between atoms: N_9  and  C_28
REMARK    6  A    between atoms: C_13  and  C_16
REMARK    7  A    between atoms: C_17  and  C_21
REMARK    8  A    between atoms: C_18  and  C_20
REMARK    9  A    between atoms: C_18  and  C_23
REMARK   10  A    between atoms: C_20  and  C_22
REMARK   11  A    between atoms: C_24  and  C_29
REMARK   12  A    between atoms: C_24  and  C_30
REMARK                            x       y       z     vdW  Elec       q    Type
REMARK                         _______ _______ _______ _____ _____    ______ ____
ROOT
ATOM      2  O   UNL     1       0.475  11.548  36.052  0.00  0.00    -0.271 OA
ATOM      6  N   UNL     1      -1.623  12.285  35.398  0.00  0.00    -0.285 N 
ATOM     12  C   UNL     1      -3.904  12.917  35.148  0.00  0.00    +0.094 C 
ATOM     13  C   UNL     1      -2.182  12.347  36.741  0.00  0.00    +0.164 C 
ATOM     14  C   UNL     1      -3.475  13.147  36.599  0.00  0.00    +0.056 C 
ATOM     15  C   UNL     1      -2.581  12.772  34.402  0.00  0.00    +0.131 C 
ATOM     17  C   UNL     1      -0.295  11.954  35.182  0.00  0.00    +0.240 C 
ENDROOT
BRANCH  12   7
ATOM      3  O   UNL     1      -6.726  12.742  35.605  0.00  0.00    -0.253 OA
ATOM      7  N   UNL     1      -4.728  11.741  35.013  0.00  0.00    -0.295 N 
ATOM      9  N   UNL     1      -6.636  10.463  35.046  0.00  0.00    -0.269 N 
ATOM     19  C   UNL     1      -6.107  11.740  35.256  0.00  0.00    +0.304 C 
ATOM     41  H   UNL     1      -4.278  10.858  34.793  0.00  0.00    +0.151 HD
ATOM     43  H   UNL     1      -5.982   9.739  34.760  0.00  0.00    +0.156 HD
BRANCH   9  28
ATOM     28  C   UNL     1      -7.982  10.048  35.184  0.00  0.00    +0.035 A 
ATOM     35  C   UNL     1      -8.901  10.316  34.170  0.00  0.00    +0.027 A 
ATOM     36  C   UNL     1      -8.388   9.369  36.333  0.00  0.00    +0.027 A 
ATOM     37  C   UNL     1     -10.227   9.904  34.305  0.00  0.00    +0.047 A 
ATOM     38  C   UNL     1      -9.713   8.959  36.469  0.00  0.00    +0.047 A 
ATOM     39  C   UNL     1     -10.634   9.226  35.454  0.00  0.00    +0.120 A 
BRANCH  39   5
ATOM      5  O   UNL     1     -11.927   8.823  35.585  0.00  0.00    -0.495 OA
ATOM     40  C   UNL     1     -12.190   7.781  36.523  0.00  0.00    +0.277 C 
ENDBRANCH  39   5
ENDBRANCH   9  28
ENDBRANCH  12   7
BRANCH  13  16
ATOM      1  O   UNL     1      -3.420  10.308  36.830  0.00  0.00    -0.274 OA
ATOM      8  N   UNL     1      -1.503  10.521  38.134  0.00  0.00    -0.302 N 
ATOM     16  C   UNL     1      -2.449  10.952  37.219  0.00  0.00    +0.234 C 
ATOM     42  H   UNL     1      -0.694  11.106  38.315  0.00  0.00    +0.150 HD
BRANCH   8  18
ATOM     18  C   UNL     1      -1.546   9.220  38.763  0.00  0.00    +0.163 C 
BRANCH  18  23
ATOM      4  O   UNL     1      -1.509   7.180  37.442  0.00  0.00    -0.274 OA
ATOM     11  N   UNL     1       0.246   8.648  37.245  0.00  0.00    -0.328 N 
ATOM     23  C   UNL     1      -0.955   8.225  37.773  0.00  0.00    +0.231 C 
ATOM     45  H   UNL     1       0.742   8.084  36.562  0.00  0.00    +0.145 HD
ATOM     46  H   UNL     1       0.680   9.527  37.511  0.00  0.00    +0.145 HD
ENDBRANCH  18  23
BRANCH  18  20
ATOM     20  C   UNL     1      -0.770   9.188  40.085  0.00  0.00    +0.069 C 
BRANCH  20  22
ATOM     10  N   UNL     1      -0.061   5.894  41.554  0.00  0.00    -0.360 N 
ATOM     22  C   UNL     1      -0.763   7.832  40.731  0.00  0.00    -0.020 A 
ATOM     25  C   UNL     1      -1.892   7.127  41.234  0.00  0.00    +0.003 A 
ATOM     26  C   UNL     1       0.348   7.049  40.943  0.00  0.00    +0.087 A 
ATOM     27  C   UNL     1      -1.424   5.914  41.744  0.00  0.00    +0.047 A 
ATOM     31  C   UNL     1      -3.272   7.404  41.303  0.00  0.00    +0.010 A 
ATOM     32  C   UNL     1      -2.270   4.962  42.324  0.00  0.00    +0.026 A 
ATOM     33  C   UNL     1      -4.130   6.462  41.880  0.00  0.00    +0.001 A 
ATOM     34  C   UNL     1      -3.635   5.260  42.381  0.00  0.00    +0.002 A 
ATOM     44  H   UNL     1       0.548   5.135  41.825  0.00  0.00    +0.165 HD
ENDBRANCH  20  22
ENDBRANCH  18  20
ENDBRANCH   8  18
ENDBRANCH  13  16
BRANCH  17  21
ATOM     21  C   UNL     1       0.211  12.103  33.803  0.00  0.00    +0.066 C 
ATOM     24  C   UNL     1       0.787  13.215  33.314  0.00  0.00    -0.071 C 
ATOM     29  C   UNL     1       0.951  14.424  34.199  0.00  0.00    +0.039 C 
ATOM     30  C   UNL     1       1.313  13.405  31.918  0.00  0.00    +0.039 C 
ENDBRANCH  17  21
TORSDOF 9
ENDMDL
MODEL 10
REMARK VINA RESULT:      -6.0     33.073     38.221
REMARK  Name = 11882035
REMARK  12 active torsions:
REMARK  status: ('A' for Active; 'I' for Inactive)
REMARK    1  A    between atoms: O_5  and  C_39
REMARK    2  A    between atoms: O_5  and  C_40
REMARK    3  A    between atoms: N_7  and  C_12
REMARK    4  A    between atoms: N_8  and  C_18
REMARK    5  A    between atoms: N_9  and  C_28
REMARK    6  A    between atoms: C_13  and  C_16
REMARK    7  A    between atoms: C_17  and  C_21
REMARK    8  A    between atoms: C_18  and  C_20
REMARK    9  A    between atoms: C_18  and  C_23
REMARK   10  A    between atoms: C_20  and  C_22
REMARK   11  A    between atoms: C_24  and  C_29
REMARK   12  A    between atoms: C_24  and  C_30
REMARK                            x       y       z     vdW  Elec       q    Type
REMARK                         _______ _______ _______ _____ _____    ______ ____
ROOT
ATOM      2  O   UNL     1       0.323  12.707  36.166  0.00  0.00    -0.271 OA
ATOM      6  N   UNL     1      -1.717  13.022  35.112  0.00  0.00    -0.285 N 
ATOM     12  C   UNL     1      -3.978  13.375  34.454  0.00  0.00    +0.094 C 
ATOM     13  C   UNL     1      -2.412  13.533  36.285  0.00  0.00    +0.164 C 
ATOM     14  C   UNL     1      -3.705  14.143  35.749  0.00  0.00    +0.056 C 
ATOM     15  C   UNL     1      -2.582  13.052  33.929  0.00  0.00    +0.131 C 
ATOM     17  C   UNL     1      -0.366  12.720  35.146  0.00  0.00    +0.240 C 
ENDROOT
BRANCH  12   7
ATOM      3  O   UNL     1      -6.833  13.168  34.515  0.00  0.00    -0.253 OA
ATOM      7  N   UNL     1      -4.750  12.181  34.692  0.00  0.00    -0.295 N 
ATOM      9  N   UNL     1      -6.620  10.873  34.961  0.00  0.00    -0.269 N 
ATOM     19  C   UNL     1      -6.151  12.165  34.705  0.00  0.00    +0.304 C 
ATOM     41  H   UNL     1      -4.258  11.324  34.923  0.00  0.00    +0.151 HD
ATOM     43  H   UNL     1      -5.917  10.151  35.098  0.00  0.00    +0.156 HD
BRANCH   9  28
ATOM     28  C   UNL     1      -7.963  10.440  35.054  0.00  0.00    +0.035 A 
ATOM     35  C   UNL     1      -8.481  10.032  36.283  0.00  0.00    +0.027 A 
ATOM     36  C   UNL     1      -8.771  10.424  33.917  0.00  0.00    +0.027 A 
ATOM     37  C   UNL     1      -9.806   9.608  36.375  0.00  0.00    +0.047 A 
ATOM     38  C   UNL     1     -10.096   9.999  34.008  0.00  0.00    +0.047 A 
ATOM     39  C   UNL     1     -10.614   9.591  35.239  0.00  0.00    +0.120 A 
BRANCH  39   5
ATOM      5  O   UNL     1     -11.908   9.178  35.329  0.00  0.00    -0.495 OA
ATOM     40  C   UNL     1     -12.470   8.547  34.180  0.00  0.00    +0.277 C 
ENDBRANCH  39   5
ENDBRANCH   9  28
ENDBRANCH  12   7
BRANCH  13  16
ATOM      1  O   UNL     1      -3.259  12.559  38.293  0.00  0.00    -0.274 OA
ATOM      8  N   UNL     1      -2.211  11.188  36.731  0.00  0.00    -0.302 N 
ATOM     16  C   UNL     1      -2.688  12.393  37.219  0.00  0.00    +0.234 C 
ATOM     42  H   UNL     1      -1.832  11.156  35.789  0.00  0.00    +0.150 HD
BRANCH   8  18
ATOM     18  C   UNL     1      -2.330   9.941  37.451  0.00  0.00    +0.163 C 
BRANCH  18  23
ATOM      4  O   UNL     1      -4.256   9.513  36.032  0.00  0.00    -0.274 OA
ATOM     11  N   UNL     1      -2.988   7.730  36.730  0.00  0.00    -0.328 N 
ATOM     23  C   UNL     1      -3.309   9.069  36.676  0.00  0.00    +0.231 C 
ATOM     45  H   UNL     1      -3.552   7.039  36.244  0.00  0.00    +0.145 HD
ATOM     46  H   UNL     1      -2.187   7.381  37.247  0.00  0.00    +0.145 HD
ENDBRANCH  18  23
BRANCH  18  20
ATOM     20  C   UNL     1      -0.981   9.228  37.605  0.00  0.00    +0.069 C 
BRANCH  20  22
ATOM     10  N   UNL     1      -0.299   8.993  41.208  0.00  0.00    -0.360 N 
ATOM     22  C   UNL     1      -0.671   8.852  39.025  0.00  0.00    -0.020 A 
ATOM     25  C   UNL     1      -0.393   7.545  39.515  0.00  0.00    +0.003 A 
ATOM     26  C   UNL     1      -0.607   9.720  40.090  0.00  0.00    +0.087 A 
ATOM     27  C   UNL     1      -0.163   7.661  40.887  0.00  0.00    +0.047 A 
ATOM     31  C   UNL     1      -0.314   6.270  38.920  0.00  0.00    +0.010 A 
ATOM     32  C   UNL     1       0.142   6.563  41.698  0.00  0.00    +0.026 A 
ATOM     33  C   UNL     1      -0.009   5.161  39.718  0.00  0.00    +0.001 A 
ATOM     34  C   UNL     1       0.215   5.308  41.086  0.00  0.00    +0.002 A 
ATOM     44  H   UNL     1      -0.186   9.378  42.136  0.00  0.00    +0.165 HD
ENDBRANCH  20  22
ENDBRANCH  18  20
ENDBRANCH   8  18
ENDBRANCH  13  16
BRANCH  17  21
ATOM     21  C   UNL     1       0.274  12.389  33.858  0.00  0.00    +0.066 C 
ATOM     24  C   UNL     1       0.818  13.287  33.019  0.00  0.00    -0.071 C 
ATOM     29  C   UNL     1       0.799  14.751  33.376  0.00  0.00    +0.039 C 
ATOM     30  C   UNL     1       1.477  12.989  31.700  0.00  0.00    +0.039 C 
ENDBRANCH  17  21
TORSDOF 9
ENDMDL
