MODEL 1
REMARK VINA RESULT:      -6.3      0.000      0.000
REMARK  Name = 38029777
REMARK  12 active torsions:
REMARK  status: ('A' for Active; 'I' for Inactive)
REMARK    1  A    between atoms: O_1  and  C_18
REMARK    2  A    between atoms: O_1  and  C_21
REMARK    3  A    between atoms: N_4  and  C_13
REMARK    4  A    between atoms: C_6  and  C_10
REMARK    5  A    between atoms: C_7  and  C_13
REMARK    6  A    between atoms: C_9  and  C_14
REMARK    7  A    between atoms: C_10  and  C_15
REMARK    8  A    between atoms: C_10  and  C_16
REMARK    9  A    between atoms: C_11  and  C_17
REMARK   10  A    between atoms: C_14  and  C_18
REMARK   11  A    between atoms: C_19  and  C_20
REMARK   12  A    between atoms: C_21  and  C_24
REMARK                            x       y       z     vdW  Elec       q    Type
REMARK                         _______ _______ _______ _____ _____    ______ ____
ROOT
ATOM      6  C   UNL     1      13.169  10.079  20.478  0.00  0.00    +0.000 C 
ATOM      7  C   UNL     1      13.187   9.586  21.946  0.00  0.00    +0.032 C 
ATOM      8  C   UNL     1      11.853   9.675  19.794  0.00  0.00    +0.012 C 
ATOM      9  C   UNL     1      11.637   8.149  19.800  0.00  0.00    +0.025 C 
ATOM     11  C   UNL     1      11.902   7.549  21.166  0.00  0.00    -0.073 C 
ATOM     12  C   UNL     1      12.584   8.211  22.117  0.00  0.00    -0.022 C 
ATOM     17  C   UNL     1      11.323   6.187  21.431  0.00  0.00    +0.039 C 
ENDROOT
BRANCH   6  10
ATOM     10  C   UNL     1      13.358  11.595  20.384  0.00  0.00    -0.013 C 
ATOM     15  C   UNL     1      13.552  12.019  18.931  0.00  0.00    +0.007 C 
ATOM     16  C   UNL     1      12.166  12.319  21.003  0.00  0.00    +0.007 C 
ENDBRANCH   6  10
BRANCH   7  13
ATOM     13  C   UNL     1      14.612   9.593  22.513  0.00  0.00    +0.112 C 
BRANCH  13   4
ATOM      3  O   UNL     1      16.987   9.921  20.934  0.00  0.00    -0.270 OA
ATOM      4  N   UNL     1      15.397   8.553  21.926  0.00  0.00    -0.311 N 
ATOM     19  C   UNL     1      16.542   8.802  21.170  0.00  0.00    +0.244 C 
ATOM     27  H   UNL     1      15.086   7.600  22.075  0.00  0.00    +0.149 HD
BRANCH  19  20
ATOM      5  N   UNL     1      18.527   5.372  19.550  0.00  0.00    -0.263 NA
ATOM     20  C   UNL     1      17.232   7.613  20.607  0.00  0.00    +0.040 A 
ATOM     22  C   UNL     1      16.614   6.848  19.623  0.00  0.00    +0.033 A 
ATOM     23  C   UNL     1      18.497   7.258  21.063  0.00  0.00    +0.033 A 
ATOM     25  C   UNL     1      17.297   5.748  19.132  0.00  0.00    +0.111 A 
ATOM     26  C   UNL     1      19.097   6.138  20.507  0.00  0.00    +0.111 A 
ENDBRANCH  19  20
ENDBRANCH  13   4
ENDBRANCH   7  13
BRANCH   9  14
ATOM     14  C   UNL     1      12.490   7.466  18.726  0.00  0.00    +0.128 C 
BRANCH  14  18
ATOM      2  O   UNL     1      10.899   7.817  16.920  0.00  0.00    -0.251 OA
ATOM     18  C   UNL     1      12.048   7.852  17.339  0.00  0.00    +0.308 C 
BRANCH  18   1
ATOM      1  O   UNL     1      13.148   8.246  16.630  0.00  0.00    -0.465 OA
BRANCH   1  21
ATOM     21  C   UNL     1      13.108   9.585  16.126  0.00  0.00    +0.229 C 
ATOM     24  C   UNL     1      14.457   9.928  15.532  0.00  0.00    +0.048 C 
ENDBRANCH   1  21
ENDBRANCH  18   1
ENDBRANCH  14  18
ENDBRANCH   9  14
TORSDOF 8
ENDMDL
MODEL 2
REMARK VINA RESULT:      -6.0      2.434      5.834
REMARK  Name = 38029777
REMARK  12 active torsions:
REMARK  status: ('A' for Active; 'I' for Inactive)
REMARK    1  A    between atoms: O_1  and  C_18
REMARK    2  A    between atoms: O_1  and  C_21
REMARK    3  A    between atoms: N_4  and  C_13
REMARK    4  A    between atoms: C_6  and  C_10
REMARK    5  A    between atoms: C_7  and  C_13
REMARK    6  A    between atoms: C_9  and  C_14
REMARK    7  A    between atoms: C_10  and  C_15
REMARK    8  A    between atoms: C_10  and  C_16
REMARK    9  A    between atoms: C_11  and  C_17
REMARK   10  A    between atoms: C_14  and  C_18
REMARK   11  A    between atoms: C_19  and  C_20
REMARK   12  A    between atoms: C_21  and  C_24
REMARK                            x       y       z     vdW  Elec       q    Type
REMARK                         _______ _______ _______ _____ _____    ______ ____
ROOT
ATOM      6  C   UNL     1      15.527   8.284  20.050  0.00  0.00    +0.000 C 
ATOM      7  C   UNL     1      16.140   9.684  20.304  0.00  0.00    +0.032 C 
ATOM      8  C   UNL     1      15.014   8.177  18.606  0.00  0.00    +0.012 C 
ATOM      9  C   UNL     1      13.948   9.243  18.285  0.00  0.00    +0.025 C 
ATOM     11  C   UNL     1      14.371  10.621  18.754  0.00  0.00    -0.073 C 
ATOM     12  C   UNL     1      15.362  10.799  19.645  0.00  0.00    -0.022 C 
ATOM     17  C   UNL     1      13.660  11.793  18.137  0.00  0.00    +0.039 C 
ENDROOT
BRANCH   6  10
ATOM     10  C   UNL     1      16.533   7.163  20.327  0.00  0.00    -0.013 C 
ATOM     15  C   UNL     1      16.146   6.401  21.591  0.00  0.00    +0.007 C 
ATOM     16  C   UNL     1      16.620   6.219  19.131  0.00  0.00    +0.007 C 
ENDBRANCH   6  10
BRANCH   7  13
ATOM     13  C   UNL     1      16.268   9.967  21.805  0.00  0.00    +0.112 C 
BRANCH  13   4
ATOM      3  O   UNL     1      15.408  12.330  23.189  0.00  0.00    -0.270 OA
ATOM      4  N   UNL     1      14.984  10.193  22.390  0.00  0.00    -0.311 N 
ATOM     19  C   UNL     1      14.648  11.377  23.048  0.00  0.00    +0.244 C 
ATOM     27  H   UNL     1      14.305   9.444  22.317  0.00  0.00    +0.149 HD
BRANCH  19  20
ATOM      5  N   UNL     1      10.707  11.578  24.707  0.00  0.00    -0.263 NA
ATOM     20  C   UNL     1      13.281  11.445  23.625  0.00  0.00    +0.040 A 
ATOM     22  C   UNL     1      12.226  10.787  23.002  0.00  0.00    +0.033 A 
ATOM     23  C   UNL     1      13.049  12.171  24.789  0.00  0.00    +0.033 A 
ATOM     25  C   UNL     1      10.970  10.883  23.577  0.00  0.00    +0.111 A 
ATOM     26  C   UNL     1      11.755  12.206  25.285  0.00  0.00    +0.111 A 
ENDBRANCH  19  20
ENDBRANCH  13   4
ENDBRANCH   7  13
BRANCH   9  14
ATOM     14  C   UNL     1      12.587   8.857  18.874  0.00  0.00    +0.128 C 
BRANCH  14  18
ATOM      2  O   UNL     1      11.802   7.253  17.224  0.00  0.00    -0.251 OA
ATOM     18  C   UNL     1      12.127   7.513  18.375  0.00  0.00    +0.308 C 
BRANCH  18   1
ATOM      1  O   UNL     1      12.135   6.638  19.423  0.00  0.00    -0.465 OA
BRANCH   1  21
ATOM     21  C   UNL     1      12.014   7.230  20.721  0.00  0.00    +0.229 C 
ATOM     24  C   UNL     1      11.090   6.380  21.566  0.00  0.00    +0.048 C 
ENDBRANCH   1  21
ENDBRANCH  18   1
ENDBRANCH  14  18
ENDBRANCH   9  14
TORSDOF 8
ENDMDL
MODEL 3
REMARK VINA RESULT:      -6.0      2.680      5.982
REMARK  Name = 38029777
REMARK  12 active torsions:
REMARK  status: ('A' for Active; 'I' for Inactive)
REMARK    1  A    between atoms: O_1  and  C_18
REMARK    2  A    between atoms: O_1  and  C_21
REMARK    3  A    between atoms: N_4  and  C_13
REMARK    4  A    between atoms: C_6  and  C_10
REMARK    5  A    between atoms: C_7  and  C_13
REMARK    6  A    between atoms: C_9  and  C_14
REMARK    7  A    between atoms: C_10  and  C_15
REMARK    8  A    between atoms: C_10  and  C_16
REMARK    9  A    between atoms: C_11  and  C_17
REMARK   10  A    between atoms: C_14  and  C_18
REMARK   11  A    between atoms: C_19  and  C_20
REMARK   12  A    between atoms: C_21  and  C_24
REMARK                            x       y       z     vdW  Elec       q    Type
REMARK                         _______ _______ _______ _____ _____    ______ ____
ROOT
ATOM      6  C   UNL     1      15.461   7.942  20.119  0.00  0.00    +0.000 C 
ATOM      7  C   UNL     1      15.133   9.140  19.193  0.00  0.00    +0.032 C 
ATOM      8  C   UNL     1      14.574   6.737  19.770  0.00  0.00    +0.012 C 
ATOM      9  C   UNL     1      13.073   7.061  19.902  0.00  0.00    +0.025 C 
ATOM     11  C   UNL     1      12.720   8.376  19.238  0.00  0.00    -0.073 C 
ATOM     12  C   UNL     1      13.655   9.287  18.915  0.00  0.00    -0.022 C 
ATOM     17  C   UNL     1      11.270   8.600  18.909  0.00  0.00    +0.039 C 
ENDROOT
BRANCH   6  10
ATOM     10  C   UNL     1      16.937   7.543  20.031  0.00  0.00    -0.013 C 
ATOM     15  C   UNL     1      17.585   7.595  21.411  0.00  0.00    +0.007 C 
ATOM     16  C   UNL     1      17.075   6.151  19.420  0.00  0.00    +0.007 C 
ENDBRANCH   6  10
BRANCH   7  13
ATOM     13  C   UNL     1      15.677  10.451  19.772  0.00  0.00    +0.112 C 
BRANCH  13   4
ATOM      3  O   UNL     1      15.434  10.459  22.633  0.00  0.00    -0.270 OA
ATOM      4  N   UNL     1      14.676  11.120  20.542  0.00  0.00    -0.311 N 
ATOM     19  C   UNL     1      14.631  11.072  21.935  0.00  0.00    +0.244 C 
ATOM     27  H   UNL     1      13.973  11.643  20.030  0.00  0.00    +0.149 HD
BRANCH  19  20
ATOM      5  N   UNL     1      11.400  13.164  23.808  0.00  0.00    -0.263 NA
ATOM     20  C   UNL     1      13.511  11.799  22.585  0.00  0.00    +0.040 A 
ATOM     22  C   UNL     1      13.255  11.620  23.940  0.00  0.00    +0.033 A 
ATOM     23  C   UNL     1      12.711  12.660  21.840  0.00  0.00    +0.033 A 
ATOM     25  C   UNL     1      12.198  12.319  24.499  0.00  0.00    +0.111 A 
ATOM     26  C   UNL     1      11.677  13.313  22.493  0.00  0.00    +0.111 A 
ENDBRANCH  19  20
ENDBRANCH  13   4
ENDBRANCH   7  13
BRANCH   9  14
ATOM     14  C   UNL     1      12.633   7.052  21.370  0.00  0.00    +0.128 C 
BRANCH  14  18
ATOM      2  O   UNL     1      10.948   5.309  21.196  0.00  0.00    -0.251 OA
ATOM     18  C   UNL     1      11.268   6.439  21.537  0.00  0.00    +0.308 C 
BRANCH  18   1
ATOM      1  O   UNL     1      10.452   7.358  22.133  0.00  0.00    -0.465 OA
BRANCH   1  21
ATOM     21  C   UNL     1      11.118   8.472  22.738  0.00  0.00    +0.229 C 
ATOM     24  C   UNL     1      10.444   9.751  22.290  0.00  0.00    +0.048 C 
ENDBRANCH   1  21
ENDBRANCH  18   1
ENDBRANCH  14  18
ENDBRANCH   9  14
TORSDOF 8
ENDMDL
MODEL 4
REMARK VINA RESULT:      -5.8      2.615      6.459
REMARK  Name = 38029777
REMARK  12 active torsions:
REMARK  status: ('A' for Active; 'I' for Inactive)
REMARK    1  A    between atoms: O_1  and  C_18
REMARK    2  A    between atoms: O_1  and  C_21
REMARK    3  A    between atoms: N_4  and  C_13
REMARK    4  A    between atoms: C_6  and  C_10
REMARK    5  A    between atoms: C_7  and  C_13
REMARK    6  A    between atoms: C_9  and  C_14
REMARK    7  A    between atoms: C_10  and  C_15
REMARK    8  A    between atoms: C_10  and  C_16
REMARK    9  A    between atoms: C_11  and  C_17
REMARK   10  A    between atoms: C_14  and  C_18
REMARK   11  A    between atoms: C_19  and  C_20
REMARK   12  A    between atoms: C_21  and  C_24
REMARK                            x       y       z     vdW  Elec       q    Type
REMARK                         _______ _______ _______ _____ _____    ______ ____
ROOT
ATOM      6  C   UNL     1      16.604   7.569  20.655  0.00  0.00    +0.000 C 
ATOM      7  C   UNL     1      15.372   7.267  21.544  0.00  0.00    +0.032 C 
ATOM      8  C   UNL     1      17.477   8.657  21.300  0.00  0.00    +0.012 C 
ATOM      9  C   UNL     1      16.702   9.970  21.523  0.00  0.00    +0.025 C 
ATOM     11  C   UNL     1      15.348   9.723  22.158  0.00  0.00    -0.073 C 
ATOM     12  C   UNL     1      14.776   8.506  22.170  0.00  0.00    -0.022 C 
ATOM     17  C   UNL     1      14.687  10.899  22.821  0.00  0.00    +0.039 C 
ENDROOT
BRANCH   6  10
ATOM     10  C   UNL     1      17.444   6.314  20.400  0.00  0.00    -0.013 C 
ATOM     15  C   UNL     1      17.344   5.894  18.937  0.00  0.00    +0.007 C 
ATOM     16  C   UNL     1      18.898   6.557  20.795  0.00  0.00    +0.007 C 
ENDBRANCH   6  10
BRANCH   7  13
ATOM     13  C   UNL     1      14.290   6.522  20.754  0.00  0.00    +0.112 C 
BRANCH  13   4
ATOM      3  O   UNL     1      11.701   7.080  19.647  0.00  0.00    -0.270 OA
ATOM      4  N   UNL     1      14.015   7.186  19.519  0.00  0.00    -0.311 N 
ATOM     19  C   UNL     1      12.721   7.417  19.054  0.00  0.00    +0.244 C 
ATOM     27  H   UNL     1      14.812   7.489  18.971  0.00  0.00    +0.149 HD
BRANCH  19  20
ATOM      5  N   UNL     1      12.384   9.372  15.260  0.00  0.00    -0.263 NA
ATOM     20  C   UNL     1      12.604   8.097  17.738  0.00  0.00    +0.040 A 
ATOM     22  C   UNL     1      11.353   8.444  17.240  0.00  0.00    +0.033 A 
ATOM     23  C   UNL     1      13.746   8.387  16.998  0.00  0.00    +0.033 A 
ATOM     25  C   UNL     1      11.297   9.074  16.007  0.00  0.00    +0.111 A 
ATOM     26  C   UNL     1      13.583   9.020  15.775  0.00  0.00    +0.111 A 
ENDBRANCH  19  20
ENDBRANCH  13   4
ENDBRANCH   7  13
BRANCH   9  14
ATOM     14  C   UNL     1      16.560  10.756  20.216  0.00  0.00    +0.128 C 
BRANCH  14  18
ATOM      2  O   UNL     1      17.924  12.482  19.180  0.00  0.00    -0.251 OA
ATOM     18  C   UNL     1      17.472  11.954  20.187  0.00  0.00    +0.308 C 
BRANCH  18   1
ATOM      1  O   UNL     1      17.708  12.347  21.473  0.00  0.00    -0.465 OA
BRANCH   1  21
ATOM     21  C   UNL     1      19.029  12.832  21.736  0.00  0.00    +0.229 C 
ATOM     24  C   UNL     1      19.783  11.798  22.543  0.00  0.00    +0.048 C 
ENDBRANCH   1  21
ENDBRANCH  18   1
ENDBRANCH  14  18
ENDBRANCH   9  14
TORSDOF 8
ENDMDL
MODEL 5
REMARK VINA RESULT:      -5.8      2.749      4.806
REMARK  Name = 38029777
REMARK  12 active torsions:
REMARK  status: ('A' for Active; 'I' for Inactive)
REMARK    1  A    between atoms: O_1  and  C_18
REMARK    2  A    between atoms: O_1  and  C_21
REMARK    3  A    between atoms: N_4  and  C_13
REMARK    4  A    between atoms: C_6  and  C_10
REMARK    5  A    between atoms: C_7  and  C_13
REMARK    6  A    between atoms: C_9  and  C_14
REMARK    7  A    between atoms: C_10  and  C_15
REMARK    8  A    between atoms: C_10  and  C_16
REMARK    9  A    between atoms: C_11  and  C_17
REMARK   10  A    between atoms: C_14  and  C_18
REMARK   11  A    between atoms: C_19  and  C_20
REMARK   12  A    between atoms: C_21  and  C_24
REMARK                            x       y       z     vdW  Elec       q    Type
REMARK                         _______ _______ _______ _____ _____    ______ ____
ROOT
ATOM      6  C   UNL     1      13.099   8.668  18.838  0.00  0.00    +0.000 C 
ATOM      7  C   UNL     1      14.599   8.447  19.156  0.00  0.00    +0.032 C 
ATOM      8  C   UNL     1      12.721  10.144  19.035  0.00  0.00    +0.012 C 
ATOM      9  C   UNL     1      12.993  10.629  20.472  0.00  0.00    +0.025 C 
ATOM     11  C   UNL     1      14.367  10.212  20.957  0.00  0.00    -0.073 C 
ATOM     12  C   UNL     1      15.076   9.245  20.348  0.00  0.00    -0.022 C 
ATOM     17  C   UNL     1      14.928  10.965  22.130  0.00  0.00    +0.039 C 
ENDROOT
BRANCH   6  10
ATOM     10  C   UNL     1      12.748   8.227  17.414  0.00  0.00    -0.013 C 
ATOM     15  C   UNL     1      11.310   8.609  17.078  0.00  0.00    +0.007 C 
ATOM     16  C   UNL     1      13.720   8.844  16.412  0.00  0.00    +0.007 C 
ENDBRANCH   6  10
BRANCH   7  13
ATOM     13  C   UNL     1      14.904   6.962  19.380  0.00  0.00    +0.112 C 
BRANCH  13   4
ATOM      3  O   UNL     1      17.152   5.484  18.380  0.00  0.00    -0.270 OA
ATOM      4  N   UNL     1      16.169   6.794  20.023  0.00  0.00    -0.311 N 
ATOM     19  C   UNL     1      17.213   6.056  19.464  0.00  0.00    +0.244 C 
ATOM     27  H   UNL     1      16.289   7.236  20.928  0.00  0.00    +0.149 HD
BRANCH  19  20
ATOM      5  N   UNL     1      20.797   5.771  21.787  0.00  0.00    -0.263 NA
ATOM     20  C   UNL     1      18.455   5.956  20.271  0.00  0.00    +0.040 A 
ATOM     22  C   UNL     1      18.611   6.733  21.414  0.00  0.00    +0.033 A 
ATOM     23  C   UNL     1      19.470   5.086  19.885  0.00  0.00    +0.033 A 
ATOM     25  C   UNL     1      19.790   6.605  22.130  0.00  0.00    +0.111 A 
ATOM     26  C   UNL     1      20.611   5.032  20.670  0.00  0.00    +0.111 A 
ENDBRANCH  19  20
ENDBRANCH  13   4
ENDBRANCH   7  13
BRANCH   9  14
ATOM     14  C   UNL     1      11.902  10.146  21.434  0.00  0.00    +0.128 C 
BRANCH  14  18
ATOM      2  O   UNL     1      11.064  12.417  21.660  0.00  0.00    -0.251 OA
ATOM     18  C   UNL     1      11.224  11.298  22.127  0.00  0.00    +0.308 C 
BRANCH  18   1
ATOM      1  O   UNL     1      10.819  10.879  23.363  0.00  0.00    -0.465 OA
BRANCH   1  21
ATOM     21  C   UNL     1      10.861  11.872  24.393  0.00  0.00    +0.229 C 
ATOM     24  C   UNL     1      12.241  11.882  25.013  0.00  0.00    +0.048 C 
ENDBRANCH   1  21
ENDBRANCH  18   1
ENDBRANCH  14  18
ENDBRANCH   9  14
TORSDOF 8
ENDMDL
MODEL 6
REMARK VINA RESULT:      -5.8     25.926     28.344
REMARK  Name = 38029777
REMARK  12 active torsions:
REMARK  status: ('A' for Active; 'I' for Inactive)
REMARK    1  A    between atoms: O_1  and  C_18
REMARK    2  A    between atoms: O_1  and  C_21
REMARK    3  A    between atoms: N_4  and  C_13
REMARK    4  A    between atoms: C_6  and  C_10
REMARK    5  A    between atoms: C_7  and  C_13
REMARK    6  A    between atoms: C_9  and  C_14
REMARK    7  A    between atoms: C_10  and  C_15
REMARK    8  A    between atoms: C_10  and  C_16
REMARK    9  A    between atoms: C_11  and  C_17
REMARK   10  A    between atoms: C_14  and  C_18
REMARK   11  A    between atoms: C_19  and  C_20
REMARK   12  A    between atoms: C_21  and  C_24
REMARK                            x       y       z     vdW  Elec       q    Type
REMARK                         _______ _______ _______ _____ _____    ______ ____
ROOT
ATOM      6  C   UNL     1      -3.063 -12.262  12.656  0.00  0.00    +0.000 C 
ATOM      7  C   UNL     1      -2.000 -11.140  12.558  0.00  0.00    +0.032 C 
ATOM      8  C   UNL     1      -3.586 -12.629  11.259  0.00  0.00    +0.012 C 
ATOM      9  C   UNL     1      -4.215 -11.421  10.537  0.00  0.00    +0.025 C 
ATOM     11  C   UNL     1      -3.337 -10.190  10.629  0.00  0.00    -0.073 C 
ATOM     12  C   UNL     1      -2.343 -10.087  11.529  0.00  0.00    -0.022 C 
ATOM     17  C   UNL     1      -3.597  -9.096   9.631  0.00  0.00    +0.039 C 
ENDROOT
BRANCH   6  10
ATOM     10  C   UNL     1      -2.510 -13.511  13.348  0.00  0.00    -0.013 C 
ATOM     15  C   UNL     1      -3.439 -13.953  14.473  0.00  0.00    +0.007 C 
ATOM     16  C   UNL     1      -2.314 -14.636  12.335  0.00  0.00    +0.007 C 
ENDBRANCH   6  10
BRANCH   7  13
ATOM     13  C   UNL     1      -1.776 -10.470  13.919  0.00  0.00    +0.112 C 
BRANCH  13   4
ATOM      3  O   UNL     1      -2.243 -10.978  16.706  0.00  0.00    -0.270 OA
ATOM      4  N   UNL     1      -3.012 -10.316  14.619  0.00  0.00    -0.311 N 
ATOM     19  C   UNL     1      -3.153 -10.587  15.980  0.00  0.00    +0.244 C 
ATOM     27  H   UNL     1      -3.811 -10.001  14.080  0.00  0.00    +0.149 HD
BRANCH  19  20
ATOM      5  N   UNL     1      -7.065 -10.050  17.631  0.00  0.00    -0.263 NA
ATOM     20  C   UNL     1      -4.510 -10.402  16.553  0.00  0.00    +0.040 A 
ATOM     22  C   UNL     1      -5.526  -9.852  15.778  0.00  0.00    +0.033 A 
ATOM     23  C   UNL     1      -4.771 -10.776  17.867  0.00  0.00    +0.033 A 
ATOM     25  C   UNL     1      -6.775  -9.698  16.359  0.00  0.00    +0.111 A 
ATOM     26  C   UNL     1      -6.054 -10.581  18.355  0.00  0.00    +0.111 A 
ENDBRANCH  19  20
ENDBRANCH  13   4
ENDBRANCH   7  13
BRANCH   9  14
ATOM     14  C   UNL     1      -5.623 -11.132  11.067  0.00  0.00    +0.128 C 
BRANCH  14  18
ATOM      2  O   UNL     1      -6.586 -11.924   8.979  0.00  0.00    -0.251 OA
ATOM     18  C   UNL     1      -6.656 -11.215   9.975  0.00  0.00    +0.308 C 
BRANCH  18   1
ATOM      1  O   UNL     1      -7.680 -10.366  10.284  0.00  0.00    -0.465 OA
BRANCH   1  21
ATOM     21  C   UNL     1      -7.308  -8.999  10.484  0.00  0.00    +0.229 C 
ATOM     24  C   UNL     1      -7.227  -8.308   9.141  0.00  0.00    +0.048 C 
ENDBRANCH   1  21
ENDBRANCH  18   1
ENDBRANCH  14  18
ENDBRANCH   9  14
TORSDOF 8
ENDMDL
MODEL 7
REMARK VINA RESULT:      -5.8      2.567      5.633
REMARK  Name = 38029777
REMARK  12 active torsions:
REMARK  status: ('A' for Active; 'I' for Inactive)
REMARK    1  A    between atoms: O_1  and  C_18
REMARK    2  A    between atoms: O_1  and  C_21
REMARK    3  A    between atoms: N_4  and  C_13
REMARK    4  A    between atoms: C_6  and  C_10
REMARK    5  A    between atoms: C_7  and  C_13
REMARK    6  A    between atoms: C_9  and  C_14
REMARK    7  A    between atoms: C_10  and  C_15
REMARK    8  A    between atoms: C_10  and  C_16
REMARK    9  A    between atoms: C_11  and  C_17
REMARK   10  A    between atoms: C_14  and  C_18
REMARK   11  A    between atoms: C_19  and  C_20
REMARK   12  A    between atoms: C_21  and  C_24
REMARK                            x       y       z     vdW  Elec       q    Type
REMARK                         _______ _______ _______ _____ _____    ______ ____
ROOT
ATOM      6  C   UNL     1      13.092   8.210  21.032  0.00  0.00    +0.000 C 
ATOM      7  C   UNL     1      14.361   8.010  21.898  0.00  0.00    +0.032 C 
ATOM      8  C   UNL     1      12.887   7.009  20.095  0.00  0.00    +0.012 C 
ATOM      9  C   UNL     1      14.090   6.790  19.157  0.00  0.00    +0.025 C 
ATOM     11  C   UNL     1      15.406   6.848  19.906  0.00  0.00    -0.073 C 
ATOM     12  C   UNL     1      15.505   7.384  21.135  0.00  0.00    -0.022 C 
ATOM     17  C   UNL     1      16.599   6.232  19.229  0.00  0.00    +0.039 C 
ENDROOT
BRANCH   6  10
ATOM     10  C   UNL     1      11.842   8.416  21.892  0.00  0.00    -0.013 C 
ATOM     15  C   UNL     1      10.956   9.504  21.292  0.00  0.00    +0.007 C 
ATOM     16  C   UNL     1      11.071   7.107  22.032  0.00  0.00    +0.007 C 
ENDBRANCH   6  10
BRANCH   7  13
ATOM     13  C   UNL     1      14.822   9.336  22.515  0.00  0.00    +0.112 C 
BRANCH  13   4
ATOM      3  O   UNL     1      14.398  12.171  22.368  0.00  0.00    -0.270 OA
ATOM      4  N   UNL     1      13.713  10.061  23.049  0.00  0.00    -0.311 N 
ATOM     19  C   UNL     1      13.584  11.445  22.932  0.00  0.00    +0.244 C 
ATOM     27  H   UNL     1      13.002   9.526  23.535  0.00  0.00    +0.149 HD
BRANCH  19  20
ATOM      5  N   UNL     1      10.131  13.199  24.755  0.00  0.00    -0.263 NA
ATOM     20  C   UNL     1      12.385  12.052  23.564  0.00  0.00    +0.040 A 
ATOM     22  C   UNL     1      11.632  12.994  22.872  0.00  0.00    +0.033 A 
ATOM     23  C   UNL     1      12.012  11.682  24.852  0.00  0.00    +0.033 A 
ATOM     25  C   UNL     1      10.524  13.533  23.506  0.00  0.00    +0.111 A 
ATOM     26  C   UNL     1      10.886  12.280  25.398  0.00  0.00    +0.111 A 
ENDBRANCH  19  20
ENDBRANCH  13   4
ENDBRANCH   7  13
BRANCH   9  14
ATOM     14  C   UNL     1      14.075   7.790  17.996  0.00  0.00    +0.128 C 
BRANCH  14  18
ATOM      2  O   UNL     1      11.837   7.327  17.167  0.00  0.00    -0.251 OA
ATOM     18  C   UNL     1      12.670   8.126  17.572  0.00  0.00    +0.308 C 
BRANCH  18   1
ATOM      1  O   UNL     1      12.486   9.472  17.715  0.00  0.00    -0.465 OA
BRANCH   1  21
ATOM     21  C   UNL     1      13.674  10.233  17.955  0.00  0.00    +0.229 C 
ATOM     24  C   UNL     1      13.388  11.274  19.016  0.00  0.00    +0.048 C 
ENDBRANCH   1  21
ENDBRANCH  18   1
ENDBRANCH  14  18
ENDBRANCH   9  14
TORSDOF 8
ENDMDL
MODEL 8
REMARK VINA RESULT:      -5.7      2.011      3.455
REMARK  Name = 38029777
REMARK  12 active torsions:
REMARK  status: ('A' for Active; 'I' for Inactive)
REMARK    1  A    between atoms: O_1  and  C_18
REMARK    2  A    between atoms: O_1  and  C_21
REMARK    3  A    between atoms: N_4  and  C_13
REMARK    4  A    between atoms: C_6  and  C_10
REMARK    5  A    between atoms: C_7  and  C_13
REMARK    6  A    between atoms: C_9  and  C_14
REMARK    7  A    between atoms: C_10  and  C_15
REMARK    8  A    between atoms: C_10  and  C_16
REMARK    9  A    between atoms: C_11  and  C_17
REMARK   10  A    between atoms: C_14  and  C_18
REMARK   11  A    between atoms: C_19  and  C_20
REMARK   12  A    between atoms: C_21  and  C_24
REMARK                            x       y       z     vdW  Elec       q    Type
REMARK                         _______ _______ _______ _____ _____    ______ ____
ROOT
ATOM      6  C   UNL     1      12.886   9.753  20.456  0.00  0.00    +0.000 C 
ATOM      7  C   UNL     1      11.965   8.628  19.923  0.00  0.00    +0.032 C 
ATOM      8  C   UNL     1      12.819  10.982  19.537  0.00  0.00    +0.012 C 
ATOM      9  C   UNL     1      13.237  10.651  18.091  0.00  0.00    +0.025 C 
ATOM     11  C   UNL     1      12.567   9.389  17.585  0.00  0.00    -0.073 C 
ATOM     12  C   UNL     1      11.992   8.504  18.417  0.00  0.00    -0.022 C 
ATOM     17  C   UNL     1      12.533   9.192  16.095  0.00  0.00    +0.039 C 
ENDROOT
BRANCH   6  10
ATOM     10  C   UNL     1      12.522  10.156  21.888  0.00  0.00    -0.013 C 
ATOM     15  C   UNL     1      13.715  10.814  22.576  0.00  0.00    +0.007 C 
ATOM     16  C   UNL     1      11.316  11.090  21.887  0.00  0.00    +0.007 C 
ENDBRANCH   6  10
BRANCH   7  13
ATOM     13  C   UNL     1      12.321   7.276  20.553  0.00  0.00    +0.112 C 
BRANCH  13   4
ATOM      3  O   UNL     1      14.654   7.452  22.217  0.00  0.00    -0.270 OA
ATOM      4  N   UNL     1      13.651   6.887  20.203  0.00  0.00    -0.311 N 
ATOM     19  C   UNL     1      14.732   7.007  21.076  0.00  0.00    +0.244 C 
ATOM     27  H   UNL     1      13.792   6.515  19.270  0.00  0.00    +0.149 HD
BRANCH  19  20
ATOM      5  N   UNL     1      18.546   5.790  19.560  0.00  0.00    -0.263 NA
ATOM     20  C   UNL     1      16.054   6.583  20.550  0.00  0.00    +0.040 A 
ATOM     22  C   UNL     1      17.177   6.623  21.370  0.00  0.00    +0.033 A 
ATOM     23  C   UNL     1      16.177   6.147  19.235  0.00  0.00    +0.033 A 
ATOM     25  C   UNL     1      18.389   6.220  20.832  0.00  0.00    +0.111 A 
ATOM     26  C   UNL     1      17.434   5.765  18.792  0.00  0.00    +0.111 A 
ENDBRANCH  19  20
ENDBRANCH  13   4
ENDBRANCH   7  13
BRANCH   9  14
ATOM     14  C   UNL     1      14.762  10.551  17.966  0.00  0.00    +0.128 C 
BRANCH  14  18
ATOM      2  O   UNL     1      16.112  12.570  17.853  0.00  0.00    -0.251 OA
ATOM     18  C   UNL     1      15.347  11.778  17.319  0.00  0.00    +0.308 C 
BRANCH  18   1
ATOM      1  O   UNL     1      14.880  11.854  16.038  0.00  0.00    -0.465 OA
BRANCH   1  21
ATOM     21  C   UNL     1      15.564  11.036  15.083  0.00  0.00    +0.229 C 
ATOM     24  C   UNL     1      16.559  11.890  14.326  0.00  0.00    +0.048 C 
ENDBRANCH   1  21
ENDBRANCH  18   1
ENDBRANCH  14  18
ENDBRANCH   9  14
TORSDOF 8
ENDMDL
MODEL 9
REMARK VINA RESULT:      -5.4      2.815      6.200
REMARK  Name = 38029777
REMARK  12 active torsions:
REMARK  status: ('A' for Active; 'I' for Inactive)
REMARK    1  A    between atoms: O_1  and  C_18
REMARK    2  A    between atoms: O_1  and  C_21
REMARK    3  A    between atoms: N_4  and  C_13
REMARK    4  A    between atoms: C_6  and  C_10
REMARK    5  A    between atoms: C_7  and  C_13
REMARK    6  A    between atoms: C_9  and  C_14
REMARK    7  A    between atoms: C_10  and  C_15
REMARK    8  A    between atoms: C_10  and  C_16
REMARK    9  A    between atoms: C_11  and  C_17
REMARK   10  A    between atoms: C_14  and  C_18
REMARK   11  A    between atoms: C_19  and  C_20
REMARK   12  A    between atoms: C_21  and  C_24
REMARK                            x       y       z     vdW  Elec       q    Type
REMARK                         _______ _______ _______ _____ _____    ______ ____
ROOT
ATOM      6  C   UNL     1      15.068   8.175  20.554  0.00  0.00    +0.000 C 
ATOM      7  C   UNL     1      14.327   7.018  19.840  0.00  0.00    +0.032 C 
ATOM      8  C   UNL     1      14.526   8.360  21.980  0.00  0.00    +0.012 C 
ATOM      9  C   UNL     1      13.015   8.666  21.993  0.00  0.00    +0.025 C 
ATOM     11  C   UNL     1      12.242   7.724  21.091  0.00  0.00    -0.073 C 
ATOM     12  C   UNL     1      12.847   6.986  20.144  0.00  0.00    -0.022 C 
ATOM     17  C   UNL     1      10.763   7.616  21.335  0.00  0.00    +0.039 C 
ENDROOT
BRANCH   6  10
ATOM     10  C   UNL     1      16.581   7.938  20.602  0.00  0.00    -0.013 C 
ATOM     15  C   UNL     1      17.261   9.010  21.447  0.00  0.00    +0.007 C 
ATOM     16  C   UNL     1      16.884   6.545  21.148  0.00  0.00    +0.007 C 
ENDBRANCH   6  10
BRANCH   7  13
ATOM     13  C   UNL     1      14.535   7.082  18.322  0.00  0.00    +0.112 C 
BRANCH  13   4
ATOM      3  O   UNL     1      12.589   8.450  16.715  0.00  0.00    -0.270 OA
ATOM      4  N   UNL     1      14.598   8.438  17.875  0.00  0.00    -0.311 N 
ATOM     19  C   UNL     1      13.605   9.026  17.093  0.00  0.00    +0.244 C 
ATOM     27  H   UNL     1      15.415   8.975  18.146  0.00  0.00    +0.149 HD
BRANCH  19  20
ATOM      5  N   UNL     1      14.257  13.093  15.928  0.00  0.00    -0.263 NA
ATOM     20  C   UNL     1      13.833  10.437  16.689  0.00  0.00    +0.040 A 
ATOM     22  C   UNL     1      14.014  11.420  17.655  0.00  0.00    +0.033 A 
ATOM     23  C   UNL     1      13.863  10.781  15.341  0.00  0.00    +0.033 A 
ATOM     25  C   UNL     1      14.221  12.721  17.227  0.00  0.00    +0.111 A 
ATOM     26  C   UNL     1      14.076  12.112  15.016  0.00  0.00    +0.111 A 
ENDBRANCH  19  20
ENDBRANCH  13   4
ENDBRANCH   7  13
BRANCH   9  14
ATOM     14  C   UNL     1      12.744  10.128  21.622  0.00  0.00    +0.128 C 
BRANCH  14  18
ATOM      2  O   UNL     1      13.574  11.465  23.475  0.00  0.00    -0.251 OA
ATOM     18  C   UNL     1      12.634  10.999  22.844  0.00  0.00    +0.308 C 
BRANCH  18   1
ATOM      1  O   UNL     1      11.311  11.180  23.127  0.00  0.00    -0.465 OA
BRANCH   1  21
ATOM     21  C   UNL     1      10.988  11.300  24.517  0.00  0.00    +0.229 C 
ATOM     24  C   UNL     1      10.609  12.734  24.814  0.00  0.00    +0.048 C 
ENDBRANCH   1  21
ENDBRANCH  18   1
ENDBRANCH  14  18
ENDBRANCH   9  14
TORSDOF 8
ENDMDL
MODEL 10
REMARK VINA RESULT:      -5.4      2.227      4.049
REMARK  Name = 38029777
REMARK  12 active torsions:
REMARK  status: ('A' for Active; 'I' for Inactive)
REMARK    1  A    between atoms: O_1  and  C_18
REMARK    2  A    between atoms: O_1  and  C_21
REMARK    3  A    between atoms: N_4  and  C_13
REMARK    4  A    between atoms: C_6  and  C_10
REMARK    5  A    between atoms: C_7  and  C_13
REMARK    6  A    between atoms: C_9  and  C_14
REMARK    7  A    between atoms: C_10  and  C_15
REMARK    8  A    between atoms: C_10  and  C_16
REMARK    9  A    between atoms: C_11  and  C_17
REMARK   10  A    between atoms: C_14  and  C_18
REMARK   11  A    between atoms: C_19  and  C_20
REMARK   12  A    between atoms: C_21  and  C_24
REMARK                            x       y       z     vdW  Elec       q    Type
REMARK                         _______ _______ _______ _____ _____    ______ ____
ROOT
ATOM      6  C   UNL     1      12.820  10.446  20.512  0.00  0.00    +0.000 C 
ATOM      7  C   UNL     1      12.077   9.250  19.867  0.00  0.00    +0.032 C 
ATOM      8  C   UNL     1      12.897  11.624  19.528  0.00  0.00    +0.012 C 
ATOM      9  C   UNL     1      13.620  11.245  18.221  0.00  0.00    +0.025 C 
ATOM     11  C   UNL     1      13.122   9.928  17.663  0.00  0.00    -0.073 C 
ATOM     12  C   UNL     1      12.422   9.055  18.409  0.00  0.00    -0.022 C 
ATOM     17  C   UNL     1      13.407   9.657  16.212  0.00  0.00    +0.039 C 
ENDROOT
BRANCH   6  10
ATOM     10  C   UNL     1      12.150  10.899  21.812  0.00  0.00    -0.013 C 
ATOM     15  C   UNL     1      13.185  11.041  22.924  0.00  0.00    +0.007 C 
ATOM     16  C   UNL     1      11.404  12.213  21.596  0.00  0.00    +0.007 C 
ENDBRANCH   6  10
BRANCH   7  13
ATOM     13  C   UNL     1      12.349   7.951  20.634  0.00  0.00    +0.112 C 
BRANCH  13   4
ATOM      3  O   UNL     1      14.729   7.921  22.240  0.00  0.00    -0.270 OA
ATOM      4  N   UNL     1      13.617   7.402  20.270  0.00  0.00    -0.311 N 
ATOM     19  C   UNL     1      14.727   7.430  21.114  0.00  0.00    +0.244 C 
ATOM     27  H   UNL     1      13.691   6.983  19.350  0.00  0.00    +0.149 HD
BRANCH  19  20
ATOM      5  N   UNL     1      18.339   5.735  19.565  0.00  0.00    -0.263 NA
ATOM     20  C   UNL     1      15.979   6.840  20.577  0.00  0.00    +0.040 A 
ATOM     22  C   UNL     1      17.130   6.814  21.358  0.00  0.00    +0.033 A 
ATOM     23  C   UNL     1      16.008   6.314  19.290  0.00  0.00    +0.033 A 
ATOM     25  C   UNL     1      18.273   6.256  20.811  0.00  0.00    +0.111 A 
ATOM     26  C   UNL     1      17.202   5.777  18.834  0.00  0.00    +0.111 A 
ENDBRANCH  19  20
ENDBRANCH  13   4
ENDBRANCH   7  13
BRANCH   9  14
ATOM     14  C   UNL     1      15.140  11.218  18.419  0.00  0.00    +0.128 C 
BRANCH  14  18
ATOM      2  O   UNL     1      15.350  13.562  17.808  0.00  0.00    -0.251 OA
ATOM     18  C   UNL     1      15.717  12.608  18.481  0.00  0.00    +0.308 C 
BRANCH  18   1
ATOM      1  O   UNL     1      16.716  12.619  19.411  0.00  0.00    -0.465 OA
BRANCH   1  21
ATOM     21  C   UNL     1      16.328  12.239  20.736  0.00  0.00    +0.229 C 
ATOM     24  C   UNL     1      15.681  13.424  21.420  0.00  0.00    +0.048 C 
ENDBRANCH   1  21
ENDBRANCH  18   1
ENDBRANCH  14  18
ENDBRANCH   9  14
TORSDOF 8
ENDMDL
