MODEL 1
REMARK VINA RESULT:      -7.3      0.000      0.000
REMARK  Name = 51136981
REMARK  10 active torsions:
REMARK  status: ('A' for Active; 'I' for Inactive)
REMARK    1  A    between atoms: O_5  and  C_15
REMARK    2  A    between atoms: O_6  and  C_22
REMARK    3  A    between atoms: N_8  and  C_13
REMARK    4  A    between atoms: N_9  and  C_23
REMARK    5  A    between atoms: N_10  and  C_19
REMARK    6  A    between atoms: N_11  and  C_34
REMARK    7  A    between atoms: C_14  and  C_19
REMARK    8  A    between atoms: C_16  and  C_22
REMARK    9  A    between atoms: C_24  and  C_29
REMARK   10  A    between atoms: C_27  and  C_31
REMARK                            x       y       z     vdW  Elec       q    Type
REMARK                         _______ _______ _______ _____ _____    ______ ____
ROOT
ATOM      4  O   UNL     1     -17.611   3.489  23.796  0.00  0.00    -0.365 OA
ATOM     13  C   UNL     1     -17.475   2.984  26.118  0.00  0.00    +0.118 C 
ATOM     14  C   UNL     1     -16.941   3.898  25.009  0.00  0.00    +0.155 C 
ATOM     15  C   UNL     1     -17.895   1.735  25.360  0.00  0.00    +0.165 C 
ATOM     16  C   UNL     1     -18.452   2.355  24.084  0.00  0.00    +0.174 C 
ENDROOT
BRANCH  13   8
ATOM      8  N   UNL     1     -16.587   2.755  27.245  0.00  0.00    -0.292 NA
ATOM      9  N   UNL     1     -15.872   2.558  30.003  0.00  0.00    -0.327 N 
ATOM     17  C   UNL     1     -16.484   3.963  28.073  0.00  0.00    +0.104 C 
ATOM     18  C   UNL     1     -17.067   1.631  28.058  0.00  0.00    +0.104 C 
ATOM     20  C   UNL     1     -15.506   3.752  29.231  0.00  0.00    +0.120 C 
ATOM     21  C   UNL     1     -16.109   1.343  29.218  0.00  0.00    +0.120 C 
BRANCH   9  23
ATOM     23  C   UNL     1     -15.401   2.454  31.317  0.00  0.00    +0.030 A 
ATOM     25  C   UNL     1     -15.259   3.599  32.100  0.00  0.00    +0.035 A 
ATOM     26  C   UNL     1     -15.074   1.204  31.843  0.00  0.00    +0.023 A 
ATOM     27  C   UNL     1     -14.789   3.495  33.409  0.00  0.00    +0.057 A 
ATOM     28  C   UNL     1     -14.604   1.100  33.152  0.00  0.00    +0.002 A 
ATOM     30  C   UNL     1     -14.461   2.245  33.936  0.00  0.00    +0.012 A 
BRANCH  27  31
ATOM      1  F   UNL     1     -15.818   5.379  34.431  0.00  0.00    -0.166 F 
ATOM      2  F   UNL     1     -14.156   4.471  35.500  0.00  0.00    -0.166 F 
ATOM      3  F   UNL     1     -13.783   5.644  33.713  0.00  0.00    -0.166 F 
ATOM     31  C   UNL     1     -14.637   4.720  34.246  0.00  0.00    +0.417 C 
ENDBRANCH  27  31
ENDBRANCH   9  23
ENDBRANCH  13   8
BRANCH  15   5
ATOM      5  O   UNL     1     -16.781   0.906  25.062  0.00  0.00    -0.388 OA
ATOM     35  H   UNL     1     -17.121   0.021  24.845  0.00  0.00    +0.210 HD
ENDBRANCH  15   5
BRANCH  14  19
ATOM     19  C   UNL     1     -15.442   3.841  24.738  0.00  0.00    +0.137 C 
BRANCH  19  10
ATOM      7  O   UNL     1     -14.928   4.293  21.949  0.00  0.00    -0.270 OA
ATOM     10  N   UNL     1     -14.978   5.057  24.141  0.00  0.00    -0.309 N 
ATOM     24  C   UNL     1     -14.754   5.189  22.772  0.00  0.00    +0.247 C 
ATOM     36  H   UNL     1     -14.785   5.842  24.755  0.00  0.00    +0.149 HD
BRANCH  24  29
ATOM     11  N   UNL     1     -13.129   8.066  21.267  0.00  0.00    -0.274 N 
ATOM     12  N   UNL     1     -13.949   8.760  22.075  0.00  0.00    -0.179 NA
ATOM     29  C   UNL     1     -14.247   6.508  22.313  0.00  0.00    +0.074 A 
ATOM     32  C   UNL     1     -13.268   6.713  21.371  0.00  0.00    +0.121 A 
ATOM     33  C   UNL     1     -14.629   7.802  22.711  0.00  0.00    +0.147 A 
ATOM     34  C   UNL     1     -12.216   8.769  20.398  0.00  0.00    +0.172 C 
ENDBRANCH  24  29
ENDBRANCH  19  10
ENDBRANCH  14  19
BRANCH  16  22
ATOM     22  C   UNL     1     -18.488   1.439  22.874  0.00  0.00    +0.190 C 
BRANCH  22   6
ATOM      6  O   UNL     1     -17.192   1.388  22.298  0.00  0.00    -0.392 OA
ATOM     37  H   UNL     1     -17.282   0.962  21.428  0.00  0.00    +0.210 HD
ENDBRANCH  22   6
ENDBRANCH  16  22
TORSDOF 9
ENDMDL
MODEL 2
REMARK VINA RESULT:      -7.0     32.688     37.486
REMARK  Name = 51136981
REMARK  10 active torsions:
REMARK  status: ('A' for Active; 'I' for Inactive)
REMARK    1  A    between atoms: O_5  and  C_15
REMARK    2  A    between atoms: O_6  and  C_22
REMARK    3  A    between atoms: N_8  and  C_13
REMARK    4  A    between atoms: N_9  and  C_23
REMARK    5  A    between atoms: N_10  and  C_19
REMARK    6  A    between atoms: N_11  and  C_34
REMARK    7  A    between atoms: C_14  and  C_19
REMARK    8  A    between atoms: C_16  and  C_22
REMARK    9  A    between atoms: C_24  and  C_29
REMARK   10  A    between atoms: C_27  and  C_31
REMARK                            x       y       z     vdW  Elec       q    Type
REMARK                         _______ _______ _______ _____ _____    ______ ____
ROOT
ATOM      4  O   UNL     1      13.553   3.478  -1.006  0.00  0.00    -0.365 OA
ATOM     13  C   UNL     1      13.094   4.388   1.144  0.00  0.00    +0.118 C 
ATOM     14  C   UNL     1      12.545   3.491   0.029  0.00  0.00    +0.155 C 
ATOM     15  C   UNL     1      14.043   5.315   0.403  0.00  0.00    +0.165 C 
ATOM     16  C   UNL     1      14.631   4.354  -0.623  0.00  0.00    +0.174 C 
ENDROOT
BRANCH  13   8
ATOM      8  N   UNL     1      12.108   5.051   1.980  0.00  0.00    -0.292 NA
ATOM      9  N   UNL     1      10.883   5.851   4.433  0.00  0.00    -0.327 N 
ATOM     17  C   UNL     1      11.390   4.071   2.805  0.00  0.00    +0.104 C 
ATOM     18  C   UNL     1      12.750   6.053   2.839  0.00  0.00    +0.104 C 
ATOM     20  C   UNL     1      10.308   4.751   3.648  0.00  0.00    +0.120 C 
ATOM     21  C   UNL     1      11.714   6.799   3.684  0.00  0.00    +0.120 C 
BRANCH   9  23
ATOM     23  C   UNL     1      10.185   6.284   5.566  0.00  0.00    +0.030 A 
ATOM     25  C   UNL     1      10.195   5.515   6.729  0.00  0.00    +0.035 A 
ATOM     26  C   UNL     1       9.478   7.487   5.531  0.00  0.00    +0.023 A 
ATOM     27  C   UNL     1       9.499   5.948   7.857  0.00  0.00    +0.057 A 
ATOM     28  C   UNL     1       8.782   7.920   6.659  0.00  0.00    +0.002 A 
ATOM     30  C   UNL     1       8.792   7.150   7.823  0.00  0.00    +0.012 A 
BRANCH  27  31
ATOM      1  F   UNL     1       8.426   5.361   9.897  0.00  0.00    -0.166 F 
ATOM      2  F   UNL     1       9.507   3.779   8.868  0.00  0.00    -0.166 F 
ATOM      3  F   UNL     1      10.600   5.346   9.894  0.00  0.00    -0.166 F 
ATOM     31  C   UNL     1       9.510   5.124   9.101  0.00  0.00    +0.417 C 
ENDBRANCH  27  31
ENDBRANCH   9  23
ENDBRANCH  13   8
BRANCH  15   5
ATOM      5  O   UNL     1      13.343   6.367  -0.248  0.00  0.00    -0.388 OA
ATOM     35  H   UNL     1      12.447   6.046  -0.445  0.00  0.00    +0.210 HD
ENDBRANCH  15   5
BRANCH  14  19
ATOM     19  C   UNL     1      11.237   3.930  -0.621  0.00  0.00    +0.137 C 
BRANCH  19  10
ATOM      7  O   UNL     1      10.294   1.877  -2.393  0.00  0.00    -0.270 OA
ATOM     10  N   UNL     1      11.341   3.920  -2.049  0.00  0.00    -0.309 N 
ATOM     24  C   UNL     1      10.854   2.878  -2.834  0.00  0.00    +0.247 C 
ATOM     36  H   UNL     1      11.813   4.701  -2.494  0.00  0.00    +0.149 HD
BRANCH  24  29
ATOM     11  N   UNL     1      10.724   3.150  -6.452  0.00  0.00    -0.274 N 
ATOM     12  N   UNL     1      12.061   3.231  -6.343  0.00  0.00    -0.179 NA
ATOM     29  C   UNL     1      11.063   3.006  -4.300  0.00  0.00    +0.074 A 
ATOM     32  C   UNL     1      10.079   3.013  -5.258  0.00  0.00    +0.121 A 
ATOM     33  C   UNL     1      12.262   3.143  -5.025  0.00  0.00    +0.147 A 
ATOM     34  C   UNL     1      10.107   3.210  -7.756  0.00  0.00    +0.172 C 
ENDBRANCH  24  29
ENDBRANCH  19  10
ENDBRANCH  14  19
BRANCH  16  22
ATOM     22  C   UNL     1      15.215   5.001  -1.866  0.00  0.00    +0.190 C 
BRANCH  22   6
ATOM      6  O   UNL     1      14.193   5.123  -2.843  0.00  0.00    -0.392 OA
ATOM     37  H   UNL     1      13.363   4.836  -2.426  0.00  0.00    +0.210 HD
ENDBRANCH  22   6
ENDBRANCH  16  22
TORSDOF 9
ENDMDL
MODEL 3
REMARK VINA RESULT:      -7.0     17.294     20.148
REMARK  Name = 51136981
REMARK  10 active torsions:
REMARK  status: ('A' for Active; 'I' for Inactive)
REMARK    1  A    between atoms: O_5  and  C_15
REMARK    2  A    between atoms: O_6  and  C_22
REMARK    3  A    between atoms: N_8  and  C_13
REMARK    4  A    between atoms: N_9  and  C_23
REMARK    5  A    between atoms: N_10  and  C_19
REMARK    6  A    between atoms: N_11  and  C_34
REMARK    7  A    between atoms: C_14  and  C_19
REMARK    8  A    between atoms: C_16  and  C_22
REMARK    9  A    between atoms: C_24  and  C_29
REMARK   10  A    between atoms: C_27  and  C_31
REMARK                            x       y       z     vdW  Elec       q    Type
REMARK                         _______ _______ _______ _____ _____    ______ ____
ROOT
ATOM      4  O   UNL     1     -10.349 -11.396  17.446  0.00  0.00    -0.365 OA
ATOM     13  C   UNL     1     -11.497  -9.497  16.587  0.00  0.00    +0.118 C 
ATOM     14  C   UNL     1     -10.678 -10.736  16.205  0.00  0.00    +0.155 C 
ATOM     15  C   UNL     1     -11.025  -9.196  18.000  0.00  0.00    +0.165 C 
ATOM     16  C   UNL     1     -10.850 -10.609  18.545  0.00  0.00    +0.174 C 
ENDROOT
BRANCH  13   8
ATOM      8  N   UNL     1     -11.439  -8.378  15.663  0.00  0.00    -0.292 NA
ATOM      9  N   UNL     1     -12.498  -6.331  13.975  0.00  0.00    -0.327 N 
ATOM     17  C   UNL     1     -12.086  -8.725  14.391  0.00  0.00    +0.104 C 
ATOM     18  C   UNL     1     -12.084  -7.195  16.245  0.00  0.00    +0.104 C 
ATOM     20  C   UNL     1     -11.980  -7.574  13.389  0.00  0.00    +0.120 C 
ATOM     21  C   UNL     1     -11.980  -5.992  15.304  0.00  0.00    +0.120 C 
BRANCH   9  23
ATOM     23  C   UNL     1     -12.899  -5.312  13.105  0.00  0.00    +0.030 A 
ATOM     25  C   UNL     1     -12.212  -5.103  11.910  0.00  0.00    +0.035 A 
ATOM     26  C   UNL     1     -13.988  -4.503  13.434  0.00  0.00    +0.023 A 
ATOM     27  C   UNL     1     -12.613  -4.086  11.043  0.00  0.00    +0.057 A 
ATOM     28  C   UNL     1     -14.389  -3.486  12.567  0.00  0.00    +0.002 A 
ATOM     30  C   UNL     1     -13.701  -3.277  11.372  0.00  0.00    +0.012 A 
BRANCH  27  31
ATOM      1  F   UNL     1     -11.339  -5.013   9.262  0.00  0.00    -0.166 F 
ATOM      2  F   UNL     1     -12.657  -3.356   8.765  0.00  0.00    -0.166 F 
ATOM      3  F   UNL     1     -10.832  -2.991   9.880  0.00  0.00    -0.166 F 
ATOM     31  C   UNL     1     -11.877  -3.863   9.765  0.00  0.00    +0.417 C 
ENDBRANCH  27  31
ENDBRANCH   9  23
ENDBRANCH  13   8
BRANCH  15   5
ATOM      5  O   UNL     1      -9.782  -8.508  17.999  0.00  0.00    -0.388 OA
ATOM     35  H   UNL     1      -9.968  -7.563  18.132  0.00  0.00    +0.210 HD
ENDBRANCH  15   5
BRANCH  14  19
ATOM     19  C   UNL     1      -9.369 -10.488  15.464  0.00  0.00    +0.137 C 
BRANCH  19  10
ATOM      7  O   UNL     1      -7.283  -9.326  17.059  0.00  0.00    -0.270 OA
ATOM     10  N   UNL     1      -8.283 -11.182  16.089  0.00  0.00    -0.309 N 
ATOM     24  C   UNL     1      -7.310 -10.536  16.848  0.00  0.00    +0.247 C 
ATOM     36  H   UNL     1      -8.218 -12.185  15.945  0.00  0.00    +0.149 HD
BRANCH  24  29
ATOM     11  N   UNL     1      -4.534 -12.118  18.572  0.00  0.00    -0.274 N 
ATOM     12  N   UNL     1      -4.865 -13.177  17.814  0.00  0.00    -0.179 NA
ATOM     29  C   UNL     1      -6.234 -11.394  17.408  0.00  0.00    +0.074 A 
ATOM     32  C   UNL     1      -5.323 -11.025  18.367  0.00  0.00    +0.121 A 
ATOM     33  C   UNL     1      -5.905 -12.729  17.105  0.00  0.00    +0.147 A 
ATOM     34  C   UNL     1      -3.429 -12.215  19.496  0.00  0.00    +0.172 C 
ENDBRANCH  24  29
ENDBRANCH  19  10
ENDBRANCH  14  19
BRANCH  16  22
ATOM     22  C   UNL     1      -9.907 -10.741  19.727  0.00  0.00    +0.190 C 
BRANCH  22   6
ATOM      6  O   UNL     1     -10.391  -9.937  20.792  0.00  0.00    -0.392 OA
ATOM     37  H   UNL     1     -11.186  -9.481  20.467  0.00  0.00    +0.210 HD
ENDBRANCH  22   6
ENDBRANCH  16  22
TORSDOF 9
ENDMDL
MODEL 4
REMARK VINA RESULT:      -6.8      1.571      2.076
REMARK  Name = 51136981
REMARK  10 active torsions:
REMARK  status: ('A' for Active; 'I' for Inactive)
REMARK    1  A    between atoms: O_5  and  C_15
REMARK    2  A    between atoms: O_6  and  C_22
REMARK    3  A    between atoms: N_8  and  C_13
REMARK    4  A    between atoms: N_9  and  C_23
REMARK    5  A    between atoms: N_10  and  C_19
REMARK    6  A    between atoms: N_11  and  C_34
REMARK    7  A    between atoms: C_14  and  C_19
REMARK    8  A    between atoms: C_16  and  C_22
REMARK    9  A    between atoms: C_24  and  C_29
REMARK   10  A    between atoms: C_27  and  C_31
REMARK                            x       y       z     vdW  Elec       q    Type
REMARK                         _______ _______ _______ _____ _____    ______ ____
ROOT
ATOM      4  O   UNL     1     -17.942   4.807  22.937  0.00  0.00    -0.365 OA
ATOM     13  C   UNL     1     -17.770   3.373  24.828  0.00  0.00    +0.118 C 
ATOM     14  C   UNL     1     -17.409   4.758  24.278  0.00  0.00    +0.155 C 
ATOM     15  C   UNL     1     -17.895   2.527  23.571  0.00  0.00    +0.165 C 
ATOM     16  C   UNL     1     -18.532   3.532  22.619  0.00  0.00    +0.174 C 
ENDROOT
BRANCH  13   8
ATOM      8  N   UNL     1     -16.887   2.837  25.849  0.00  0.00    -0.292 NA
ATOM      9  N   UNL     1     -16.170   1.926  28.460  0.00  0.00    -0.327 N 
ATOM     17  C   UNL     1     -16.739   3.793  26.955  0.00  0.00    +0.104 C 
ATOM     18  C   UNL     1     -17.403   1.561  26.358  0.00  0.00    +0.104 C 
ATOM     20  C   UNL     1     -15.765   3.264  28.010  0.00  0.00    +0.120 C 
ATOM     21  C   UNL     1     -16.453   0.957  27.396  0.00  0.00    +0.120 C 
BRANCH   9  23
ATOM     23  C   UNL     1     -15.699   1.478  29.699  0.00  0.00    +0.030 A 
ATOM     25  C   UNL     1     -15.499   2.385  30.739  0.00  0.00    +0.035 A 
ATOM     26  C   UNL     1     -15.429   0.123  29.894  0.00  0.00    +0.023 A 
ATOM     27  C   UNL     1     -15.029   1.937  31.974  0.00  0.00    +0.057 A 
ATOM     28  C   UNL     1     -14.959  -0.325  31.128  0.00  0.00    +0.002 A 
ATOM     30  C   UNL     1     -14.759   0.583  32.169  0.00  0.00    +0.012 A 
BRANCH  27  31
ATOM      1  F   UNL     1     -13.745   3.728  32.869  0.00  0.00    -0.166 F 
ATOM      2  F   UNL     1     -15.877   3.741  33.299  0.00  0.00    -0.166 F 
ATOM      3  F   UNL     1     -14.581   2.314  34.294  0.00  0.00    -0.166 F 
ATOM     31  C   UNL     1     -14.815   2.908  33.086  0.00  0.00    +0.417 C 
ENDBRANCH  27  31
ENDBRANCH   9  23
ENDBRANCH  13   8
BRANCH  15   5
ATOM      5  O   UNL     1     -16.621   2.123  23.085  0.00  0.00    -0.388 OA
ATOM     35  H   UNL     1     -15.984   2.822  23.313  0.00  0.00    +0.210 HD
ENDBRANCH  15   5
BRANCH  14  19
ATOM     19  C   UNL     1     -15.924   5.092  24.187  0.00  0.00    +0.137 C 
BRANCH  19  10
ATOM      7  O   UNL     1     -13.670   4.743  22.444  0.00  0.00    -0.270 OA
ATOM     10  N   UNL     1     -15.636   5.843  23.002  0.00  0.00    -0.309 N 
ATOM     24  C   UNL     1     -14.514   5.606  22.212  0.00  0.00    +0.247 C 
ATOM     36  H   UNL     1     -16.273   6.593  22.751  0.00  0.00    +0.149 HD
BRANCH  24  29
ATOM     11  N   UNL     1     -13.479   7.792  19.505  0.00  0.00    -0.274 N 
ATOM     12  N   UNL     1     -14.773   7.713  19.149  0.00  0.00    -0.179 NA
ATOM     29  C   UNL     1     -14.343   6.489  21.029  0.00  0.00    +0.074 A 
ATOM     32  C   UNL     1     -13.169   7.077  20.624  0.00  0.00    +0.121 A 
ATOM     33  C   UNL     1     -15.295   6.915  20.085  0.00  0.00    +0.147 A 
ATOM     34  C   UNL     1     -12.566   8.584  18.715  0.00  0.00    +0.172 C 
ENDBRANCH  24  29
ENDBRANCH  19  10
ENDBRANCH  14  19
BRANCH  16  22
ATOM     22  C   UNL     1     -18.339   3.245  21.140  0.00  0.00    +0.190 C 
BRANCH  22   6
ATOM      6  O   UNL     1     -17.208   3.967  20.677  0.00  0.00    -0.392 OA
ATOM     37  H   UNL     1     -16.461   3.344  20.655  0.00  0.00    +0.210 HD
ENDBRANCH  22   6
ENDBRANCH  16  22
TORSDOF 9
ENDMDL
MODEL 5
REMARK VINA RESULT:      -6.7     32.209     36.534
REMARK  Name = 51136981
REMARK  10 active torsions:
REMARK  status: ('A' for Active; 'I' for Inactive)
REMARK    1  A    between atoms: O_5  and  C_15
REMARK    2  A    between atoms: O_6  and  C_22
REMARK    3  A    between atoms: N_8  and  C_13
REMARK    4  A    between atoms: N_9  and  C_23
REMARK    5  A    between atoms: N_10  and  C_19
REMARK    6  A    between atoms: N_11  and  C_34
REMARK    7  A    between atoms: C_14  and  C_19
REMARK    8  A    between atoms: C_16  and  C_22
REMARK    9  A    between atoms: C_24  and  C_29
REMARK   10  A    between atoms: C_27  and  C_31
REMARK                            x       y       z     vdW  Elec       q    Type
REMARK                         _______ _______ _______ _____ _____    ______ ____
ROOT
ATOM      4  O   UNL     1      13.628   5.297  -0.667  0.00  0.00    -0.365 OA
ATOM     13  C   UNL     1      12.143   5.882   1.098  0.00  0.00    +0.118 C 
ATOM     14  C   UNL     1      13.611   5.877   0.656  0.00  0.00    +0.155 C 
ATOM     15  C   UNL     1      11.539   4.739   0.298  0.00  0.00    +0.165 C 
ATOM     16  C   UNL     1      12.291   4.892  -1.020  0.00  0.00    +0.174 C 
ENDROOT
BRANCH  13   8
ATOM      8  N   UNL     1      11.903   5.830   2.530  0.00  0.00    -0.292 NA
ATOM      9  N   UNL     1      10.567   6.459   4.975  0.00  0.00    -0.327 N 
ATOM     17  C   UNL     1      12.031   7.167   3.123  0.00  0.00    +0.104 C 
ATOM     18  C   UNL     1      10.569   5.285   2.809  0.00  0.00    +0.104 C 
ATOM     20  C   UNL     1      11.838   7.115   4.640  0.00  0.00    +0.120 C 
ATOM     21  C   UNL     1      10.325   5.172   4.316  0.00  0.00    +0.120 C 
BRANCH   9  23
ATOM     23  C   UNL     1      10.009   6.711   6.233  0.00  0.00    +0.030 A 
ATOM     25  C   UNL     1       9.959   5.698   7.190  0.00  0.00    +0.035 A 
ATOM     26  C   UNL     1       9.503   7.977   6.530  0.00  0.00    +0.023 A 
ATOM     27  C   UNL     1       9.402   5.950   8.444  0.00  0.00    +0.057 A 
ATOM     28  C   UNL     1       8.947   8.229   7.784  0.00  0.00    +0.002 A 
ATOM     30  C   UNL     1       8.896   7.216   8.741  0.00  0.00    +0.012 A 
BRANCH  27  31
ATOM      1  F   UNL     1       9.383   3.619   8.912  0.00  0.00    -0.166 F 
ATOM      2  F   UNL     1      10.385   4.900  10.357  0.00  0.00    -0.166 F 
ATOM      3  F   UNL     1       8.218   4.893  10.234  0.00  0.00    -0.166 F 
ATOM     31  C   UNL     1       9.349   4.866   9.467  0.00  0.00    +0.417 C 
ENDBRANCH  27  31
ENDBRANCH   9  23
ENDBRANCH  13   8
BRANCH  15   5
ATOM      5  O   UNL     1      11.827   3.480   0.889  0.00  0.00    -0.388 OA
ATOM     35  H   UNL     1      12.710   3.207   0.588  0.00  0.00    +0.210 HD
ENDBRANCH  15   5
BRANCH  14  19
ATOM     19  C   UNL     1      14.581   5.073   1.514  0.00  0.00    +0.137 C 
BRANCH  19  10
ATOM      7  O   UNL     1      16.064   7.531   1.491  0.00  0.00    -0.270 OA
ATOM     10  N   UNL     1      15.006   5.824   2.655  0.00  0.00    -0.309 N 
ATOM     24  C   UNL     1      15.726   7.013   2.552  0.00  0.00    +0.247 C 
ATOM     36  H   UNL     1      14.788   5.453   3.575  0.00  0.00    +0.149 HD
BRANCH  24  29
ATOM     11  N   UNL     1      17.262   8.643   5.409  0.00  0.00    -0.274 N 
ATOM     12  N   UNL     1      16.034   8.524   5.945  0.00  0.00    -0.179 NA
ATOM     29  C   UNL     1      16.116   7.659   3.832  0.00  0.00    +0.074 A 
ATOM     32  C   UNL     1      17.364   8.140   4.146  0.00  0.00    +0.121 A 
ATOM     33  C   UNL     1      15.339   7.923   4.975  0.00  0.00    +0.147 A 
ATOM     34  C   UNL     1      18.319   9.261   6.173  0.00  0.00    +0.172 C 
ENDBRANCH  24  29
ENDBRANCH  19  10
ENDBRANCH  14  19
BRANCH  16  22
ATOM     22  C   UNL     1      12.356   3.644  -1.882  0.00  0.00    +0.190 C 
BRANCH  22   6
ATOM      6  O   UNL     1      11.077   3.030  -1.900  0.00  0.00    -0.392 OA
ATOM     37  H   UNL     1      10.427   3.717  -1.673  0.00  0.00    +0.210 HD
ENDBRANCH  22   6
ENDBRANCH  16  22
TORSDOF 9
ENDMDL
MODEL 6
REMARK VINA RESULT:      -6.7     22.338     25.211
REMARK  Name = 51136981
REMARK  10 active torsions:
REMARK  status: ('A' for Active; 'I' for Inactive)
REMARK    1  A    between atoms: O_5  and  C_15
REMARK    2  A    between atoms: O_6  and  C_22
REMARK    3  A    between atoms: N_8  and  C_13
REMARK    4  A    between atoms: N_9  and  C_23
REMARK    5  A    between atoms: N_10  and  C_19
REMARK    6  A    between atoms: N_11  and  C_34
REMARK    7  A    between atoms: C_14  and  C_19
REMARK    8  A    between atoms: C_16  and  C_22
REMARK    9  A    between atoms: C_24  and  C_29
REMARK   10  A    between atoms: C_27  and  C_31
REMARK                            x       y       z     vdW  Elec       q    Type
REMARK                         _______ _______ _______ _____ _____    ______ ____
ROOT
ATOM      4  O   UNL     1      -1.859 -12.516  12.783  0.00  0.00    -0.365 OA
ATOM     13  C   UNL     1      -3.376 -11.929  11.046  0.00  0.00    +0.118 C 
ATOM     14  C   UNL     1      -2.314 -11.385  12.009  0.00  0.00    +0.155 C 
ATOM     15  C   UNL     1      -3.902 -13.156  11.773  0.00  0.00    +0.165 C 
ATOM     16  C   UNL     1      -2.617 -13.681  12.403  0.00  0.00    +0.174 C 
ENDROOT
BRANCH  13   8
ATOM      8  N   UNL     1      -4.390 -10.985  10.610  0.00  0.00    -0.292 NA
ATOM      9  N   UNL     1      -6.013  -9.591   8.717  0.00  0.00    -0.327 N 
ATOM     17  C   UNL     1      -3.801  -9.961   9.738  0.00  0.00    +0.104 C 
ATOM     18  C   UNL     1      -5.471 -11.682   9.902  0.00  0.00    +0.104 C 
ATOM     20  C   UNL     1      -4.849  -8.928   9.318  0.00  0.00    +0.120 C 
ATOM     21  C   UNL     1      -6.575 -10.706   9.485  0.00  0.00    +0.120 C 
BRANCH   9  23
ATOM     23  C   UNL     1      -6.845  -8.833   7.885  0.00  0.00    +0.030 A 
ATOM     25  C   UNL     1      -7.675  -7.856   8.431  0.00  0.00    +0.035 A 
ATOM     26  C   UNL     1      -6.842  -9.055   6.507  0.00  0.00    +0.023 A 
ATOM     27  C   UNL     1      -8.504  -7.100   7.601  0.00  0.00    +0.057 A 
ATOM     28  C   UNL     1      -7.670  -8.300   5.677  0.00  0.00    +0.002 A 
ATOM     30  C   UNL     1      -8.501  -7.323   6.224  0.00  0.00    +0.012 A 
BRANCH  27  31
ATOM      1  F   UNL     1      -8.719  -4.908   8.498  0.00  0.00    -0.166 F 
ATOM      2  F   UNL     1     -10.407  -5.670   7.357  0.00  0.00    -0.166 F 
ATOM      3  F   UNL     1     -10.005  -6.444   9.344  0.00  0.00    -0.166 F 
ATOM     31  C   UNL     1      -9.392  -6.055   8.187  0.00  0.00    +0.417 C 
ENDBRANCH  27  31
ENDBRANCH   9  23
ENDBRANCH  13   8
BRANCH  15   5
ATOM      5  O   UNL     1      -4.839 -12.802  12.781  0.00  0.00    -0.388 OA
ATOM     35  H   UNL     1      -4.338 -12.556  13.577  0.00  0.00    +0.210 HD
ENDBRANCH  15   5
BRANCH  14  19
ATOM     19  C   UNL     1      -2.769 -10.316  12.997  0.00  0.00    +0.137 C 
BRANCH  19  10
ATOM      7  O   UNL     1      -5.284 -10.117  14.368  0.00  0.00    -0.270 OA
ATOM     10  N   UNL     1      -3.098 -10.893  14.266  0.00  0.00    -0.309 N 
ATOM     24  C   UNL     1      -4.349 -10.745  14.861  0.00  0.00    +0.247 C 
ATOM     36  H   UNL     1      -2.373 -11.410  14.753  0.00  0.00    +0.149 HD
BRANCH  24  29
ATOM     11  N   UNL     1      -4.217 -12.021  18.257  0.00  0.00    -0.274 N 
ATOM     12  N   UNL     1      -5.387 -12.594  17.925  0.00  0.00    -0.179 NA
ATOM     29  C   UNL     1      -4.525 -11.382  16.192  0.00  0.00    +0.074 A 
ATOM     32  C   UNL     1      -3.659 -11.285  17.254  0.00  0.00    +0.121 A 
ATOM     33  C   UNL     1      -5.570 -12.199  16.662  0.00  0.00    +0.147 A 
ATOM     34  C   UNL     1      -3.672 -12.219  19.579  0.00  0.00    +0.172 C 
ENDBRANCH  24  29
ENDBRANCH  19  10
ENDBRANCH  14  19
BRANCH  16  22
ATOM     22  C   UNL     1      -2.802 -14.575  13.616  0.00  0.00    +0.190 C 
BRANCH  22   6
ATOM      6  O   UNL     1      -2.603 -13.804  14.790  0.00  0.00    -0.392 OA
ATOM     37  H   UNL     1      -3.051 -14.269  15.517  0.00  0.00    +0.210 HD
ENDBRANCH  22   6
ENDBRANCH  16  22
TORSDOF 9
ENDMDL
MODEL 7
REMARK VINA RESULT:      -6.7      4.867      9.919
REMARK  Name = 51136981
REMARK  10 active torsions:
REMARK  status: ('A' for Active; 'I' for Inactive)
REMARK    1  A    between atoms: O_5  and  C_15
REMARK    2  A    between atoms: O_6  and  C_22
REMARK    3  A    between atoms: N_8  and  C_13
REMARK    4  A    between atoms: N_9  and  C_23
REMARK    5  A    between atoms: N_10  and  C_19
REMARK    6  A    between atoms: N_11  and  C_34
REMARK    7  A    between atoms: C_14  and  C_19
REMARK    8  A    between atoms: C_16  and  C_22
REMARK    9  A    between atoms: C_24  and  C_29
REMARK   10  A    between atoms: C_27  and  C_31
REMARK                            x       y       z     vdW  Elec       q    Type
REMARK                         _______ _______ _______ _____ _____    ______ ____
ROOT
ATOM      4  O   UNL     1     -17.564   2.510  29.130  0.00  0.00    -0.365 OA
ATOM     13  C   UNL     1     -17.593   3.657  27.045  0.00  0.00    +0.118 C 
ATOM     14  C   UNL     1     -16.797   2.680  27.918  0.00  0.00    +0.155 C 
ATOM     15  C   UNL     1     -18.392   4.454  28.064  0.00  0.00    +0.165 C 
ATOM     16  C   UNL     1     -18.723   3.364  29.076  0.00  0.00    +0.174 C 
ENDROOT
BRANCH  13   8
ATOM      8  N   UNL     1     -16.824   4.451  26.103  0.00  0.00    -0.292 NA
ATOM      9  N   UNL     1     -16.102   5.479  23.537  0.00  0.00    -0.327 N 
ATOM     17  C   UNL     1     -16.169   3.585  25.113  0.00  0.00    +0.104 C 
ATOM     18  C   UNL     1     -17.687   5.423  25.423  0.00  0.00    +0.104 C 
ATOM     20  C   UNL     1     -15.309   4.406  24.150  0.00  0.00    +0.120 C 
ATOM     21  C   UNL     1     -16.878   6.305  24.468  0.00  0.00    +0.120 C 
BRANCH   9  23
ATOM     23  C   UNL     1     -15.645   6.030  22.335  0.00  0.00    +0.030 A 
ATOM     25  C   UNL     1     -14.286   6.282  22.155  0.00  0.00    +0.035 A 
ATOM     26  C   UNL     1     -16.551   6.328  21.316  0.00  0.00    +0.023 A 
ATOM     27  C   UNL     1     -13.831   6.831  20.956  0.00  0.00    +0.057 A 
ATOM     28  C   UNL     1     -16.096   6.877  20.117  0.00  0.00    +0.002 A 
ATOM     30  C   UNL     1     -14.736   7.129  19.937  0.00  0.00    +0.012 A 
BRANCH  27  31
ATOM      1  F   UNL     1     -12.006   7.068  19.450  0.00  0.00    -0.166 F 
ATOM      2  F   UNL     1     -11.979   8.322  21.228  0.00  0.00    -0.166 F 
ATOM      3  F   UNL     1     -11.565   6.198  21.394  0.00  0.00    -0.166 F 
ATOM     31  C   UNL     1     -12.376   7.100  20.764  0.00  0.00    +0.417 C 
ENDBRANCH  27  31
ENDBRANCH   9  23
ENDBRANCH  13   8
BRANCH  15   5
ATOM      5  O   UNL     1     -17.601   5.468  28.668  0.00  0.00    -0.388 OA
ATOM     35  H   UNL     1     -18.098   5.817  29.427  0.00  0.00    +0.210 HD
ENDBRANCH  15   5
BRANCH  14  19
ATOM     19  C   UNL     1     -15.395   3.116  28.329  0.00  0.00    +0.137 C 
BRANCH  19  10
ATOM      7  O   UNL     1     -13.554   1.784  30.084  0.00  0.00    -0.270 OA
ATOM     10  N   UNL     1     -15.299   3.277  29.748  0.00  0.00    -0.309 N 
ATOM     24  C   UNL     1     -14.373   2.587  30.526  0.00  0.00    +0.247 C 
ATOM     36  H   UNL     1     -15.957   3.906  30.198  0.00  0.00    +0.149 HD
BRANCH  24  29
ATOM     11  N   UNL     1     -14.390   3.833  33.936  0.00  0.00    -0.274 N 
ATOM     12  N   UNL     1     -14.589   2.540  34.246  0.00  0.00    -0.179 NA
ATOM     29  C   UNL     1     -14.419   2.845  31.989  0.00  0.00    +0.074 A 
ATOM     32  C   UNL     1     -14.281   4.068  32.597  0.00  0.00    +0.121 A 
ATOM     33  C   UNL     1     -14.606   1.942  33.052  0.00  0.00    +0.147 A 
ATOM     34  C   UNL     1     -14.312   4.818  34.988  0.00  0.00    +0.172 C 
ENDBRANCH  24  29
ENDBRANCH  19  10
ENDBRANCH  14  19
BRANCH  16  22
ATOM     22  C   UNL     1     -19.051   3.851  30.476  0.00  0.00    +0.190 C 
BRANCH  22   6
ATOM      6  O   UNL     1     -17.843   4.009  31.202  0.00  0.00    -0.392 OA
ATOM     37  H   UNL     1     -18.031   3.769  32.126  0.00  0.00    +0.210 HD
ENDBRANCH  22   6
ENDBRANCH  16  22
TORSDOF 9
ENDMDL
MODEL 8
REMARK VINA RESULT:      -6.6     23.841     25.682
REMARK  Name = 51136981
REMARK  10 active torsions:
REMARK  status: ('A' for Active; 'I' for Inactive)
REMARK    1  A    between atoms: O_5  and  C_15
REMARK    2  A    between atoms: O_6  and  C_22
REMARK    3  A    between atoms: N_8  and  C_13
REMARK    4  A    between atoms: N_9  and  C_23
REMARK    5  A    between atoms: N_10  and  C_19
REMARK    6  A    between atoms: N_11  and  C_34
REMARK    7  A    between atoms: C_14  and  C_19
REMARK    8  A    between atoms: C_16  and  C_22
REMARK    9  A    between atoms: C_24  and  C_29
REMARK   10  A    between atoms: C_27  and  C_31
REMARK                            x       y       z     vdW  Elec       q    Type
REMARK                         _______ _______ _______ _____ _____    ______ ____
ROOT
ATOM      4  O   UNL     1      -6.270  -9.681   6.658  0.00  0.00    -0.365 OA
ATOM     13  C   UNL     1      -5.750  -9.470   8.971  0.00  0.00    +0.118 C 
ATOM     14  C   UNL     1      -5.209  -9.921   7.609  0.00  0.00    +0.155 C 
ATOM     15  C   UNL     1      -7.254  -9.622   8.810  0.00  0.00    +0.165 C 
ATOM     16  C   UNL     1      -7.427  -9.186   7.360  0.00  0.00    +0.174 C 
ENDROOT
BRANCH  13   8
ATOM      8  N   UNL     1      -5.183 -10.125  10.136  0.00  0.00    -0.292 NA
ATOM      9  N   UNL     1      -3.893 -10.262  12.681  0.00  0.00    -0.327 N 
ATOM     17  C   UNL     1      -3.755  -9.805  10.263  0.00  0.00    +0.104 C 
ATOM     18  C   UNL     1      -5.896  -9.720  11.353  0.00  0.00    +0.104 C 
ATOM     20  C   UNL     1      -3.133 -10.536  11.455  0.00  0.00    +0.120 C 
ATOM     21  C   UNL     1      -5.344 -10.447  12.583  0.00  0.00    +0.120 C 
BRANCH   9  23
ATOM     23  C   UNL     1      -3.251 -10.454  13.909  0.00  0.00    +0.030 A 
ATOM     25  C   UNL     1      -3.994 -10.784  15.042  0.00  0.00    +0.035 A 
ATOM     26  C   UNL     1      -1.865 -10.317  14.000  0.00  0.00    +0.023 A 
ATOM     27  C   UNL     1      -3.352 -10.975  16.266  0.00  0.00    +0.057 A 
ATOM     28  C   UNL     1      -1.224 -10.508  15.223  0.00  0.00    +0.002 A 
ATOM     30  C   UNL     1      -1.967 -10.837  16.357  0.00  0.00    +0.012 A 
BRANCH  27  31
ATOM      1  F   UNL     1      -3.366 -11.735  18.519  0.00  0.00    -0.166 F 
ATOM      2  F   UNL     1      -4.895 -10.292  17.963  0.00  0.00    -0.166 F 
ATOM      3  F   UNL     1      -5.039 -12.343  17.270  0.00  0.00    -0.166 F 
ATOM     31  C   UNL     1      -4.148 -11.328  17.477  0.00  0.00    +0.417 C 
ENDBRANCH  27  31
ENDBRANCH   9  23
ENDBRANCH  13   8
BRANCH  15   5
ATOM      5  O   UNL     1      -7.662 -10.973   8.973  0.00  0.00    -0.388 OA
ATOM     35  H   UNL     1      -8.106 -11.046   9.835  0.00  0.00    +0.210 HD
ENDBRANCH  15   5
BRANCH  14  19
ATOM     19  C   UNL     1      -4.813 -11.388   7.481  0.00  0.00    +0.137 C 
BRANCH  19  10
ATOM      7  O   UNL     1      -6.001 -12.781   5.270  0.00  0.00    -0.270 OA
ATOM     10  N   UNL     1      -4.206 -11.651   6.212  0.00  0.00    -0.309 N 
ATOM     24  C   UNL     1      -4.858 -12.338   5.190  0.00  0.00    +0.247 C 
ATOM     36  H   UNL     1      -3.251 -11.338   6.070  0.00  0.00    +0.149 HD
BRANCH  24  29
ATOM     11  N   UNL     1      -3.539 -12.928   1.860  0.00  0.00    -0.274 N 
ATOM     12  N   UNL     1      -2.350 -12.787   2.471  0.00  0.00    -0.179 NA
ATOM     29  C   UNL     1      -4.082 -12.553   3.941  0.00  0.00    +0.074 A 
ATOM     32  C   UNL     1      -4.608 -12.798   2.696  0.00  0.00    +0.121 A 
ATOM     33  C   UNL     1      -2.689 -12.557   3.743  0.00  0.00    +0.147 A 
ATOM     34  C   UNL     1      -3.589 -13.193   0.442  0.00  0.00    +0.172 C 
ENDBRANCH  24  29
ENDBRANCH  19  10
ENDBRANCH  14  19
BRANCH  16  22
ATOM     22  C   UNL     1      -8.683  -9.689   6.671  0.00  0.00    +0.190 C 
BRANCH  22   6
ATOM      6  O   UNL     1      -8.408 -10.947   6.076  0.00  0.00    -0.392 OA
ATOM     37  H   UNL     1      -8.234 -11.574   6.800  0.00  0.00    +0.210 HD
ENDBRANCH  22   6
ENDBRANCH  16  22
TORSDOF 9
ENDMDL
MODEL 9
REMARK VINA RESULT:      -6.6     17.460     20.126
REMARK  Name = 51136981
REMARK  10 active torsions:
REMARK  status: ('A' for Active; 'I' for Inactive)
REMARK    1  A    between atoms: O_5  and  C_15
REMARK    2  A    between atoms: O_6  and  C_22
REMARK    3  A    between atoms: N_8  and  C_13
REMARK    4  A    between atoms: N_9  and  C_23
REMARK    5  A    between atoms: N_10  and  C_19
REMARK    6  A    between atoms: N_11  and  C_34
REMARK    7  A    between atoms: C_14  and  C_19
REMARK    8  A    between atoms: C_16  and  C_22
REMARK    9  A    between atoms: C_24  and  C_29
REMARK   10  A    between atoms: C_27  and  C_31
REMARK                            x       y       z     vdW  Elec       q    Type
REMARK                         _______ _______ _______ _____ _____    ______ ____
ROOT
ATOM      4  O   UNL     1      -8.513 -12.102  17.294  0.00  0.00    -0.365 OA
ATOM     13  C   UNL     1     -10.063 -10.320  16.997  0.00  0.00    +0.118 C 
ATOM     14  C   UNL     1      -9.316 -11.453  16.283  0.00  0.00    +0.155 C 
ATOM     15  C   UNL     1      -9.158 -10.001  18.176  0.00  0.00    +0.165 C 
ATOM     16  C   UNL     1      -8.672 -11.399  18.542  0.00  0.00    +0.174 C 
ENDROOT
BRANCH  13   8
ATOM      8  N   UNL     1     -10.437  -9.181  16.177  0.00  0.00    -0.292 NA
ATOM      9  N   UNL     1     -12.232  -7.349  14.920  0.00  0.00    -0.327 N 
ATOM     17  C   UNL     1     -11.263  -9.611  15.041  0.00  0.00    +0.104 C 
ATOM     18  C   UNL     1     -11.164  -8.188  16.976  0.00  0.00    +0.104 C 
ATOM     20  C   UNL     1     -11.614  -8.427  14.138  0.00  0.00    +0.120 C 
ATOM     21  C   UNL     1     -11.514  -6.956  16.137  0.00  0.00    +0.120 C 
BRANCH   9  23
ATOM     23  C   UNL     1     -13.012  -6.407  14.239  0.00  0.00    +0.030 A 
ATOM     25  C   UNL     1     -12.409  -5.496  13.373  0.00  0.00    +0.035 A 
ATOM     26  C   UNL     1     -14.395  -6.381  14.428  0.00  0.00    +0.023 A 
ATOM     27  C   UNL     1     -13.188  -4.558  12.695  0.00  0.00    +0.057 A 
ATOM     28  C   UNL     1     -15.173  -5.443  13.750  0.00  0.00    +0.002 A 
ATOM     30  C   UNL     1     -14.570  -4.531  12.883  0.00  0.00    +0.012 A 
BRANCH  27  31
ATOM      1  F   UNL     1     -13.451  -2.835  11.078  0.00  0.00    -0.166 F 
ATOM      2  F   UNL     1     -11.729  -2.685  12.398  0.00  0.00    -0.166 F 
ATOM      3  F   UNL     1     -11.755  -4.172  10.818  0.00  0.00    -0.166 F 
ATOM     31  C   UNL     1     -12.542  -3.584  11.768  0.00  0.00    +0.417 C 
ENDBRANCH  27  31
ENDBRANCH   9  23
ENDBRANCH  13   8
BRANCH  15   5
ATOM      5  O   UNL     1      -8.064  -9.182  17.787  0.00  0.00    -0.388 OA
ATOM     35  H   UNL     1      -8.427  -8.401  17.335  0.00  0.00    +0.210 HD
ENDBRANCH  15   5
BRANCH  14  19
ATOM     19  C   UNL     1      -8.376 -11.048  15.153  0.00  0.00    +0.137 C 
BRANCH  19  10
ATOM      7  O   UNL     1      -6.122  -9.922  13.776  0.00  0.00    -0.270 OA
ATOM     10  N   UNL     1      -7.010 -11.082  15.580  0.00  0.00    -0.309 N 
ATOM     24  C   UNL     1      -5.974 -10.508  14.846  0.00  0.00    +0.247 C 
ATOM     36  H   UNL     1      -6.797 -11.570  16.445  0.00  0.00    +0.149 HD
BRANCH  24  29
ATOM     11  N   UNL     1      -2.441 -10.826  15.615  0.00  0.00    -0.274 N 
ATOM     12  N   UNL     1      -2.878 -10.897  16.884  0.00  0.00    -0.179 NA
ATOM     29  C   UNL     1      -4.608 -10.653  15.412  0.00  0.00    +0.074 A 
ATOM     32  C   UNL     1      -3.436 -10.680  14.695  0.00  0.00    +0.121 A 
ATOM     33  C   UNL     1      -4.204 -10.790  16.753  0.00  0.00    +0.147 A 
ATOM     34  C   UNL     1      -1.026 -10.905  15.340  0.00  0.00    +0.172 C 
ENDBRANCH  24  29
ENDBRANCH  19  10
ENDBRANCH  14  19
BRANCH  16  22
ATOM     22  C   UNL     1      -7.368 -11.454  19.317  0.00  0.00    +0.190 C 
BRANCH  22   6
ATOM      6  O   UNL     1      -7.282 -10.311  20.154  0.00  0.00    -0.392 OA
ATOM     37  H   UNL     1      -6.797  -9.629  19.657  0.00  0.00    +0.210 HD
ENDBRANCH  22   6
ENDBRANCH  16  22
TORSDOF 9
ENDMDL
MODEL 10
REMARK VINA RESULT:      -6.5     18.626     20.722
REMARK  Name = 51136981
REMARK  10 active torsions:
REMARK  status: ('A' for Active; 'I' for Inactive)
REMARK    1  A    between atoms: O_5  and  C_15
REMARK    2  A    between atoms: O_6  and  C_22
REMARK    3  A    between atoms: N_8  and  C_13
REMARK    4  A    between atoms: N_9  and  C_23
REMARK    5  A    between atoms: N_10  and  C_19
REMARK    6  A    between atoms: N_11  and  C_34
REMARK    7  A    between atoms: C_14  and  C_19
REMARK    8  A    between atoms: C_16  and  C_22
REMARK    9  A    between atoms: C_24  and  C_29
REMARK   10  A    between atoms: C_27  and  C_31
REMARK                            x       y       z     vdW  Elec       q    Type
REMARK                         _______ _______ _______ _____ _____    ______ ____
ROOT
ATOM      4  O   UNL     1     -11.053 -10.259  19.064  0.00  0.00    -0.365 OA
ATOM     13  C   UNL     1      -8.726 -10.506  18.629  0.00  0.00    +0.118 C 
ATOM     14  C   UNL     1     -10.023  -9.854  18.136  0.00  0.00    +0.155 C 
ATOM     15  C   UNL     1      -9.223 -11.725  19.390  0.00  0.00    +0.165 C 
ATOM     16  C   UNL     1     -10.483 -11.159  20.035  0.00  0.00    +0.174 C 
ENDROOT
BRANCH  13   8
ATOM      8  N   UNL     1      -7.718 -10.775  17.619  0.00  0.00    -0.292 NA
ATOM      9  N   UNL     1      -5.120 -10.675  16.436  0.00  0.00    -0.327 N 
ATOM     17  C   UNL     1      -7.208  -9.520  17.052  0.00  0.00    +0.104 C 
ATOM     18  C   UNL     1      -6.611 -11.551  18.191  0.00  0.00    +0.104 C 
ATOM     20  C   UNL     1      -6.187  -9.792  15.946  0.00  0.00    +0.120 C 
ATOM     21  C   UNL     1      -5.567 -11.890  17.123  0.00  0.00    +0.120 C 
BRANCH   9  23
ATOM     23  C   UNL     1      -3.900 -10.673  15.751  0.00  0.00    +0.030 A 
ATOM     25  C   UNL     1      -3.880 -10.590  14.360  0.00  0.00    +0.035 A 
ATOM     26  C   UNL     1      -2.702 -10.755  16.462  0.00  0.00    +0.023 A 
ATOM     27  C   UNL     1      -2.663 -10.589  13.678  0.00  0.00    +0.057 A 
ATOM     28  C   UNL     1      -1.485 -10.754  15.781  0.00  0.00    +0.002 A 
ATOM     30  C   UNL     1      -1.465 -10.671  14.388  0.00  0.00    +0.012 A 
BRANCH  27  31
ATOM      1  F   UNL     1      -3.735  -9.851  11.688  0.00  0.00    -0.166 F 
ATOM      2  F   UNL     1      -1.560  -9.830  11.695  0.00  0.00    -0.166 F 
ATOM      3  F   UNL     1      -2.624 -11.717  11.568  0.00  0.00    -0.166 F 
ATOM     31  C   UNL     1      -2.643 -10.500  12.189  0.00  0.00    +0.417 C 
ENDBRANCH  27  31
ENDBRANCH   9  23
ENDBRANCH  13   8
BRANCH  15   5
ATOM      5  O   UNL     1      -9.553 -12.790  18.510  0.00  0.00    -0.388 OA
ATOM     35  H   UNL     1      -8.878 -12.814  17.810  0.00  0.00    +0.210 HD
ENDBRANCH  15   5
BRANCH  14  19
ATOM     19  C   UNL     1     -10.496 -10.243  16.740  0.00  0.00    +0.137 C 
BRANCH  19  10
ATOM      7  O   UNL     1      -9.775  -7.755  15.502  0.00  0.00    -0.270 OA
ATOM     10  N   UNL     1     -11.393  -9.262  16.206  0.00  0.00    -0.309 N 
ATOM     24  C   UNL     1     -10.955  -8.077  15.621  0.00  0.00    +0.247 C 
ATOM     36  H   UNL     1     -12.389  -9.440  16.285  0.00  0.00    +0.149 HD
BRANCH  24  29
ATOM     11  N   UNL     1     -13.944  -6.285  14.605  0.00  0.00    -0.274 N 
ATOM     12  N   UNL     1     -13.070  -5.318  14.278  0.00  0.00    -0.179 NA
ATOM     29  C   UNL     1     -12.012  -7.150  15.139  0.00  0.00    +0.074 A 
ATOM     32  C   UNL     1     -13.362  -7.403  15.124  0.00  0.00    +0.121 A 
ATOM     33  C   UNL     1     -11.890  -5.853  14.607  0.00  0.00    +0.147 A 
ATOM     34  C   UNL     1     -15.356  -6.075  14.392  0.00  0.00    +0.172 C 
ENDBRANCH  24  29
ENDBRANCH  19  10
ENDBRANCH  14  19
BRANCH  16  22
ATOM     22  C   UNL     1     -11.527 -12.184  20.440  0.00  0.00    +0.190 C 
BRANCH  22   6
ATOM      6  O   UNL     1     -10.889 -13.227  21.161  0.00  0.00    -0.392 OA
ATOM     37  H   UNL     1     -10.981 -13.019  22.106  0.00  0.00    +0.210 HD
ENDBRANCH  22   6
ENDBRANCH  16  22
TORSDOF 9
ENDMDL
