MODEL 1
REMARK VINA RESULT:      -8.5      0.000      0.000
REMARK  Name = 25314288
REMARK  6 active torsions:
REMARK  status: ('A' for Active; 'I' for Inactive)
REMARK    1  A    between atoms: O_6  and  C_14
REMARK    2  A    between atoms: N_9  and  C_13
REMARK    3  A    between atoms: N_10  and  C_15
REMARK    4  A    between atoms: N_12  and  C_26
REMARK    5  A    between atoms: C_24  and  C_25
REMARK    6  A    between atoms: C_29  and  C_32
REMARK                            x       y       z     vdW  Elec       q    Type
REMARK                         _______ _______ _______ _____ _____    ______ ____
ROOT
ATOM      4  O   UNL     1      12.961   9.122  19.077  0.00  0.00    -0.342 OA
ATOM      5  O   UNL     1      11.094   7.949  18.357  0.00  0.00    -0.347 OA
ATOM     13  C   UNL     1      11.371   8.363  20.724  0.00  0.00    +0.144 C 
ATOM     14  C   UNL     1      12.144   7.035  20.887  0.00  0.00    +0.159 C 
ATOM     15  C   UNL     1      13.458   6.985  20.076  0.00  0.00    +0.136 C 
ATOM     16  C   UNL     1      13.393   7.794  18.765  0.00  0.00    +0.170 C 
ATOM     17  C   UNL     1      11.558   8.926  19.303  0.00  0.00    +0.270 C 
ATOM     18  C   UNL     1      12.288   7.359  17.821  0.00  0.00    +0.196 C 
ENDROOT
BRANCH  13   9
ATOM      8  O   UNL     1      10.187  12.805  24.782  0.00  0.00    -0.276 OA
ATOM      9  N   UNL     1      11.834   9.341  21.710  0.00  0.00    -0.290 NA
ATOM     11  N   UNL     1      11.630  11.682  23.349  0.00  0.00    -0.299 N 
ATOM     19  C   UNL     1      10.945   9.357  22.880  0.00  0.00    +0.104 C 
ATOM     20  C   UNL     1      11.917  10.680  21.109  0.00  0.00    +0.104 C 
ATOM     21  C   UNL     1      11.444  10.351  23.927  0.00  0.00    +0.123 C 
ATOM     22  C   UNL     1      12.430  11.705  22.122  0.00  0.00    +0.123 C 
ATOM     24  C   UNL     1      11.165  12.805  24.031  0.00  0.00    +0.213 C 
ATOM     25  C   UNL     1      11.926  14.089  23.811  0.00  0.00    +0.109 C 
ENDBRANCH  13   9
BRANCH  15  10
ATOM      7  O   UNL     1      16.245   6.537  19.592  0.00  0.00    -0.252 OA
ATOM     10  N   UNL     1      14.562   7.452  20.886  0.00  0.00    -0.291 N 
ATOM     12  N   UNL     1      16.740   7.761  21.533  0.00  0.00    -0.269 N 
ATOM     23  C   UNL     1      15.898   7.187  20.575  0.00  0.00    +0.304 C 
ATOM     33  H   UNL     1      14.352   7.927  21.758  0.00  0.00    +0.151 HD
ATOM     35  H   UNL     1      16.289   8.270  22.289  0.00  0.00    +0.156 HD
BRANCH  12  26
ATOM     26  C   UNL     1      18.152   7.724  21.582  0.00  0.00    +0.035 A 
ATOM     27  C   UNL     1      18.831   6.554  21.242  0.00  0.00    +0.035 A 
ATOM     28  C   UNL     1      18.867   8.857  21.969  0.00  0.00    +0.023 A 
ATOM     29  C   UNL     1      20.224   6.516  21.290  0.00  0.00    +0.057 A 
ATOM     30  C   UNL     1      20.261   8.820  22.017  0.00  0.00    +0.002 A 
ATOM     31  C   UNL     1      20.939   7.650  21.677  0.00  0.00    +0.012 A 
BRANCH  29  32
ATOM      1  F   UNL     1      21.374   4.568  22.020  0.00  0.00    -0.166 F 
ATOM      2  F   UNL     1      20.199   4.387  20.201  0.00  0.00    -0.166 F 
ATOM      3  F   UNL     1      22.070   5.483  20.175  0.00  0.00    -0.166 F 
ATOM     32  C   UNL     1      20.951   5.265  20.928  0.00  0.00    +0.417 C 
ENDBRANCH  29  32
ENDBRANCH  12  26
ENDBRANCH  15  10
BRANCH  14   6
ATOM      6  O   UNL     1      11.289   5.973  20.445  0.00  0.00    -0.388 OA
ATOM     34  H   UNL     1      11.857   5.254  20.120  0.00  0.00    +0.210 HD
ENDBRANCH  14   6
TORSDOF 5
ENDMDL
MODEL 2
REMARK VINA RESULT:      -8.1     15.611     18.954
REMARK  Name = 25314288
REMARK  6 active torsions:
REMARK  status: ('A' for Active; 'I' for Inactive)
REMARK    1  A    between atoms: O_6  and  C_14
REMARK    2  A    between atoms: N_9  and  C_13
REMARK    3  A    between atoms: N_10  and  C_15
REMARK    4  A    between atoms: N_12  and  C_26
REMARK    5  A    between atoms: C_24  and  C_25
REMARK    6  A    between atoms: C_29  and  C_32
REMARK                            x       y       z     vdW  Elec       q    Type
REMARK                         _______ _______ _______ _____ _____    ______ ____
ROOT
ATOM      4  O   UNL     1      14.534   4.063   1.706  0.00  0.00    -0.342 OA
ATOM      5  O   UNL     1      14.076   4.059  -0.568  0.00  0.00    -0.347 OA
ATOM     13  C   UNL     1      14.179   6.175   0.598  0.00  0.00    +0.144 C 
ATOM     14  C   UNL     1      12.666   6.104   0.904  0.00  0.00    +0.159 C 
ATOM     15  C   UNL     1      12.272   4.895   1.781  0.00  0.00    +0.136 C 
ATOM     16  C   UNL     1      13.169   3.662   1.553  0.00  0.00    +0.170 C 
ATOM     17  C   UNL     1      14.772   4.760   0.476  0.00  0.00    +0.270 C 
ATOM     18  C   UNL     1      13.187   3.165   0.119  0.00  0.00    +0.196 C 
ENDROOT
BRANCH  13   9
ATOM      8  O   UNL     1      15.819  11.487   3.185  0.00  0.00    -0.276 OA
ATOM      9  N   UNL     1      14.872   6.914   1.655  0.00  0.00    -0.290 NA
ATOM     11  N   UNL     1      16.110   9.208   2.844  0.00  0.00    -0.299 N 
ATOM     19  C   UNL     1      14.057   8.048   2.113  0.00  0.00    +0.104 C 
ATOM     20  C   UNL     1      16.183   7.382   1.181  0.00  0.00    +0.104 C 
ATOM     21  C   UNL     1      14.762   8.802   3.240  0.00  0.00    +0.123 C 
ATOM     22  C   UNL     1      16.931   8.129   2.287  0.00  0.00    +0.123 C 
ATOM     24  C   UNL     1      16.555  10.500   3.121  0.00  0.00    +0.213 C 
ATOM     25  C   UNL     1      18.037  10.669   3.347  0.00  0.00    +0.109 C 
ENDBRANCH  13   9
BRANCH  15  10
ATOM      7  O   UNL     1      10.018   5.586   3.408  0.00  0.00    -0.252 OA
ATOM     10  N   UNL     1      12.296   5.265   3.180  0.00  0.00    -0.291 N 
ATOM     12  N   UNL     1      11.473   5.904   5.223  0.00  0.00    -0.269 N 
ATOM     23  C   UNL     1      11.143   5.589   3.900  0.00  0.00    +0.304 C 
ATOM     33  H   UNL     1      13.197   5.367   3.635  0.00  0.00    +0.151 HD
ATOM     35  H   UNL     1      12.458   5.856   5.470  0.00  0.00    +0.156 HD
BRANCH  12  26
ATOM     26  C   UNL     1      10.600   6.282   6.268  0.00  0.00    +0.035 A 
ATOM     27  C   UNL     1      10.400   5.429   7.353  0.00  0.00    +0.035 A 
ATOM     28  C   UNL     1       9.939   7.510   6.215  0.00  0.00    +0.023 A 
ATOM     29  C   UNL     1       9.539   5.802   8.385  0.00  0.00    +0.057 A 
ATOM     30  C   UNL     1       9.078   7.884   7.247  0.00  0.00    +0.002 A 
ATOM     31  C   UNL     1       8.878   7.030   8.332  0.00  0.00    +0.012 A 
BRANCH  29  32
ATOM      1  F   UNL     1       9.218   3.582   9.174  0.00  0.00    -0.166 F 
ATOM      2  F   UNL     1      10.332   4.929  10.465  0.00  0.00    -0.166 F 
ATOM      3  F   UNL     1       8.187   5.164  10.251  0.00  0.00    -0.166 F 
ATOM     32  C   UNL     1       9.323   4.890   9.545  0.00  0.00    +0.417 C 
ENDBRANCH  29  32
ENDBRANCH  12  26
ENDBRANCH  15  10
BRANCH  14   6
ATOM      6  O   UNL     1      11.970   6.013  -0.346  0.00  0.00    -0.388 OA
ATOM     34  H   UNL     1      11.795   6.919  -0.652  0.00  0.00    +0.210 HD
ENDBRANCH  14   6
TORSDOF 5
ENDMDL
MODEL 3
REMARK VINA RESULT:      -7.8      5.587      8.261
REMARK  Name = 25314288
REMARK  6 active torsions:
REMARK  status: ('A' for Active; 'I' for Inactive)
REMARK    1  A    between atoms: O_6  and  C_14
REMARK    2  A    between atoms: N_9  and  C_13
REMARK    3  A    between atoms: N_10  and  C_15
REMARK    4  A    between atoms: N_12  and  C_26
REMARK    5  A    between atoms: C_24  and  C_25
REMARK    6  A    between atoms: C_29  and  C_32
REMARK                            x       y       z     vdW  Elec       q    Type
REMARK                         _______ _______ _______ _____ _____    ______ ____
ROOT
ATOM      4  O   UNL     1      12.823   9.163  21.275  0.00  0.00    -0.342 OA
ATOM      5  O   UNL     1      11.600   7.258  21.780  0.00  0.00    -0.347 OA
ATOM     13  C   UNL     1      13.723   7.016  20.647  0.00  0.00    +0.144 C 
ATOM     14  C   UNL     1      13.022   7.102  19.272  0.00  0.00    +0.159 C 
ATOM     15  C   UNL     1      12.304   8.448  19.031  0.00  0.00    +0.136 C 
ATOM     16  C   UNL     1      11.756   9.084  20.325  0.00  0.00    +0.170 C 
ATOM     17  C   UNL     1      12.929   7.800  21.707  0.00  0.00    +0.270 C 
ATOM     18  C   UNL     1      10.777   8.204  21.081  0.00  0.00    +0.196 C 
ENDROOT
BRANCH  13   9
ATOM      8  O   UNL     1      19.712   6.558  21.876  0.00  0.00    -0.276 OA
ATOM      9  N   UNL     1      15.084   7.546  20.553  0.00  0.00    -0.290 NA
ATOM     11  N   UNL     1      17.835   7.804  21.311  0.00  0.00    -0.299 N 
ATOM     19  C   UNL     1      16.041   6.468  20.267  0.00  0.00    +0.104 C 
ATOM     20  C   UNL     1      15.452   8.243  21.794  0.00  0.00    +0.104 C 
ATOM     21  C   UNL     1      17.458   7.022  20.134  0.00  0.00    +0.123 C 
ATOM     22  C   UNL     1      16.862   8.829  21.696  0.00  0.00    +0.123 C 
ATOM     24  C   UNL     1      19.089   7.622  21.893  0.00  0.00    +0.213 C 
ATOM     25  C   UNL     1      19.692   8.820  22.583  0.00  0.00    +0.109 C 
ENDBRANCH  13   9
BRANCH  15  10
ATOM      7  O   UNL     1      12.378   9.051  16.232  0.00  0.00    -0.252 OA
ATOM     10  N   UNL     1      13.196   9.377  18.369  0.00  0.00    -0.291 N 
ATOM     12  N   UNL     1      14.135  10.553  16.640  0.00  0.00    -0.269 N 
ATOM     23  C   UNL     1      13.163   9.611  16.993  0.00  0.00    +0.304 C 
ATOM     33  H   UNL     1      13.925   9.818  18.920  0.00  0.00    +0.151 HD
ATOM     35  H   UNL     1      14.706  10.923  17.395  0.00  0.00    +0.156 HD
BRANCH  12  26
ATOM     26  C   UNL     1      14.425  11.061  15.353  0.00  0.00    +0.035 A 
ATOM     27  C   UNL     1      13.421  11.668  14.600  0.00  0.00    +0.035 A 
ATOM     28  C   UNL     1      15.717  10.955  14.836  0.00  0.00    +0.023 A 
ATOM     29  C   UNL     1      13.707  12.169  13.330  0.00  0.00    +0.057 A 
ATOM     30  C   UNL     1      16.004  11.457  13.567  0.00  0.00    +0.002 A 
ATOM     31  C   UNL     1      14.999  12.063  12.814  0.00  0.00    +0.012 A 
BRANCH  29  32
ATOM      1  F   UNL     1      12.234  12.052  11.468  0.00  0.00    -0.166 F 
ATOM      2  F   UNL     1      11.498  13.081  13.235  0.00  0.00    -0.166 F 
ATOM      3  F   UNL     1      13.003  14.018  11.987  0.00  0.00    -0.166 F 
ATOM     32  C   UNL     1      12.634  12.818  12.523  0.00  0.00    +0.417 C 
ENDBRANCH  29  32
ENDBRANCH  12  26
ENDBRANCH  15  10
BRANCH  14   6
ATOM      6  O   UNL     1      12.055   6.046  19.206  0.00  0.00    -0.388 OA
ATOM     34  H   UNL     1      11.179   6.456  19.106  0.00  0.00    +0.210 HD
ENDBRANCH  14   6
TORSDOF 5
ENDMDL
MODEL 4
REMARK VINA RESULT:      -7.7     27.949     29.915
REMARK  Name = 25314288
REMARK  6 active torsions:
REMARK  status: ('A' for Active; 'I' for Inactive)
REMARK    1  A    between atoms: O_6  and  C_14
REMARK    2  A    between atoms: N_9  and  C_13
REMARK    3  A    between atoms: N_10  and  C_15
REMARK    4  A    between atoms: N_12  and  C_26
REMARK    5  A    between atoms: C_24  and  C_25
REMARK    6  A    between atoms: C_29  and  C_32
REMARK                            x       y       z     vdW  Elec       q    Type
REMARK                         _______ _______ _______ _____ _____    ______ ____
ROOT
ATOM      4  O   UNL     1      -9.502 -12.381  18.004  0.00  0.00    -0.342 OA
ATOM      5  O   UNL     1      -9.019 -11.927  20.227  0.00  0.00    -0.347 OA
ATOM     13  C   UNL     1      -9.288 -10.079  18.690  0.00  0.00    +0.144 C 
ATOM     14  C   UNL     1      -7.777 -10.102  18.365  0.00  0.00    +0.159 C 
ATOM     15  C   UNL     1      -7.308 -11.425  17.719  0.00  0.00    +0.136 C 
ATOM     16  C   UNL     1      -8.111 -12.652  18.196  0.00  0.00    +0.170 C 
ATOM     17  C   UNL     1      -9.776 -11.483  19.089  0.00  0.00    +0.270 C 
ATOM     18  C   UNL     1      -8.076 -12.870  19.698  0.00  0.00    +0.196 C 
ENDROOT
BRANCH  13   9
ATOM      8  O   UNL     1     -11.597  -5.469  15.372  0.00  0.00    -0.276 OA
ATOM      9  N   UNL     1     -10.045  -9.601  17.532  0.00  0.00    -0.290 NA
ATOM     11  N   UNL     1     -11.563  -7.698  16.019  0.00  0.00    -0.299 N 
ATOM     19  C   UNL     1      -9.389  -8.429  16.933  0.00  0.00    +0.104 C 
ATOM     20  C   UNL     1     -11.425  -9.275  17.918  0.00  0.00    +0.104 C 
ATOM     21  C   UNL     1     -10.157  -7.948  15.703  0.00  0.00    +0.123 C 
ATOM     22  C   UNL     1     -12.236  -8.804  16.709  0.00  0.00    +0.123 C 
ATOM     24  C   UNL     1     -12.183  -6.537  15.561  0.00  0.00    +0.213 C 
ATOM     25  C   UNL     1     -13.664  -6.624  15.292  0.00  0.00    +0.109 C 
ENDBRANCH  13   9
BRANCH  15  10
ATOM      7  O   UNL     1      -5.442 -10.086  16.007  0.00  0.00    -0.252 OA
ATOM     10  N   UNL     1      -7.374 -11.326  16.277  0.00  0.00    -0.291 N 
ATOM     12  N   UNL     1      -6.741 -10.722  14.158  0.00  0.00    -0.269 N 
ATOM     23  C   UNL     1      -6.417 -10.651  15.516  0.00  0.00    +0.304 C 
ATOM     33  H   UNL     1      -8.193 -11.699  15.807  0.00  0.00    +0.151 HD
ATOM     35  H   UNL     1      -7.588 -11.232  13.918  0.00  0.00    +0.156 HD
BRANCH  12  26
ATOM     26  C   UNL     1      -6.033 -10.171  13.066  0.00  0.00    +0.035 A 
ATOM     27  C   UNL     1      -4.681 -10.466  12.891  0.00  0.00    +0.035 A 
ATOM     28  C   UNL     1      -6.686  -9.332  12.163  0.00  0.00    +0.023 A 
ATOM     29  C   UNL     1      -3.982  -9.923  11.814  0.00  0.00    +0.057 A 
ATOM     30  C   UNL     1      -5.987  -8.788  11.085  0.00  0.00    +0.002 A 
ATOM     31  C   UNL     1      -4.635  -9.083  10.910  0.00  0.00    +0.012 A 
BRANCH  29  32
ATOM      1  F   UNL     1      -2.317 -11.554  11.346  0.00  0.00    -0.166 F 
ATOM      2  F   UNL     1      -1.955  -9.545  10.602  0.00  0.00    -0.166 F 
ATOM      3  F   UNL     1      -1.770  -9.962  12.722  0.00  0.00    -0.166 F 
ATOM     32  C   UNL     1      -2.536 -10.237  11.626  0.00  0.00    +0.417 C 
ENDBRANCH  29  32
ENDBRANCH  12  26
ENDBRANCH  15  10
BRANCH  14   6
ATOM      6  O   UNL     1      -7.062  -9.909  19.592  0.00  0.00    -0.388 OA
ATOM     34  H   UNL     1      -6.961  -8.952  19.727  0.00  0.00    +0.210 HD
ENDBRANCH  14   6
TORSDOF 5
ENDMDL
MODEL 5
REMARK VINA RESULT:      -7.7      2.163      2.594
REMARK  Name = 25314288
REMARK  6 active torsions:
REMARK  status: ('A' for Active; 'I' for Inactive)
REMARK    1  A    between atoms: O_6  and  C_14
REMARK    2  A    between atoms: N_9  and  C_13
REMARK    3  A    between atoms: N_10  and  C_15
REMARK    4  A    between atoms: N_12  and  C_26
REMARK    5  A    between atoms: C_24  and  C_25
REMARK    6  A    between atoms: C_29  and  C_32
REMARK                            x       y       z     vdW  Elec       q    Type
REMARK                         _______ _______ _______ _____ _____    ______ ____
ROOT
ATOM      4  O   UNL     1      13.076   9.430  18.138  0.00  0.00    -0.342 OA
ATOM      5  O   UNL     1      11.021   8.361  18.248  0.00  0.00    -0.347 OA
ATOM     13  C   UNL     1      12.237   8.765  20.299  0.00  0.00    +0.144 C 
ATOM     14  C   UNL     1      12.944   7.396  20.174  0.00  0.00    +0.159 C 
ATOM     15  C   UNL     1      13.822   7.271  18.909  0.00  0.00    +0.136 C 
ATOM     16  C   UNL     1      13.281   8.079  17.713  0.00  0.00    +0.170 C 
ATOM     17  C   UNL     1      11.872   9.313  18.908  0.00  0.00    +0.270 C 
ATOM     18  C   UNL     1      11.871   7.703  17.296  0.00  0.00    +0.196 C 
ENDROOT
BRANCH  13   9
ATOM      8  O   UNL     1      14.410  11.166  25.505  0.00  0.00    -0.276 OA
ATOM      9  N   UNL     1      13.104   9.718  20.995  0.00  0.00    -0.290 NA
ATOM     11  N   UNL     1      13.985  11.286  23.226  0.00  0.00    -0.299 N 
ATOM     19  C   UNL     1      13.757   9.077  22.146  0.00  0.00    +0.104 C 
ATOM     20  C   UNL     1      12.333  10.892  21.430  0.00  0.00    +0.104 C 
ATOM     21  C   UNL     1      14.689  10.059  22.854  0.00  0.00    +0.123 C 
ATOM     22  C   UNL     1      13.235  11.909  22.132  0.00  0.00    +0.123 C 
ATOM     24  C   UNL     1      14.161  11.830  24.497  0.00  0.00    +0.213 C 
ATOM     25  C   UNL     1      14.025  13.327  24.614  0.00  0.00    +0.109 C 
ENDBRANCH  13   9
BRANCH  15  10
ATOM      7  O   UNL     1      15.743   5.829  20.471  0.00  0.00    -0.252 OA
ATOM     10  N   UNL     1      15.180   7.678  19.202  0.00  0.00    -0.291 N 
ATOM     12  N   UNL     1      17.290   7.553  20.088  0.00  0.00    -0.269 N 
ATOM     23  C   UNL     1      16.053   6.910  19.976  0.00  0.00    +0.304 C 
ATOM     33  H   UNL     1      15.483   8.596  18.895  0.00  0.00    +0.151 HD
ATOM     35  H   UNL     1      17.383   8.447  19.615  0.00  0.00    +0.156 HD
BRANCH  12  26
ATOM     26  C   UNL     1      18.438   7.110  20.784  0.00  0.00    +0.035 A 
ATOM     27  C   UNL     1      18.869   7.789  21.923  0.00  0.00    +0.035 A 
ATOM     28  C   UNL     1      19.141   5.993  20.331  0.00  0.00    +0.023 A 
ATOM     29  C   UNL     1      20.001   7.352  22.610  0.00  0.00    +0.057 A 
ATOM     30  C   UNL     1      20.273   5.555  21.018  0.00  0.00    +0.002 A 
ATOM     31  C   UNL     1      20.704   6.234  22.157  0.00  0.00    +0.012 A 
BRANCH  29  32
ATOM      1  F   UNL     1      21.814   8.266  23.847  0.00  0.00    -0.166 F 
ATOM      2  F   UNL     1      19.918   9.322  23.963  0.00  0.00    -0.166 F 
ATOM      3  F   UNL     1      20.167   7.431  24.994  0.00  0.00    -0.166 F 
ATOM     32  C   UNL     1      20.463   8.077  23.829  0.00  0.00    +0.417 C 
ENDBRANCH  29  32
ENDBRANCH  12  26
ENDBRANCH  15  10
BRANCH  14   6
ATOM      6  O   UNL     1      11.932   6.382  20.135  0.00  0.00    -0.388 OA
ATOM     34  H   UNL     1      11.452   6.413  20.980  0.00  0.00    +0.210 HD
ENDBRANCH  14   6
TORSDOF 5
ENDMDL
MODEL 6
REMARK VINA RESULT:      -7.6     16.137     19.081
REMARK  Name = 25314288
REMARK  6 active torsions:
REMARK  status: ('A' for Active; 'I' for Inactive)
REMARK    1  A    between atoms: O_6  and  C_14
REMARK    2  A    between atoms: N_9  and  C_13
REMARK    3  A    between atoms: N_10  and  C_15
REMARK    4  A    between atoms: N_12  and  C_26
REMARK    5  A    between atoms: C_24  and  C_25
REMARK    6  A    between atoms: C_29  and  C_32
REMARK                            x       y       z     vdW  Elec       q    Type
REMARK                         _______ _______ _______ _____ _____    ______ ____
ROOT
ATOM      4  O   UNL     1      10.441   8.417   5.662  0.00  0.00    -0.342 OA
ATOM      5  O   UNL     1       9.839   7.975   7.858  0.00  0.00    -0.347 OA
ATOM     13  C   UNL     1      12.165   7.780   7.224  0.00  0.00    +0.144 C 
ATOM     14  C   UNL     1      11.965   6.290   6.868  0.00  0.00    +0.159 C 
ATOM     15  C   UNL     1      10.955   6.062   5.722  0.00  0.00    +0.136 C 
ATOM     16  C   UNL     1       9.835   7.121   5.680  0.00  0.00    +0.170 C 
ATOM     17  C   UNL     1      10.854   8.563   7.028  0.00  0.00    +0.270 C 
ATOM     18  C   UNL     1       9.021   7.214   6.957  0.00  0.00    +0.196 C 
ENDROOT
BRANCH  13   9
ATOM      8  O   UNL     1      18.070   9.138   6.282  0.00  0.00    -0.276 OA
ATOM      9  N   UNL     1      13.219   8.361   6.390  0.00  0.00    -0.290 NA
ATOM     11  N   UNL     1      15.810   9.466   5.863  0.00  0.00    -0.299 N 
ATOM     19  C   UNL     1      14.411   7.501   6.390  0.00  0.00    +0.104 C 
ATOM     20  C   UNL     1      13.560   9.712   6.856  0.00  0.00    +0.104 C 
ATOM     21  C   UNL     1      15.501   8.085   5.493  0.00  0.00    +0.123 C 
ATOM     22  C   UNL     1      14.639  10.341   5.972  0.00  0.00    +0.123 C 
ATOM     24  C   UNL     1      17.137   9.878   5.962  0.00  0.00    +0.213 C 
ATOM     25  C   UNL     1      17.418  11.329   5.657  0.00  0.00    +0.109 C 
ENDBRANCH  13   9
BRANCH  15  10
ATOM      7  O   UNL     1      10.305   4.420   3.466  0.00  0.00    -0.252 OA
ATOM     10  N   UNL     1      11.644   6.027   4.449  0.00  0.00    -0.291 N 
ATOM     12  N   UNL     1      12.105   5.375   2.301  0.00  0.00    -0.269 N 
ATOM     23  C   UNL     1      11.258   5.192   3.398  0.00  0.00    +0.304 C 
ATOM     33  H   UNL     1      12.490   6.579   4.346  0.00  0.00    +0.151 HD
ATOM     35  H   UNL     1      12.850   6.057   2.409  0.00  0.00    +0.156 HD
BRANCH  12  26
ATOM     26  C   UNL     1      12.054   4.724   1.047  0.00  0.00    +0.035 A 
ATOM     27  C   UNL     1      11.076   5.077   0.117  0.00  0.00    +0.035 A 
ATOM     28  C   UNL     1      12.982   3.728   0.739  0.00  0.00    +0.023 A 
ATOM     29  C   UNL     1      11.025   4.435  -1.120  0.00  0.00    +0.057 A 
ATOM     30  C   UNL     1      12.931   3.087  -0.499  0.00  0.00    +0.002 A 
ATOM     31  C   UNL     1      11.953   3.439  -1.428  0.00  0.00    +0.012 A 
BRANCH  29  32
ATOM      1  F   UNL     1      10.385   5.807  -2.953  0.00  0.00    -0.166 F 
ATOM      2  F   UNL     1       9.603   3.780  -2.928  0.00  0.00    -0.166 F 
ATOM      3  F   UNL     1       8.820   5.258  -1.548  0.00  0.00    -0.166 F 
ATOM     32  C   UNL     1       9.979   4.811  -2.115  0.00  0.00    +0.417 C 
ENDBRANCH  29  32
ENDBRANCH  12  26
ENDBRANCH  15  10
BRANCH  14   6
ATOM      6  O   UNL     1      11.488   5.619   8.042  0.00  0.00    -0.388 OA
ATOM     34  H   UNL     1      10.786   5.006   7.766  0.00  0.00    +0.210 HD
ENDBRANCH  14   6
TORSDOF 5
ENDMDL
MODEL 7
REMARK VINA RESULT:      -7.6      4.800      7.699
REMARK  Name = 25314288
REMARK  6 active torsions:
REMARK  status: ('A' for Active; 'I' for Inactive)
REMARK    1  A    between atoms: O_6  and  C_14
REMARK    2  A    between atoms: N_9  and  C_13
REMARK    3  A    between atoms: N_10  and  C_15
REMARK    4  A    between atoms: N_12  and  C_26
REMARK    5  A    between atoms: C_24  and  C_25
REMARK    6  A    between atoms: C_29  and  C_32
REMARK                            x       y       z     vdW  Elec       q    Type
REMARK                         _______ _______ _______ _____ _____    ______ ____
ROOT
ATOM      4  O   UNL     1      13.294   9.003  21.316  0.00  0.00    -0.342 OA
ATOM      5  O   UNL     1      11.873   7.207  21.689  0.00  0.00    -0.347 OA
ATOM     13  C   UNL     1      13.909   6.843  20.435  0.00  0.00    +0.144 C 
ATOM     14  C   UNL     1      13.174   7.152  19.111  0.00  0.00    +0.159 C 
ATOM     15  C   UNL     1      12.612   8.589  19.040  0.00  0.00    +0.136 C 
ATOM     16  C   UNL     1      12.190   9.145  20.415  0.00  0.00    +0.170 C 
ATOM     17  C   UNL     1      13.253   7.599  21.605  0.00  0.00    +0.270 C 
ATOM     18  C   UNL     1      11.143   8.308  21.128  0.00  0.00    +0.196 C 
ENDROOT
BRANCH  13   9
ATOM      8  O   UNL     1      19.850   5.332  20.530  0.00  0.00    -0.276 OA
ATOM      9  N   UNL     1      15.319   7.222  20.328  0.00  0.00    -0.290 NA
ATOM     11  N   UNL     1      18.140   6.891  20.711  0.00  0.00    -0.299 N 
ATOM     19  C   UNL     1      16.066   6.223  19.551  0.00  0.00    +0.104 C 
ATOM     20  C   UNL     1      15.912   7.382  21.664  0.00  0.00    +0.104 C 
ATOM     21  C   UNL     1      17.530   6.632  19.407  0.00  0.00    +0.123 C 
ATOM     22  C   UNL     1      17.378   7.809  21.565  0.00  0.00    +0.123 C 
ATOM     24  C   UNL     1      19.402   6.379  21.003  0.00  0.00    +0.213 C 
ATOM     25  C   UNL     1      20.248   7.175  21.965  0.00  0.00    +0.109 C 
ENDBRANCH  13   9
BRANCH  15  10
ATOM      7  O   UNL     1      12.686   9.422  16.301  0.00  0.00    -0.252 OA
ATOM     10  N   UNL     1      13.582   9.474  18.431  0.00  0.00    -0.291 N 
ATOM     12  N   UNL     1      14.602  10.692  16.778  0.00  0.00    -0.269 N 
ATOM     23  C   UNL     1      13.543   9.829  17.081  0.00  0.00    +0.304 C 
ATOM     33  H   UNL     1      14.367   9.787  18.993  0.00  0.00    +0.151 HD
ATOM     35  H   UNL     1      15.226  10.933  17.543  0.00  0.00    +0.156 HD
BRANCH  12  26
ATOM     26  C   UNL     1      14.915  11.277  15.530  0.00  0.00    +0.035 A 
ATOM     27  C   UNL     1      16.247  11.479  15.169  0.00  0.00    +0.035 A 
ATOM     28  C   UNL     1      13.892  11.652  14.658  0.00  0.00    +0.023 A 
ATOM     29  C   UNL     1      16.557  12.056  13.938  0.00  0.00    +0.057 A 
ATOM     30  C   UNL     1      14.202  12.228  13.426  0.00  0.00    +0.002 A 
ATOM     31  C   UNL     1      15.533  12.430  13.066  0.00  0.00    +0.012 A 
BRANCH  29  32
ATOM      1  F   UNL     1      18.187  12.139  12.209  0.00  0.00    -0.166 F 
ATOM      2  F   UNL     1      18.451  13.515  13.871  0.00  0.00    -0.166 F 
ATOM      3  F   UNL     1      18.848  11.400  14.144  0.00  0.00    -0.166 F 
ATOM     32  C   UNL     1      17.981  12.273  13.551  0.00  0.00    +0.417 C 
ENDBRANCH  29  32
ENDBRANCH  12  26
ENDBRANCH  15  10
BRANCH  14   6
ATOM      6  O   UNL     1      12.086   6.226  18.988  0.00  0.00    -0.388 OA
ATOM     34  H   UNL     1      11.269   6.743  18.895  0.00  0.00    +0.210 HD
ENDBRANCH  14   6
TORSDOF 5
ENDMDL
MODEL 8
REMARK VINA RESULT:      -7.6     17.531     21.180
REMARK  Name = 25314288
REMARK  6 active torsions:
REMARK  status: ('A' for Active; 'I' for Inactive)
REMARK    1  A    between atoms: O_6  and  C_14
REMARK    2  A    between atoms: N_9  and  C_13
REMARK    3  A    between atoms: N_10  and  C_15
REMARK    4  A    between atoms: N_12  and  C_26
REMARK    5  A    between atoms: C_24  and  C_25
REMARK    6  A    between atoms: C_29  and  C_32
REMARK                            x       y       z     vdW  Elec       q    Type
REMARK                         _______ _______ _______ _____ _____    ______ ____
ROOT
ATOM      4  O   UNL     1      13.824   7.548   0.335  0.00  0.00    -0.342 OA
ATOM      5  O   UNL     1      16.039   7.183  -0.250  0.00  0.00    -0.347 OA
ATOM     13  C   UNL     1      14.421   5.432  -0.656  0.00  0.00    +0.144 C 
ATOM     14  C   UNL     1      14.690   4.830   0.742  0.00  0.00    +0.159 C 
ATOM     15  C   UNL     1      14.338   5.788   1.901  0.00  0.00    +0.136 C 
ATOM     16  C   UNL     1      14.540   7.275   1.544  0.00  0.00    +0.170 C 
ATOM     17  C   UNL     1      14.679   6.950  -0.650  0.00  0.00    +0.270 C 
ATOM     18  C   UNL     1      15.953   7.623   1.114  0.00  0.00    +0.196 C 
ENDROOT
BRANCH  13   9
ATOM      8  O   UNL     1      10.156   1.598  -2.825  0.00  0.00    -0.276 OA
ATOM      9  N   UNL     1      13.040   5.165  -1.063  0.00  0.00    -0.290 NA
ATOM     11  N   UNL     1      10.954   3.740  -2.415  0.00  0.00    -0.299 N 
ATOM     19  C   UNL     1      12.607   3.844  -0.583  0.00  0.00    +0.104 C 
ATOM     20  C   UNL     1      12.908   5.250  -2.524  0.00  0.00    +0.104 C 
ATOM     21  C   UNL     1      11.155   3.576  -0.975  0.00  0.00    +0.123 C 
ATOM     22  C   UNL     1      11.461   5.003  -2.958  0.00  0.00    +0.123 C 
ATOM     24  C   UNL     1      10.221   2.792  -3.126  0.00  0.00    +0.213 C 
ATOM     25  C   UNL     1       9.474   3.289  -4.339  0.00  0.00    +0.109 C 
ENDBRANCH  13   9
BRANCH  15  10
ATOM      7  O   UNL     1      13.063   6.930   4.198  0.00  0.00    -0.252 OA
ATOM     10  N   UNL     1      12.973   5.569   2.332  0.00  0.00    -0.291 N 
ATOM     12  N   UNL     1      11.099   5.774   3.635  0.00  0.00    -0.269 N 
ATOM     23  C   UNL     1      12.430   6.169   3.470  0.00  0.00    +0.304 C 
ATOM     33  H   UNL     1      12.413   4.891   1.826  0.00  0.00    +0.151 HD
ATOM     35  H   UNL     1      10.723   5.136   2.939  0.00  0.00    +0.156 HD
BRANCH  12  26
ATOM     26  C   UNL     1      10.200   6.155   4.658  0.00  0.00    +0.035 A 
ATOM     27  C   UNL     1      10.350   5.640   5.945  0.00  0.00    +0.035 A 
ATOM     28  C   UNL     1       9.164   7.047   4.380  0.00  0.00    +0.023 A 
ATOM     29  C   UNL     1       9.465   6.016   6.955  0.00  0.00    +0.057 A 
ATOM     30  C   UNL     1       8.278   7.424   5.390  0.00  0.00    +0.002 A 
ATOM     31  C   UNL     1       8.428   6.909   6.677  0.00  0.00    +0.012 A 
BRANCH  29  32
ATOM      1  F   UNL     1       8.692   5.951   9.203  0.00  0.00    -0.166 F 
ATOM      2  F   UNL     1       9.509   4.107   8.395  0.00  0.00    -0.166 F 
ATOM      3  F   UNL     1      10.835   5.748   8.897  0.00  0.00    -0.166 F 
ATOM     32  C   UNL     1       9.624   5.466   8.333  0.00  0.00    +0.417 C 
ENDBRANCH  29  32
ENDBRANCH  12  26
ENDBRANCH  15  10
BRANCH  14   6
ATOM      6  O   UNL     1      16.085   4.508   0.819  0.00  0.00    -0.388 OA
ATOM     34  H   UNL     1      16.176   3.734   1.401  0.00  0.00    +0.210 HD
ENDBRANCH  14   6
TORSDOF 5
ENDMDL
MODEL 9
REMARK VINA RESULT:      -7.6     27.345     29.947
REMARK  Name = 25314288
REMARK  6 active torsions:
REMARK  status: ('A' for Active; 'I' for Inactive)
REMARK    1  A    between atoms: O_6  and  C_14
REMARK    2  A    between atoms: N_9  and  C_13
REMARK    3  A    between atoms: N_10  and  C_15
REMARK    4  A    between atoms: N_12  and  C_26
REMARK    5  A    between atoms: C_24  and  C_25
REMARK    6  A    between atoms: C_29  and  C_32
REMARK                            x       y       z     vdW  Elec       q    Type
REMARK                         _______ _______ _______ _____ _____    ______ ____
ROOT
ATOM      4  O   UNL     1      -9.859 -12.488  17.311  0.00  0.00    -0.342 OA
ATOM      5  O   UNL     1     -10.984 -12.632  19.334  0.00  0.00    -0.347 OA
ATOM     13  C   UNL     1     -10.714 -10.462  18.301  0.00  0.00    +0.144 C 
ATOM     14  C   UNL     1      -9.382 -10.246  19.055  0.00  0.00    +0.159 C 
ATOM     15  C   UNL     1      -8.295 -11.281  18.692  0.00  0.00    +0.136 C 
ATOM     16  C   UNL     1      -8.871 -12.665  18.330  0.00  0.00    +0.170 C 
ATOM     17  C   UNL     1     -10.962 -11.963  18.063  0.00  0.00    +0.270 C 
ATOM     18  C   UNL     1      -9.712 -13.292  19.426  0.00  0.00    +0.196 C 
ENDROOT
BRANCH  13   9
ATOM      8  O   UNL     1     -11.892  -5.460  14.958  0.00  0.00    -0.276 OA
ATOM      9  N   UNL     1     -10.689  -9.754  17.020  0.00  0.00    -0.290 NA
ATOM     11  N   UNL     1     -11.479  -7.737  15.145  0.00  0.00    -0.299 N 
ATOM     19  C   UNL     1     -10.276  -8.356  17.210  0.00  0.00    +0.104 C 
ATOM     20  C   UNL     1     -12.006  -9.817  16.370  0.00  0.00    +0.104 C 
ATOM     21  C   UNL     1     -10.214  -7.623  15.871  0.00  0.00    +0.123 C 
ATOM     22  C   UNL     1     -11.983  -9.107  15.015  0.00  0.00    +0.123 C 
ATOM     24  C   UNL     1     -12.037  -6.611  14.542  0.00  0.00    +0.213 C 
ATOM     25  C   UNL     1     -12.870  -6.850  13.307  0.00  0.00    +0.109 C 
ENDBRANCH  13   9
BRANCH  15  10
ATOM      7  O   UNL     1      -5.532 -11.869  18.213  0.00  0.00    -0.252 OA
ATOM     10  N   UNL     1      -7.482 -10.788  17.600  0.00  0.00    -0.291 N 
ATOM     12  N   UNL     1      -5.612 -10.505  16.304  0.00  0.00    -0.269 N 
ATOM     23  C   UNL     1      -6.136 -11.127  17.442  0.00  0.00    +0.304 C 
ATOM     33  H   UNL     1      -7.889 -10.107  16.967  0.00  0.00    +0.151 HD
ATOM     35  H   UNL     1      -6.250  -9.920  15.771  0.00  0.00    +0.156 HD
BRANCH  12  26
ATOM     26  C   UNL     1      -4.295 -10.590  15.796  0.00  0.00    +0.035 A 
ATOM     27  C   UNL     1      -4.080 -10.628  14.419  0.00  0.00    +0.035 A 
ATOM     28  C   UNL     1      -3.212 -10.635  16.674  0.00  0.00    +0.023 A 
ATOM     29  C   UNL     1      -2.781 -10.711  13.918  0.00  0.00    +0.057 A 
ATOM     30  C   UNL     1      -1.912 -10.718  16.173  0.00  0.00    +0.002 A 
ATOM     31  C   UNL     1      -1.696 -10.756  14.796  0.00  0.00    +0.012 A 
BRANCH  29  32
ATOM      1  F   UNL     1      -2.264 -12.007  11.993  0.00  0.00    -0.166 F 
ATOM      2  F   UNL     1      -3.621 -10.332  11.711  0.00  0.00    -0.166 F 
ATOM      3  F   UNL     1      -1.508  -9.969  12.035  0.00  0.00    -0.166 F 
ATOM     32  C   UNL     1      -2.548 -10.752  12.446  0.00  0.00    +0.417 C 
ENDBRANCH  29  32
ENDBRANCH  12  26
ENDBRANCH  15  10
BRANCH  14   6
ATOM      6  O   UNL     1      -9.654 -10.337  20.459  0.00  0.00    -0.388 OA
ATOM     34  H   UNL     1      -8.801 -10.320  20.926  0.00  0.00    +0.210 HD
ENDBRANCH  14   6
TORSDOF 5
ENDMDL
MODEL 10
REMARK VINA RESULT:      -7.6     25.940     27.584
REMARK  Name = 25314288
REMARK  6 active torsions:
REMARK  status: ('A' for Active; 'I' for Inactive)
REMARK    1  A    between atoms: O_6  and  C_14
REMARK    2  A    between atoms: N_9  and  C_13
REMARK    3  A    between atoms: N_10  and  C_15
REMARK    4  A    between atoms: N_12  and  C_26
REMARK    5  A    between atoms: C_24  and  C_25
REMARK    6  A    between atoms: C_29  and  C_32
REMARK                            x       y       z     vdW  Elec       q    Type
REMARK                         _______ _______ _______ _____ _____    ______ ____
ROOT
ATOM      4  O   UNL     1      21.045  -6.147   2.036  0.00  0.00    -0.342 OA
ATOM      5  O   UNL     1      23.228  -6.142   1.251  0.00  0.00    -0.347 OA
ATOM     13  C   UNL     1      21.420  -6.426  -0.330  0.00  0.00    +0.144 C 
ATOM     14  C   UNL     1      21.483  -7.961  -0.159  0.00  0.00    +0.159 C 
ATOM     15  C   UNL     1      21.173  -8.433   1.278  0.00  0.00    +0.136 C 
ATOM     16  C   UNL     1      21.611  -7.422   2.357  0.00  0.00    +0.170 C 
ATOM     17  C   UNL     1      21.886  -5.720   0.956  0.00  0.00    +0.270 C 
ATOM     18  C   UNL     1      23.090  -7.083   2.326  0.00  0.00    +0.196 C 
ENDROOT
BRANCH  13   9
ATOM      8  O   UNL     1      17.197  -4.776  -4.458  0.00  0.00    -0.276 OA
ATOM      9  N   UNL     1      20.054  -6.011  -0.656  0.00  0.00    -0.290 NA
ATOM     11  N   UNL     1      18.008  -4.839  -2.283  0.00  0.00    -0.299 N 
ATOM     19  C   UNL     1      19.581  -6.695  -1.868  0.00  0.00    +0.104 C 
ATOM     20  C   UNL     1      19.985  -4.553  -0.829  0.00  0.00    +0.104 C 
ATOM     21  C   UNL     1      18.144  -6.292  -2.191  0.00  0.00    +0.123 C 
ATOM     22  C   UNL     1      18.556  -4.105  -1.139  0.00  0.00    +0.123 C 
ATOM     24  C   UNL     1      17.291  -4.273  -3.336  0.00  0.00    +0.213 C 
ATOM     25  C   UNL     1      16.605  -2.960  -3.057  0.00  0.00    +0.109 C 
ENDBRANCH  13   9
BRANCH  15  10
ATOM      7  O   UNL     1      19.981 -10.977   1.836  0.00  0.00    -0.252 OA
ATOM     10  N   UNL     1      19.760  -8.714   1.417  0.00  0.00    -0.291 N 
ATOM     12  N   UNL     1      17.867  -9.959   1.767  0.00  0.00    -0.269 N 
ATOM     23  C   UNL     1      19.263  -9.991   1.690  0.00  0.00    +0.304 C 
ATOM     33  H   UNL     1      19.100  -7.966   1.230  0.00  0.00    +0.151 HD
ATOM     35  H   UNL     1      17.423  -9.056   1.622  0.00  0.00    +0.156 HD
BRANCH  12  26
ATOM     26  C   UNL     1      16.987 -11.035   2.026  0.00  0.00    +0.035 A 
ATOM     27  C   UNL     1      16.570 -11.297   3.330  0.00  0.00    +0.035 A 
ATOM     28  C   UNL     1      16.536 -11.835   0.975  0.00  0.00    +0.023 A 
ATOM     29  C   UNL     1      15.701 -12.358   3.585  0.00  0.00    +0.057 A 
ATOM     30  C   UNL     1      15.667 -12.896   1.230  0.00  0.00    +0.002 A 
ATOM     31  C   UNL     1      15.250 -13.158   2.534  0.00  0.00    +0.012 A 
BRANCH  29  32
ATOM      1  F   UNL     1      15.846 -11.821   5.897  0.00  0.00    -0.166 F 
ATOM      2  F   UNL     1      13.910 -12.483   5.165  0.00  0.00    -0.166 F 
ATOM      3  F   UNL     1      15.524 -13.912   5.394  0.00  0.00    -0.166 F 
ATOM     32  C   UNL     1      15.254 -12.639   4.980  0.00  0.00    +0.417 C 
ENDBRANCH  29  32
ENDBRANCH  12  26
ENDBRANCH  15  10
BRANCH  14   6
ATOM      6  O   UNL     1      22.807  -8.385  -0.508  0.00  0.00    -0.388 OA
ATOM     34  H   UNL     1      23.261  -8.638   0.314  0.00  0.00    +0.210 HD
ENDBRANCH  14   6
TORSDOF 5
ENDMDL
