MODEL 1
REMARK VINA RESULT:      -6.8      0.000      0.000
REMARK  Name = 26745472
REMARK  9 active torsions:
REMARK  status: ('A' for Active; 'I' for Inactive)
REMARK    1  A    between atoms: S_2  and  N_7
REMARK    2  A    between atoms: S_2  and  C_15
REMARK    3  A    between atoms: O_5  and  C_16
REMARK    4  A    between atoms: O_5  and  C_24
REMARK    5  A    between atoms: N_8  and  C_17
REMARK    6  A    between atoms: C_10  and  C_16
REMARK    7  A    between atoms: C_15  and  C_19
REMARK    8  A    between atoms: C_17  and  C_20
REMARK    9  A    between atoms: C_19  and  C_21
REMARK                            x       y       z     vdW  Elec       q    Type
REMARK                         _______ _______ _______ _____ _____    ______ ____
ROOT
ATOM      7  N   UNL     1      14.260   7.454  20.492  0.00  0.00    -0.161 NA
ATOM      8  N   UNL     1      11.992   9.677  22.469  0.00  0.00    -0.328 N 
ATOM      9  N   UNL     1      10.450   8.123  22.021  0.00  0.00    -0.240 NA
ATOM     10  C   UNL     1      13.150   6.833  19.682  0.00  0.00    +0.194 C 
ATOM     11  C   UNL     1      13.964   8.797  21.112  0.00  0.00    +0.165 C 
ATOM     12  C   UNL     1      11.862   6.655  20.515  0.00  0.00    +0.089 C 
ATOM     13  C   UNL     1      12.587   8.773  21.641  0.00  0.00    +0.057 A 
ATOM     14  C   UNL     1      11.621   7.832  21.377  0.00  0.00    +0.066 A 
ATOM     18  C   UNL     1      10.706   9.241  22.670  0.00  0.00    +0.200 A 
ENDROOT
BRANCH   7   2
ATOM      2  S   UNL     1      15.851   7.262  19.886  0.00  0.00    +0.033 S 
ATOM      3  O   UNL     1      16.424   8.571  19.666  0.00  0.00    -0.158 OA
ATOM      4  O   UNL     1      15.834   6.254  18.849  0.00  0.00    -0.158 OA
BRANCH   2  15
ATOM     15  C   UNL     1      16.618   6.560  21.323  0.00  0.00    +0.185 C 
BRANCH  15  19
ATOM     19  C   UNL     1      18.091   6.927  21.400  0.00  0.00    +0.021 C 
ATOM     21  C   UNL     1      18.920   6.104  20.429  0.00  0.00    +0.005 C 
ENDBRANCH  15  19
ENDBRANCH   2  15
ENDBRANCH   7   2
BRANCH  10  16
ATOM      6  O   UNL     1      13.758   8.407  17.970  0.00  0.00    -0.249 OA
ATOM     16  C   UNL     1      12.920   7.664  18.461  0.00  0.00    +0.326 C 
BRANCH  16   5
ATOM      5  O   UNL     1      11.652   7.458  18.001  0.00  0.00    -0.467 OA
ATOM     24  C   UNL     1      11.120   8.500  17.178  0.00  0.00    +0.280 C 
ENDBRANCH  16   5
ENDBRANCH  10  16
BRANCH   8  17
ATOM     17  C   UNL     1      12.582  10.868  23.029  0.00  0.00    +0.158 C 
BRANCH  17  20
ATOM      1 CL   UNL     1       8.752  15.501  23.335  0.00  0.00    -0.084 Cl
ATOM     20  C   UNL     1      11.623  12.030  23.106  0.00  0.00    -0.028 A 
ATOM     22  C   UNL     1      11.253  12.708  21.944  0.00  0.00    +0.007 A 
ATOM     23  C   UNL     1      11.104  12.426  24.339  0.00  0.00    +0.007 A 
ATOM     25  C   UNL     1      10.367  13.782  22.016  0.00  0.00    +0.020 A 
ATOM     26  C   UNL     1      10.217  13.500  24.410  0.00  0.00    +0.020 A 
ATOM     27  C   UNL     1       9.848  14.178  23.249  0.00  0.00    +0.041 A 
ENDBRANCH  17  20
ENDBRANCH   8  17
TORSDOF 7
ENDMDL
MODEL 2
REMARK VINA RESULT:      -6.6      3.862      7.205
REMARK  Name = 26745472
REMARK  9 active torsions:
REMARK  status: ('A' for Active; 'I' for Inactive)
REMARK    1  A    between atoms: S_2  and  N_7
REMARK    2  A    between atoms: S_2  and  C_15
REMARK    3  A    between atoms: O_5  and  C_16
REMARK    4  A    between atoms: O_5  and  C_24
REMARK    5  A    between atoms: N_8  and  C_17
REMARK    6  A    between atoms: C_10  and  C_16
REMARK    7  A    between atoms: C_15  and  C_19
REMARK    8  A    between atoms: C_17  and  C_20
REMARK    9  A    between atoms: C_19  and  C_21
REMARK                            x       y       z     vdW  Elec       q    Type
REMARK                         _______ _______ _______ _____ _____    ______ ____
ROOT
ATOM      7  N   UNL     1      12.903   9.068  19.847  0.00  0.00    -0.161 NA
ATOM      8  N   UNL     1      16.386  10.034  20.812  0.00  0.00    -0.328 N 
ATOM      9  N   UNL     1      16.172  11.554  19.188  0.00  0.00    -0.240 NA
ATOM     10  C   UNL     1      13.023   9.572  18.431  0.00  0.00    +0.194 C 
ATOM     11  C   UNL     1      14.197   8.751  20.555  0.00  0.00    +0.165 C 
ATOM     12  C   UNL     1      13.891  10.846  18.345  0.00  0.00    +0.089 C 
ATOM     13  C   UNL     1      15.179   9.801  20.223  0.00  0.00    +0.057 A 
ATOM     14  C   UNL     1      15.073  10.742  19.229  0.00  0.00    +0.066 A 
ATOM     18  C   UNL     1      16.946  11.101  20.154  0.00  0.00    +0.200 A 
ENDROOT
BRANCH   7   2
ATOM      2  S   UNL     1      11.608   7.995  20.172  0.00  0.00    +0.033 S 
ATOM      3  O   UNL     1      12.042   6.645  19.888  0.00  0.00    -0.158 OA
ATOM      4  O   UNL     1      10.397   8.542  19.601  0.00  0.00    -0.158 OA
BRANCH   2  15
ATOM     15  C   UNL     1      11.520   8.185  21.934  0.00  0.00    +0.185 C 
BRANCH  15  19
ATOM     19  C   UNL     1      10.512   9.252  22.326  0.00  0.00    +0.021 C 
ATOM     21  C   UNL     1      11.194  10.575  22.632  0.00  0.00    +0.005 C 
ENDBRANCH  15  19
ENDBRANCH   2  15
ENDBRANCH   7   2
BRANCH  10  16
ATOM      6  O   UNL     1      14.640   7.933  17.737  0.00  0.00    -0.249 OA
ATOM     16  C   UNL     1      13.553   8.471  17.570  0.00  0.00    +0.326 C 
BRANCH  16   5
ATOM      5  O   UNL     1      12.647   8.177  16.594  0.00  0.00    -0.467 OA
ATOM     24  C   UNL     1      12.338   9.249  15.699  0.00  0.00    +0.280 C 
ENDBRANCH  16   5
ENDBRANCH  10  16
BRANCH   8  17
ATOM     17  C   UNL     1      16.978   9.308  21.908  0.00  0.00    +0.158 C 
BRANCH  17  20
ATOM      1 CL   UNL     1      20.560   4.811  20.126  0.00  0.00    -0.084 Cl
ATOM     20  C   UNL     1      17.875   8.180  21.463  0.00  0.00    -0.028 A 
ATOM     22  C   UNL     1      17.412   7.242  20.540  0.00  0.00    +0.007 A 
ATOM     23  C   UNL     1      19.170   8.076  21.972  0.00  0.00    +0.007 A 
ATOM     25  C   UNL     1      18.242   6.200  20.129  0.00  0.00    +0.020 A 
ATOM     26  C   UNL     1      20.001   7.034  21.560  0.00  0.00    +0.020 A 
ATOM     27  C   UNL     1      19.537   6.096  20.638  0.00  0.00    +0.041 A 
ENDBRANCH  17  20
ENDBRANCH   8  17
TORSDOF 7
ENDMDL
MODEL 3
REMARK VINA RESULT:      -6.1      4.238      7.815
REMARK  Name = 26745472
REMARK  9 active torsions:
REMARK  status: ('A' for Active; 'I' for Inactive)
REMARK    1  A    between atoms: S_2  and  N_7
REMARK    2  A    between atoms: S_2  and  C_15
REMARK    3  A    between atoms: O_5  and  C_16
REMARK    4  A    between atoms: O_5  and  C_24
REMARK    5  A    between atoms: N_8  and  C_17
REMARK    6  A    between atoms: C_10  and  C_16
REMARK    7  A    between atoms: C_15  and  C_19
REMARK    8  A    between atoms: C_17  and  C_20
REMARK    9  A    between atoms: C_19  and  C_21
REMARK                            x       y       z     vdW  Elec       q    Type
REMARK                         _______ _______ _______ _____ _____    ______ ____
ROOT
ATOM      7  N   UNL     1      11.567  11.739  21.531  0.00  0.00    -0.161 NA
ATOM      8  N   UNL     1      12.835   8.490  20.179  0.00  0.00    -0.328 N 
ATOM      9  N   UNL     1      11.369   7.585  21.602  0.00  0.00    -0.240 NA
ATOM     10  C   UNL     1      11.136  11.163  22.855  0.00  0.00    +0.194 C 
ATOM     11  C   UNL     1      12.613  10.960  20.772  0.00  0.00    +0.165 C 
ATOM     12  C   UNL     1      10.587   9.727  22.705  0.00  0.00    +0.089 C 
ATOM     13  C   UNL     1      12.297   9.523  20.885  0.00  0.00    +0.057 A 
ATOM     14  C   UNL     1      11.405   8.944  21.753  0.00  0.00    +0.066 A 
ATOM     18  C   UNL     1      12.243   7.343  20.646  0.00  0.00    +0.200 A 
ENDROOT
BRANCH   7   2
ATOM      2  S   UNL     1      11.722  13.443  21.450  0.00  0.00    +0.033 S 
ATOM      3  O   UNL     1      11.798  13.837  20.061  0.00  0.00    -0.158 OA
ATOM      4  O   UNL     1      12.712  13.865  22.416  0.00  0.00    -0.158 OA
BRANCH   2  15
ATOM     15  C   UNL     1      10.123  13.902  22.065  0.00  0.00    +0.185 C 
BRANCH  15  19
ATOM     19  C   UNL     1      10.155  15.273  22.722  0.00  0.00    +0.021 C 
ATOM     21  C   UNL     1       8.853  15.573  23.445  0.00  0.00    +0.005 C 
ENDBRANCH  15  19
ENDBRANCH   2  15
ENDBRANCH   7   2
BRANCH  10  16
ATOM      6  O   UNL     1      13.459  11.150  23.473  0.00  0.00    -0.249 OA
ATOM     16  C   UNL     1      12.285  11.229  23.809  0.00  0.00    +0.326 C 
BRANCH  16   5
ATOM      5  O   UNL     1      11.815  11.386  25.079  0.00  0.00    -0.467 OA
ATOM     24  C   UNL     1      11.149  12.625  25.339  0.00  0.00    +0.280 C 
ENDBRANCH  16   5
ENDBRANCH  10  16
BRANCH   8  17
ATOM     17  C   UNL     1      13.837   8.567  19.145  0.00  0.00    +0.158 C 
BRANCH  17  20
ATOM      1 CL   UNL     1      19.136   6.219  20.770  0.00  0.00    -0.084 Cl
ATOM     20  C   UNL     1      15.164   7.978  19.553  0.00  0.00    -0.028 A 
ATOM     22  C   UNL     1      15.580   6.757  19.022  0.00  0.00    +0.007 A 
ATOM     23  C   UNL     1      15.978   8.655  20.462  0.00  0.00    +0.007 A 
ATOM     25  C   UNL     1      16.806   6.213  19.399  0.00  0.00    +0.020 A 
ATOM     26  C   UNL     1      17.206   8.111  20.839  0.00  0.00    +0.020 A 
ATOM     27  C   UNL     1      17.620   6.890  20.308  0.00  0.00    +0.041 A 
ENDBRANCH  17  20
ENDBRANCH   8  17
TORSDOF 7
ENDMDL
MODEL 4
REMARK VINA RESULT:      -6.1      2.799      4.291
REMARK  Name = 26745472
REMARK  9 active torsions:
REMARK  status: ('A' for Active; 'I' for Inactive)
REMARK    1  A    between atoms: S_2  and  N_7
REMARK    2  A    between atoms: S_2  and  C_15
REMARK    3  A    between atoms: O_5  and  C_16
REMARK    4  A    between atoms: O_5  and  C_24
REMARK    5  A    between atoms: N_8  and  C_17
REMARK    6  A    between atoms: C_10  and  C_16
REMARK    7  A    between atoms: C_15  and  C_19
REMARK    8  A    between atoms: C_17  and  C_20
REMARK    9  A    between atoms: C_19  and  C_21
REMARK                            x       y       z     vdW  Elec       q    Type
REMARK                         _______ _______ _______ _____ _____    ______ ____
ROOT
ATOM      7  N   UNL     1      14.362   8.959  17.414  0.00  0.00    -0.161 NA
ATOM      8  N   UNL     1      15.140  10.356  20.796  0.00  0.00    -0.328 N 
ATOM      9  N   UNL     1      15.766   8.263  21.267  0.00  0.00    -0.240 NA
ATOM     10  C   UNL     1      14.140   7.553  17.909  0.00  0.00    +0.194 C 
ATOM     11  C   UNL     1      14.216  10.058  18.438  0.00  0.00    +0.165 C 
ATOM     12  C   UNL     1      15.093   7.196  19.071  0.00  0.00    +0.089 C 
ATOM     13  C   UNL     1      14.844   9.609  19.696  0.00  0.00    +0.057 A 
ATOM     14  C   UNL     1      15.232   8.330  20.010  0.00  0.00    +0.066 A 
ATOM     18  C   UNL     1      15.695   9.501  21.715  0.00  0.00    +0.200 A 
ENDROOT
BRANCH   7   2
ATOM      2  S   UNL     1      13.757   9.327  15.854  0.00  0.00    +0.033 S 
ATOM      3  O   UNL     1      12.470   9.971  15.995  0.00  0.00    -0.158 OA
ATOM      4  O   UNL     1      13.943   8.175  15.001  0.00  0.00    -0.158 OA
BRANCH   2  15
ATOM     15  C   UNL     1      14.939  10.561  15.377  0.00  0.00    +0.185 C 
BRANCH  15  19
ATOM     19  C   UNL     1      14.267  11.897  15.110  0.00  0.00    +0.021 C 
ATOM     21  C   UNL     1      14.834  12.992  15.999  0.00  0.00    +0.005 C 
ENDBRANCH  15  19
ENDBRANCH   2  15
ENDBRANCH   7   2
BRANCH  10  16
ATOM      6  O   UNL     1      11.775   7.432  17.495  0.00  0.00    -0.249 OA
ATOM     16  C   UNL     1      12.704   7.395  18.291  0.00  0.00    +0.326 C 
BRANCH  16   5
ATOM      5  O   UNL     1      12.608   7.209  19.639  0.00  0.00    -0.467 OA
ATOM     24  C   UNL     1      11.567   7.944  20.289  0.00  0.00    +0.280 C 
ENDBRANCH  16   5
ENDBRANCH  10  16
BRANCH   8  17
ATOM     17  C   UNL     1      14.916  11.769  20.979  0.00  0.00    +0.158 C 
BRANCH  17  20
ATOM      1 CL   UNL     1      10.105  12.994  24.382  0.00  0.00    -0.084 Cl
ATOM     20  C   UNL     1      13.711  12.077  21.832  0.00  0.00    -0.028 A 
ATOM     22  C   UNL     1      12.429  11.982  21.289  0.00  0.00    +0.007 A 
ATOM     23  C   UNL     1      13.876  12.456  23.164  0.00  0.00    +0.007 A 
ATOM     25  C   UNL     1      11.315  12.267  22.077  0.00  0.00    +0.020 A 
ATOM     26  C   UNL     1      12.762  12.740  23.953  0.00  0.00    +0.020 A 
ATOM     27  C   UNL     1      11.481  12.646  23.409  0.00  0.00    +0.041 A 
ENDBRANCH  17  20
ENDBRANCH   8  17
TORSDOF 7
ENDMDL
MODEL 5
REMARK VINA RESULT:      -5.9     26.408     28.674
REMARK  Name = 26745472
REMARK  9 active torsions:
REMARK  status: ('A' for Active; 'I' for Inactive)
REMARK    1  A    between atoms: S_2  and  N_7
REMARK    2  A    between atoms: S_2  and  C_15
REMARK    3  A    between atoms: O_5  and  C_16
REMARK    4  A    between atoms: O_5  and  C_24
REMARK    5  A    between atoms: N_8  and  C_17
REMARK    6  A    between atoms: C_10  and  C_16
REMARK    7  A    between atoms: C_15  and  C_19
REMARK    8  A    between atoms: C_17  and  C_20
REMARK    9  A    between atoms: C_19  and  C_21
REMARK                            x       y       z     vdW  Elec       q    Type
REMARK                         _______ _______ _______ _____ _____    ______ ____
ROOT
ATOM      7  N   UNL     1      -5.351 -12.480  16.234  0.00  0.00    -0.161 NA
ATOM      8  N   UNL     1      -2.119 -11.766  14.490  0.00  0.00    -0.328 N 
ATOM      9  N   UNL     1      -1.641 -10.603  16.337  0.00  0.00    -0.240 NA
ATOM     10  C   UNL     1      -5.310 -11.237  17.085  0.00  0.00    +0.194 C 
ATOM     11  C   UNL     1      -4.529 -12.452  14.969  0.00  0.00    +0.165 C 
ATOM     12  C   UNL     1      -3.869 -10.878  17.510  0.00  0.00    +0.089 C 
ATOM     13  C   UNL     1      -3.238 -11.802  15.268  0.00  0.00    +0.057 A 
ATOM     14  C   UNL     1      -2.922 -11.079  16.391  0.00  0.00    +0.066 A 
ATOM     18  C   UNL     1      -1.184 -11.034  15.178  0.00  0.00    +0.200 A 
ENDROOT
BRANCH   7   2
ATOM      2  S   UNL     1      -6.865 -13.271  16.105  0.00  0.00    +0.033 S 
ATOM      3  O   UNL     1      -6.642 -14.634  15.675  0.00  0.00    -0.158 OA
ATOM      4  O   UNL     1      -7.788 -12.397  15.414  0.00  0.00    -0.158 OA
BRANCH   2  15
ATOM     15  C   UNL     1      -7.316 -13.302  17.820  0.00  0.00    +0.185 C 
BRANCH  15  19
ATOM     19  C   UNL     1      -8.613 -12.549  18.065  0.00  0.00    +0.021 C 
ATOM     21  C   UNL     1      -8.538 -11.708  19.329  0.00  0.00    +0.005 C 
ENDBRANCH  15  19
ENDBRANCH   2  15
ENDBRANCH   7   2
BRANCH  10  16
ATOM      6  O   UNL     1      -5.747  -9.849  15.170  0.00  0.00    -0.249 OA
ATOM     16  C   UNL     1      -5.971 -10.120  16.342  0.00  0.00    +0.326 C 
BRANCH  16   5
ATOM      5  O   UNL     1      -6.841  -9.473  17.170  0.00  0.00    -0.467 OA
ATOM     24  C   UNL     1      -8.119  -9.172  16.604  0.00  0.00    +0.280 C 
ENDBRANCH  16   5
ENDBRANCH  10  16
BRANCH   8  17
ATOM     17  C   UNL     1      -1.938 -12.370  13.193  0.00  0.00    +0.158 C 
BRANCH  17  20
ATOM      1 CL   UNL     1      -4.410  -9.195   8.717  0.00  0.00    -0.084 Cl
ATOM     20  C   UNL     1      -2.558 -11.574  12.072  0.00  0.00    -0.028 A 
ATOM     22  C   UNL     1      -2.109 -10.281  11.802  0.00  0.00    +0.007 A 
ATOM     23  C   UNL     1      -3.581 -12.131  11.303  0.00  0.00    +0.007 A 
ATOM     25  C   UNL     1      -2.683  -9.546  10.766  0.00  0.00    +0.020 A 
ATOM     26  C   UNL     1      -4.155 -11.395  10.266  0.00  0.00    +0.020 A 
ATOM     27  C   UNL     1      -3.706 -10.103   9.998  0.00  0.00    +0.041 A 
ENDBRANCH  17  20
ENDBRANCH   8  17
TORSDOF 7
ENDMDL
MODEL 6
REMARK VINA RESULT:      -5.9     26.346     28.622
REMARK  Name = 26745472
REMARK  9 active torsions:
REMARK  status: ('A' for Active; 'I' for Inactive)
REMARK    1  A    between atoms: S_2  and  N_7
REMARK    2  A    between atoms: S_2  and  C_15
REMARK    3  A    between atoms: O_5  and  C_16
REMARK    4  A    between atoms: O_5  and  C_24
REMARK    5  A    between atoms: N_8  and  C_17
REMARK    6  A    between atoms: C_10  and  C_16
REMARK    7  A    between atoms: C_15  and  C_19
REMARK    8  A    between atoms: C_17  and  C_20
REMARK    9  A    between atoms: C_19  and  C_21
REMARK                            x       y       z     vdW  Elec       q    Type
REMARK                         _______ _______ _______ _____ _____    ______ ____
ROOT
ATOM      7  N   UNL     1      -5.347 -12.449  16.092  0.00  0.00    -0.161 NA
ATOM      8  N   UNL     1      -2.058 -11.718  14.467  0.00  0.00    -0.328 N 
ATOM      9  N   UNL     1      -1.640 -10.580  16.343  0.00  0.00    -0.240 NA
ATOM     10  C   UNL     1      -5.333 -11.216  16.960  0.00  0.00    +0.194 C 
ATOM     11  C   UNL     1      -4.483 -12.406  14.856  0.00  0.00    +0.165 C 
ATOM     12  C   UNL     1      -3.907 -10.866  17.437  0.00  0.00    +0.089 C 
ATOM     13  C   UNL     1      -3.202 -11.762  15.206  0.00  0.00    +0.057 A 
ATOM     14  C   UNL     1      -2.923 -11.054  16.349  0.00  0.00    +0.066 A 
ATOM     18  C   UNL     1      -1.145 -10.996  15.195  0.00  0.00    +0.200 A 
ENDROOT
BRANCH   7   2
ATOM      2  S   UNL     1      -6.857 -13.235  15.902  0.00  0.00    +0.033 S 
ATOM      3  O   UNL     1      -7.409 -12.874  14.614  0.00  0.00    -0.158 OA
ATOM      4  O   UNL     1      -7.615 -13.086  17.124  0.00  0.00    -0.158 OA
BRANCH   2  15
ATOM     15  C   UNL     1      -6.292 -14.914  15.806  0.00  0.00    +0.185 C 
BRANCH  15  19
ATOM     19  C   UNL     1      -5.187 -15.184  16.814  0.00  0.00    +0.021 C 
ATOM     21  C   UNL     1      -4.220 -16.242  16.309  0.00  0.00    +0.005 C 
ENDBRANCH  15  19
ENDBRANCH   2  15
ENDBRANCH   7   2
BRANCH  10  16
ATOM      6  O   UNL     1      -5.627  -9.734  15.089  0.00  0.00    -0.249 OA
ATOM     16  C   UNL     1      -5.967 -10.089  16.210  0.00  0.00    +0.326 C 
BRANCH  16   5
ATOM      5  O   UNL     1      -6.961  -9.540  16.966  0.00  0.00    -0.467 OA
ATOM     24  C   UNL     1      -8.240  -9.453  16.331  0.00  0.00    +0.280 C 
ENDBRANCH  16   5
ENDBRANCH  10  16
BRANCH   8  17
ATOM     17  C   UNL     1      -1.834 -12.306  13.169  0.00  0.00    +0.158 C 
BRANCH  17  20
ATOM      1 CL   UNL     1      -4.367  -9.197   8.680  0.00  0.00    -0.084 Cl
ATOM     20  C   UNL     1      -2.467 -11.527  12.043  0.00  0.00    -0.028 A 
ATOM     22  C   UNL     1      -3.486 -12.102  11.283  0.00  0.00    +0.007 A 
ATOM     23  C   UNL     1      -2.036 -10.230  11.762  0.00  0.00    +0.007 A 
ATOM     25  C   UNL     1      -4.072 -11.382  10.243  0.00  0.00    +0.020 A 
ATOM     26  C   UNL     1      -2.622  -9.510  10.721  0.00  0.00    +0.020 A 
ATOM     27  C   UNL     1      -3.640 -10.086   9.962  0.00  0.00    +0.041 A 
ENDBRANCH  17  20
ENDBRANCH   8  17
TORSDOF 7
ENDMDL
MODEL 7
REMARK VINA RESULT:      -5.8      4.767      7.918
REMARK  Name = 26745472
REMARK  9 active torsions:
REMARK  status: ('A' for Active; 'I' for Inactive)
REMARK    1  A    between atoms: S_2  and  N_7
REMARK    2  A    between atoms: S_2  and  C_15
REMARK    3  A    between atoms: O_5  and  C_16
REMARK    4  A    between atoms: O_5  and  C_24
REMARK    5  A    between atoms: N_8  and  C_17
REMARK    6  A    between atoms: C_10  and  C_16
REMARK    7  A    between atoms: C_15  and  C_19
REMARK    8  A    between atoms: C_17  and  C_20
REMARK    9  A    between atoms: C_19  and  C_21
REMARK                            x       y       z     vdW  Elec       q    Type
REMARK                         _______ _______ _______ _____ _____    ______ ____
ROOT
ATOM      7  N   UNL     1      14.676   9.070  20.163  0.00  0.00    -0.161 NA
ATOM      8  N   UNL     1      17.419   6.534  20.361  0.00  0.00    -0.328 N 
ATOM      9  N   UNL     1      16.585   5.814  18.417  0.00  0.00    -0.240 NA
ATOM     10  C   UNL     1      13.781   8.218  19.299  0.00  0.00    +0.194 C 
ATOM     11  C   UNL     1      15.722   8.338  20.968  0.00  0.00    +0.165 C 
ATOM     12  C   UNL     1      14.591   7.370  18.294  0.00  0.00    +0.089 C 
ATOM     13  C   UNL     1      16.302   7.278  20.122  0.00  0.00    +0.057 A 
ATOM     14  C   UNL     1      15.807   6.815  18.928  0.00  0.00    +0.066 A 
ATOM     18  C   UNL     1      17.549   5.667  19.305  0.00  0.00    +0.200 A 
ENDROOT
BRANCH   7   2
ATOM      2  S   UNL     1      13.938  10.397  20.956  0.00  0.00    +0.033 S 
ATOM      3  O   UNL     1      13.656  10.021  22.324  0.00  0.00    -0.158 OA
ATOM      4  O   UNL     1      12.917  10.945  20.091  0.00  0.00    -0.158 OA
BRANCH   2  15
ATOM     15  C   UNL     1      15.312  11.519  20.966  0.00  0.00    +0.185 C 
BRANCH  15  19
ATOM     19  C   UNL     1      15.817  11.789  19.558  0.00  0.00    +0.021 C 
ATOM     21  C   UNL     1      15.537  13.220  19.131  0.00  0.00    +0.005 C 
ENDBRANCH  15  19
ENDBRANCH   2  15
ENDBRANCH   7   2
BRANCH  10  16
ATOM      6  O   UNL     1      13.344   6.697  21.110  0.00  0.00    -0.249 OA
ATOM     16  C   UNL     1      12.920   7.372  20.182  0.00  0.00    +0.326 C 
BRANCH  16   5
ATOM      5  O   UNL     1      11.619   7.479  19.787  0.00  0.00    -0.467 OA
ATOM     24  C   UNL     1      10.763   8.199  20.679  0.00  0.00    +0.280 C 
ENDBRANCH  16   5
ENDBRANCH  10  16
BRANCH   8  17
ATOM     17  C   UNL     1      18.300   6.623  21.498  0.00  0.00    +0.158 C 
BRANCH  17  20
ATOM      1 CL   UNL     1      23.926   8.182  20.033  0.00  0.00    -0.084 Cl
ATOM     20  C   UNL     1      19.711   7.014  21.132  0.00  0.00    -0.028 A 
ATOM     22  C   UNL     1      20.628   6.036  20.748  0.00  0.00    +0.007 A 
ATOM     23  C   UNL     1      20.098   8.354  21.177  0.00  0.00    +0.007 A 
ATOM     25  C   UNL     1      21.932   6.398  20.409  0.00  0.00    +0.020 A 
ATOM     26  C   UNL     1      21.401   8.715  20.838  0.00  0.00    +0.020 A 
ATOM     27  C   UNL     1      22.319   7.738  20.454  0.00  0.00    +0.041 A 
ENDBRANCH  17  20
ENDBRANCH   8  17
TORSDOF 7
ENDMDL
MODEL 8
REMARK VINA RESULT:      -5.8      2.109      2.572
REMARK  Name = 26745472
REMARK  9 active torsions:
REMARK  status: ('A' for Active; 'I' for Inactive)
REMARK    1  A    between atoms: S_2  and  N_7
REMARK    2  A    between atoms: S_2  and  C_15
REMARK    3  A    between atoms: O_5  and  C_16
REMARK    4  A    between atoms: O_5  and  C_24
REMARK    5  A    between atoms: N_8  and  C_17
REMARK    6  A    between atoms: C_10  and  C_16
REMARK    7  A    between atoms: C_15  and  C_19
REMARK    8  A    between atoms: C_17  and  C_20
REMARK    9  A    between atoms: C_19  and  C_21
REMARK                            x       y       z     vdW  Elec       q    Type
REMARK                         _______ _______ _______ _____ _____    ______ ____
ROOT
ATOM      7  N   UNL     1      14.245   7.679  20.857  0.00  0.00    -0.161 NA
ATOM      8  N   UNL     1      12.142  10.345  22.426  0.00  0.00    -0.328 N 
ATOM      9  N   UNL     1      10.648   8.702  22.678  0.00  0.00    -0.240 NA
ATOM     10  C   UNL     1      13.074   6.830  20.435  0.00  0.00    +0.194 C 
ATOM     11  C   UNL     1      13.958   9.140  21.102  0.00  0.00    +0.165 C 
ATOM     12  C   UNL     1      11.925   6.882  21.465  0.00  0.00    +0.089 C 
ATOM     13  C   UNL     1      12.670   9.249  21.814  0.00  0.00    +0.057 A 
ATOM     14  C   UNL     1      11.735   8.256  21.978  0.00  0.00    +0.066 A 
ATOM     18  C   UNL     1      10.923   9.966  22.932  0.00  0.00    +0.200 A 
ENDROOT
BRANCH   7   2
ATOM      2  S   UNL     1      15.747   7.345  20.103  0.00  0.00    +0.033 S 
ATOM      3  O   UNL     1      16.085   8.450  19.233  0.00  0.00    -0.158 OA
ATOM      4  O   UNL     1      15.734   5.979  19.629  0.00  0.00    -0.158 OA
BRANCH   2  15
ATOM     15  C   UNL     1      16.802   7.423  21.527  0.00  0.00    +0.185 C 
BRANCH  15  19
ATOM     19  C   UNL     1      18.242   7.709  21.134  0.00  0.00    +0.021 C 
ATOM     21  C   UNL     1      18.962   6.444  20.700  0.00  0.00    +0.005 C 
ENDBRANCH  15  19
ENDBRANCH   2  15
ENDBRANCH   7   2
BRANCH  10  16
ATOM      6  O   UNL     1      13.340   7.230  18.079  0.00  0.00    -0.249 OA
ATOM     16  C   UNL     1      12.629   7.262  19.074  0.00  0.00    +0.326 C 
BRANCH  16   5
ATOM      5  O   UNL     1      11.334   7.687  19.131  0.00  0.00    -0.467 OA
ATOM     24  C   UNL     1      11.000   8.760  18.246  0.00  0.00    +0.280 C 
ENDBRANCH  16   5
ENDBRANCH  10  16
BRANCH   8  17
ATOM     17  C   UNL     1      12.731  11.658  22.526  0.00  0.00    +0.158 C 
BRANCH  17  20
ATOM      1 CL   UNL     1      14.662  12.991  28.069  0.00  0.00    -0.084 Cl
ATOM     20  C   UNL     1      13.214  11.992  23.915  0.00  0.00    -0.028 A 
ATOM     22  C   UNL     1      14.377  11.402  24.410  0.00  0.00    +0.007 A 
ATOM     23  C   UNL     1      12.498  12.891  24.706  0.00  0.00    +0.007 A 
ATOM     25  C   UNL     1      14.823  11.710  25.694  0.00  0.00    +0.020 A 
ATOM     26  C   UNL     1      12.945  13.200  25.991  0.00  0.00    +0.020 A 
ATOM     27  C   UNL     1      14.107  12.609  26.485  0.00  0.00    +0.041 A 
ENDBRANCH  17  20
ENDBRANCH   8  17
TORSDOF 7
ENDMDL
MODEL 9
REMARK VINA RESULT:      -5.7     25.968     27.930
REMARK  Name = 26745472
REMARK  9 active torsions:
REMARK  status: ('A' for Active; 'I' for Inactive)
REMARK    1  A    between atoms: S_2  and  N_7
REMARK    2  A    between atoms: S_2  and  C_15
REMARK    3  A    between atoms: O_5  and  C_16
REMARK    4  A    between atoms: O_5  and  C_24
REMARK    5  A    between atoms: N_8  and  C_17
REMARK    6  A    between atoms: C_10  and  C_16
REMARK    7  A    between atoms: C_15  and  C_19
REMARK    8  A    between atoms: C_17  and  C_20
REMARK    9  A    between atoms: C_19  and  C_21
REMARK                            x       y       z     vdW  Elec       q    Type
REMARK                         _______ _______ _______ _____ _____    ______ ____
ROOT
ATOM      7  N   UNL     1      -4.228 -10.696  13.983  0.00  0.00    -0.161 NA
ATOM      8  N   UNL     1      -6.568 -11.070  16.877  0.00  0.00    -0.328 N 
ATOM      9  N   UNL     1      -4.730 -10.764  18.111  0.00  0.00    -0.240 NA
ATOM     10  C   UNL     1      -3.012 -11.153  14.747  0.00  0.00    +0.194 C 
ATOM     11  C   UNL     1      -5.565 -11.128  14.533  0.00  0.00    +0.165 C 
ATOM     12  C   UNL     1      -3.049 -10.687  16.218  0.00  0.00    +0.089 C 
ATOM     13  C   UNL     1      -5.525 -11.004  16.003  0.00  0.00    +0.057 A 
ATOM     14  C   UNL     1      -4.409 -10.821  16.783  0.00  0.00    +0.066 A 
ATOM     18  C   UNL     1      -6.039 -10.918  18.135  0.00  0.00    +0.200 A 
ENDROOT
BRANCH   7   2
ATOM      2  S   UNL     1      -4.106 -10.697  12.274  0.00  0.00    +0.033 S 
ATOM      3  O   UNL     1      -4.792  -9.533  11.759  0.00  0.00    -0.158 OA
ATOM      4  O   UNL     1      -4.396 -12.029  11.789  0.00  0.00    -0.158 OA
BRANCH   2  15
ATOM     15  C   UNL     1      -2.361 -10.422  12.115  0.00  0.00    +0.185 C 
BRANCH  15  19
ATOM     19  C   UNL     1      -2.054  -9.444  10.993  0.00  0.00    +0.021 C 
ATOM     21  C   UNL     1      -0.629  -8.924  11.083  0.00  0.00    +0.005 C 
ENDBRANCH  15  19
ENDBRANCH   2  15
ENDBRANCH   7   2
BRANCH  10  16
ATOM      6  O   UNL     1      -3.805 -13.418  14.893  0.00  0.00    -0.249 OA
ATOM     16  C   UNL     1      -2.898 -12.639  14.631  0.00  0.00    +0.326 C 
BRANCH  16   5
ATOM      5  O   UNL     1      -1.648 -12.969  14.198  0.00  0.00    -0.467 OA
ATOM     24  C   UNL     1      -1.547 -14.217  13.505  0.00  0.00    +0.280 C 
ENDBRANCH  16   5
ENDBRANCH  10  16
BRANCH   8  17
ATOM     17  C   UNL     1      -7.961 -11.265  16.561  0.00  0.00    +0.158 C 
BRANCH  17  20
ATOM      1 CL   UNL     1     -10.997  -6.110  15.898  0.00  0.00    -0.084 Cl
ATOM     20  C   UNL     1      -8.723  -9.974  16.395  0.00  0.00    -0.028 A 
ATOM     22  C   UNL     1      -9.040  -9.202  17.512  0.00  0.00    +0.007 A 
ATOM     23  C   UNL     1      -9.110  -9.551  15.123  0.00  0.00    +0.007 A 
ATOM     25  C   UNL     1      -9.744  -8.008  17.358  0.00  0.00    +0.020 A 
ATOM     26  C   UNL     1      -9.814  -8.357  14.969  0.00  0.00    +0.020 A 
ATOM     27  C   UNL     1     -10.132  -7.585  16.086  0.00  0.00    +0.041 A 
ENDBRANCH  17  20
ENDBRANCH   8  17
TORSDOF 7
ENDMDL
MODEL 10
REMARK VINA RESULT:      -5.7      3.707      4.622
REMARK  Name = 26745472
REMARK  9 active torsions:
REMARK  status: ('A' for Active; 'I' for Inactive)
REMARK    1  A    between atoms: S_2  and  N_7
REMARK    2  A    between atoms: S_2  and  C_15
REMARK    3  A    between atoms: O_5  and  C_16
REMARK    4  A    between atoms: O_5  and  C_24
REMARK    5  A    between atoms: N_8  and  C_17
REMARK    6  A    between atoms: C_10  and  C_16
REMARK    7  A    between atoms: C_15  and  C_19
REMARK    8  A    between atoms: C_17  and  C_20
REMARK    9  A    between atoms: C_19  and  C_21
REMARK                            x       y       z     vdW  Elec       q    Type
REMARK                         _______ _______ _______ _____ _____    ______ ____
ROOT
ATOM      7  N   UNL     1      13.764   8.650  20.648  0.00  0.00    -0.161 NA
ATOM      8  N   UNL     1      12.693  12.190  20.085  0.00  0.00    -0.328 N 
ATOM      9  N   UNL     1      11.404  11.846  21.878  0.00  0.00    -0.240 NA
ATOM     10  C   UNL     1      12.494   8.247  21.352  0.00  0.00    +0.194 C 
ATOM     11  C   UNL     1      13.676   9.860  19.751  0.00  0.00    +0.165 C 
ATOM     12  C   UNL     1      11.929   9.392  22.220  0.00  0.00    +0.089 C 
ATOM     13  C   UNL     1      12.847  10.879  20.424  0.00  0.00    +0.057 A 
ATOM     14  C   UNL     1      12.045  10.692  21.523  0.00  0.00    +0.066 A 
ATOM     18  C   UNL     1      11.815  12.731  20.991  0.00  0.00    +0.200 A 
ENDROOT
BRANCH   7   2
ATOM      2  S   UNL     1      14.756   7.380  20.067  0.00  0.00    +0.033 S 
ATOM      3  O   UNL     1      14.517   7.216  18.650  0.00  0.00    -0.158 OA
ATOM      4  O   UNL     1      14.671   6.267  20.986  0.00  0.00    -0.158 OA
BRANCH   2  15
ATOM     15  C   UNL     1      16.343   8.143  20.272  0.00  0.00    +0.185 C 
BRANCH  15  19
ATOM     19  C   UNL     1      17.377   7.147  20.771  0.00  0.00    +0.021 C 
ATOM     21  C   UNL     1      17.830   6.213  19.661  0.00  0.00    +0.005 C 
ENDBRANCH  15  19
ENDBRANCH   2  15
ENDBRANCH   7   2
BRANCH  10  16
ATOM      6  O   UNL     1      10.826   8.518  19.642  0.00  0.00    -0.249 OA
ATOM     16  C   UNL     1      11.506   7.773  20.334  0.00  0.00    +0.326 C 
BRANCH  16   5
ATOM      5  O   UNL     1      11.493   6.410  20.311  0.00  0.00    -0.467 OA
ATOM     24  C   UNL     1      11.183   5.776  21.556  0.00  0.00    +0.280 C 
ENDBRANCH  16   5
ENDBRANCH  10  16
BRANCH   8  17
ATOM     17  C   UNL     1      13.317  12.887  18.988  0.00  0.00    +0.158 C 
BRANCH  17  20
ATOM      1 CL   UNL     1      19.205  13.835  19.803  0.00  0.00    -0.084 Cl
ATOM     20  C   UNL     1      14.793  13.124  19.194  0.00  0.00    -0.028 A 
ATOM     22  C   UNL     1      15.715  12.620  18.276  0.00  0.00    +0.007 A 
ATOM     23  C   UNL     1      15.236  13.848  20.301  0.00  0.00    +0.007 A 
ATOM     25  C   UNL     1      17.078  12.839  18.466  0.00  0.00    +0.020 A 
ATOM     26  C   UNL     1      16.601  14.067  20.490  0.00  0.00    +0.020 A 
ATOM     27  C   UNL     1      17.522  13.563  19.573  0.00  0.00    +0.041 A 
ENDBRANCH  17  20
ENDBRANCH   8  17
TORSDOF 7
ENDMDL
