MODEL 1
REMARK VINA RESULT:      -7.4      0.000      0.000
REMARK  Name = 7051752
REMARK  4 active torsions:
REMARK  status: ('A' for Active; 'I' for Inactive)
REMARK    1  A    between atoms: N_3  and  C_13
REMARK    2  A    between atoms: C_13  and  C_18
REMARK    3  A    between atoms: C_16  and  C_19
REMARK    4  A    between atoms: C_21  and  C_25
REMARK                            x       y       z     vdW  Elec       q    Type
REMARK                         _______ _______ _______ _____ _____    ______ ____
ROOT
ATOM      2  O   UNL     1      16.235   5.823  18.319  0.00  0.00    -0.267 OA
ATOM      3  N   UNL     1      13.525  10.031  18.473  0.00  0.00    -0.296 NA
ATOM      4  N   UNL     1      14.802   7.273  19.449  0.00  0.00    -0.311 N 
ATOM      6  C   UNL     1      12.426   7.783  18.632  0.00  0.00    +0.024 C 
ATOM      7  C   UNL     1      13.268   8.857  20.665  0.00  0.00    +0.050 C 
ATOM      8  C   UNL     1      12.127   8.011  20.108  0.00  0.00    +0.017 C 
ATOM      9  C   UNL     1      12.515   9.136  17.895  0.00  0.00    +0.090 C 
ATOM     10  C   UNL     1      13.320  10.210  19.919  0.00  0.00    +0.094 C 
ATOM     11  C   UNL     1      13.716   6.959  18.509  0.00  0.00    +0.130 C 
ATOM     12  C   UNL     1      14.592   8.127  20.534  0.00  0.00    +0.026 A 
ATOM     14  C   UNL     1      15.564   8.314  21.441  0.00  0.00    +0.022 A 
ATOM     15  C   UNL     1      16.023   6.597  19.255  0.00  0.00    +0.259 A 
ATOM     16  C   UNL     1      17.104   6.846  20.274  0.00  0.00    +0.040 A 
ATOM     17  C   UNL     1      16.836   7.663  21.303  0.00  0.00    +0.015 A 
ENDROOT
BRANCH  16  19
ATOM     19  C   UNL     1      18.386   6.204  20.135  0.00  0.00    +0.014 C 
ATOM     21  C   UNL     1      19.433   6.495  20.916  0.00  0.00    +0.008 C 
BRANCH  21  25
ATOM      1 CL   UNL     1      24.821   3.973  20.471  0.00  0.00    -0.084 Cl
ATOM     25  C   UNL     1      20.764   5.873  20.807  0.00  0.00    -0.025 A 
ATOM     26  C   UNL     1      21.871   6.672  20.568  0.00  0.00    +0.009 A 
ATOM     27  C   UNL     1      20.884   4.499  20.943  0.00  0.00    +0.009 A 
ATOM     28  C   UNL     1      23.130   6.082  20.464  0.00  0.00    +0.020 A 
ATOM     29  C   UNL     1      22.143   3.909  20.839  0.00  0.00    +0.020 A 
ATOM     30  C   UNL     1      23.266   4.701  20.599  0.00  0.00    +0.041 A 
ENDBRANCH  21  25
ENDBRANCH  16  19
BRANCH   3  13
ATOM     13  C   UNL     1      13.543  11.317  17.784  0.00  0.00    +0.139 C 
BRANCH  13  18
ATOM      5  N   UNL     1      14.439  10.639  15.639  0.00  0.00    -0.259 NA
ATOM     18  C   UNL     1      14.626  11.385  16.746  0.00  0.00    +0.055 A 
ATOM     20  C   UNL     1      15.727  12.187  16.978  0.00  0.00    +0.024 A 
ATOM     22  C   UNL     1      16.712  12.226  15.998  0.00  0.00    +0.003 A 
ATOM     23  C   UNL     1      15.418  10.703  14.708  0.00  0.00    +0.111 A 
ATOM     24  C   UNL     1      16.562  11.474  14.838  0.00  0.00    +0.020 A 
ENDBRANCH  13  18
ENDBRANCH   3  13
TORSDOF 4
ENDMDL
MODEL 2
REMARK VINA RESULT:      -7.4      2.828      4.809
REMARK  Name = 7051752
REMARK  4 active torsions:
REMARK  status: ('A' for Active; 'I' for Inactive)
REMARK    1  A    between atoms: N_3  and  C_13
REMARK    2  A    between atoms: C_13  and  C_18
REMARK    3  A    between atoms: C_16  and  C_19
REMARK    4  A    between atoms: C_21  and  C_25
REMARK                            x       y       z     vdW  Elec       q    Type
REMARK                         _______ _______ _______ _____ _____    ______ ____
ROOT
ATOM      2  O   UNL     1      17.051   9.687  20.875  0.00  0.00    -0.267 OA
ATOM      3  N   UNL     1      12.053   9.837  21.134  0.00  0.00    -0.296 NA
ATOM      4  N   UNL     1      14.956   9.195  19.977  0.00  0.00    -0.311 N 
ATOM      6  C   UNL     1      13.284  11.013  19.294  0.00  0.00    +0.024 C 
ATOM      7  C   UNL     1      12.689   8.653  19.027  0.00  0.00    +0.050 C 
ATOM      8  C   UNL     1      12.801   9.980  18.284  0.00  0.00    +0.017 C 
ATOM      9  C   UNL     1      12.280  11.122  20.460  0.00  0.00    +0.090 C 
ATOM     10  C   UNL     1      11.665   8.790  20.178  0.00  0.00    +0.094 C 
ATOM     11  C   UNL     1      14.693  10.625  19.764  0.00  0.00    +0.130 C 
ATOM     12  C   UNL     1      14.040   8.223  19.568  0.00  0.00    +0.026 A 
ATOM     14  C   UNL     1      14.348   6.921  19.673  0.00  0.00    +0.022 A 
ATOM     15  C   UNL     1      16.212   8.856  20.521  0.00  0.00    +0.259 A 
ATOM     16  C   UNL     1      16.519   7.387  20.650  0.00  0.00    +0.040 A 
ATOM     17  C   UNL     1      15.606   6.503  20.224  0.00  0.00    +0.015 A 
ENDROOT
BRANCH  16  19
ATOM     19  C   UNL     1      17.776   6.961  21.212  0.00  0.00    +0.014 C 
ATOM     21  C   UNL     1      18.693   6.284  20.511  0.00  0.00    +0.008 C 
BRANCH  21  25
ATOM      1 CL   UNL     1      23.928   4.404  22.667  0.00  0.00    -0.084 Cl
ATOM     25  C   UNL     1      19.986   5.819  21.044  0.00  0.00    -0.025 A 
ATOM     26  C   UNL     1      20.534   6.455  22.147  0.00  0.00    +0.009 A 
ATOM     27  C   UNL     1      20.629   4.756  20.432  0.00  0.00    +0.009 A 
ATOM     28  C   UNL     1      21.758   6.016  22.650  0.00  0.00    +0.020 A 
ATOM     29  C   UNL     1      21.854   4.317  20.936  0.00  0.00    +0.020 A 
ATOM     30  C   UNL     1      22.418   4.947  22.045  0.00  0.00    +0.041 A 
ENDBRANCH  21  25
ENDBRANCH  16  19
BRANCH   3  13
ATOM     13  C   UNL     1      11.059   9.971  22.196  0.00  0.00    +0.139 C 
BRANCH  13  18
ATOM      5  N   UNL     1      10.598  11.385  24.107  0.00  0.00    -0.259 NA
ATOM     18  C   UNL     1      11.546  10.845  23.315  0.00  0.00    +0.055 A 
ATOM     20  C   UNL     1      12.905  11.045  23.467  0.00  0.00    +0.024 A 
ATOM     22  C   UNL     1      13.322  11.861  24.512  0.00  0.00    +0.003 A 
ATOM     23  C   UNL     1      11.042  12.172  25.112  0.00  0.00    +0.111 A 
ATOM     24  C   UNL     1      12.381  12.438  25.356  0.00  0.00    +0.020 A 
ENDBRANCH  13  18
ENDBRANCH   3  13
TORSDOF 4
ENDMDL
MODEL 3
REMARK VINA RESULT:      -7.4     28.020     30.701
REMARK  Name = 7051752
REMARK  4 active torsions:
REMARK  status: ('A' for Active; 'I' for Inactive)
REMARK    1  A    between atoms: N_3  and  C_13
REMARK    2  A    between atoms: C_13  and  C_18
REMARK    3  A    between atoms: C_16  and  C_19
REMARK    4  A    between atoms: C_21  and  C_25
REMARK                            x       y       z     vdW  Elec       q    Type
REMARK                         _______ _______ _______ _____ _____    ______ ____
ROOT
ATOM      2  O   UNL     1      -6.255 -11.326  10.972  0.00  0.00    -0.267 OA
ATOM      3  N   UNL     1      -3.205 -11.100  14.937  0.00  0.00    -0.296 NA
ATOM      4  N   UNL     1      -4.127 -11.498  11.907  0.00  0.00    -0.311 N 
ATOM      6  C   UNL     1      -3.536 -13.248  13.686  0.00  0.00    +0.024 C 
ATOM      7  C   UNL     1      -1.831 -11.663  12.926  0.00  0.00    +0.050 C 
ATOM      8  C   UNL     1      -2.132 -13.148  13.104  0.00  0.00    +0.017 C 
ATOM      9  C   UNL     1      -3.601 -12.510  15.040  0.00  0.00    +0.090 C 
ATOM     10  C   UNL     1      -1.886 -10.957  14.301  0.00  0.00    +0.094 C 
ATOM     11  C   UNL     1      -4.537 -12.690  12.663  0.00  0.00    +0.130 C 
ATOM     12  C   UNL     1      -2.814 -11.026  11.962  0.00  0.00    +0.026 A 
ATOM     14  C   UNL     1      -2.433 -10.003  11.180  0.00  0.00    +0.022 A 
ATOM     15  C   UNL     1      -5.093 -10.923  11.057  0.00  0.00    +0.259 A 
ATOM     16  C   UNL     1      -4.644  -9.760  10.212  0.00  0.00    +0.040 A 
ATOM     17  C   UNL     1      -3.367  -9.365  10.296  0.00  0.00    +0.015 A 
ENDROOT
BRANCH  16  19
ATOM     19  C   UNL     1      -5.579  -9.108   9.330  0.00  0.00    +0.014 C 
ATOM     21  C   UNL     1      -5.849  -9.556   8.098  0.00  0.00    +0.008 C 
BRANCH  21  25
ATOM      1 CL   UNL     1      -9.653  -6.975   4.295  0.00  0.00    -0.084 Cl
ATOM     25  C   UNL     1      -6.789  -8.919   7.158  0.00  0.00    -0.025 A 
ATOM     26  C   UNL     1      -6.707  -9.218   5.808  0.00  0.00    +0.009 A 
ATOM     27  C   UNL     1      -7.736  -8.031   7.644  0.00  0.00    +0.009 A 
ATOM     28  C   UNL     1      -7.597  -8.615   4.919  0.00  0.00    +0.020 A 
ATOM     29  C   UNL     1      -8.625  -7.428   6.755  0.00  0.00    +0.020 A 
ATOM     30  C   UNL     1      -8.555  -7.719   5.392  0.00  0.00    +0.041 A 
ENDBRANCH  21  25
ENDBRANCH  16  19
BRANCH   3  13
ATOM     13  C   UNL     1      -3.229 -10.451  16.244  0.00  0.00    +0.139 C 
BRANCH  13  18
ATOM      5  N   UNL     1      -5.502  -9.672  15.950  0.00  0.00    -0.259 NA
ATOM     18  C   UNL     1      -4.627 -10.291  16.767  0.00  0.00    +0.055 A 
ATOM     20  C   UNL     1      -4.931 -10.773  18.026  0.00  0.00    +0.024 A 
ATOM     22  C   UNL     1      -6.234 -10.607  18.481  0.00  0.00    +0.003 A 
ATOM     23  C   UNL     1      -6.760  -9.529  16.427  0.00  0.00    +0.111 A 
ATOM     24  C   UNL     1      -7.172  -9.976  17.673  0.00  0.00    +0.020 A 
ENDBRANCH  13  18
ENDBRANCH   3  13
TORSDOF 4
ENDMDL
MODEL 4
REMARK VINA RESULT:      -7.3     28.147     31.060
REMARK  Name = 7051752
REMARK  4 active torsions:
REMARK  status: ('A' for Active; 'I' for Inactive)
REMARK    1  A    between atoms: N_3  and  C_13
REMARK    2  A    between atoms: C_13  and  C_18
REMARK    3  A    between atoms: C_16  and  C_19
REMARK    4  A    between atoms: C_21  and  C_25
REMARK                            x       y       z     vdW  Elec       q    Type
REMARK                         _______ _______ _______ _____ _____    ______ ____
ROOT
ATOM      2  O   UNL     1     -14.827   9.184  20.133  0.00  0.00    -0.267 OA
ATOM      3  N   UNL     1     -11.513   9.220  16.379  0.00  0.00    -0.296 NA
ATOM      4  N   UNL     1     -12.629   9.312  19.368  0.00  0.00    -0.311 N 
ATOM      6  C   UNL     1     -11.797  11.218  17.869  0.00  0.00    +0.024 C 
ATOM      7  C   UNL     1     -10.258   9.431  18.530  0.00  0.00    +0.050 C 
ATOM      8  C   UNL     1     -10.448  10.945  18.523  0.00  0.00    +0.017 C 
ATOM      9  C   UNL     1     -11.809  10.658  16.430  0.00  0.00    +0.090 C 
ATOM     10  C   UNL     1     -10.257   8.904  17.076  0.00  0.00    +0.094 C 
ATOM     11  C   UNL     1     -12.904  10.614  18.744  0.00  0.00    +0.130 C 
ATOM     12  C   UNL     1     -11.349   8.755  19.339  0.00  0.00    +0.026 A 
ATOM     14  C   UNL     1     -11.094   7.619  20.008  0.00  0.00    +0.022 A 
ATOM     15  C   UNL     1     -13.691   8.710  20.073  0.00  0.00    +0.259 A 
ATOM     16  C   UNL     1     -13.382   7.423  20.791  0.00  0.00    +0.040 A 
ATOM     17  C   UNL     1     -12.130   6.948  20.741  0.00  0.00    +0.015 A 
ENDROOT
BRANCH  16  19
ATOM     19  C   UNL     1     -14.420   6.738  21.520  0.00  0.00    +0.014 C 
ATOM     21  C   UNL     1     -14.246   5.531  22.070  0.00  0.00    +0.008 C 
BRANCH  21  25
ATOM      1 CL   UNL     1     -18.426   2.527  25.085  0.00  0.00    -0.084 Cl
ATOM     25  C   UNL     1     -15.278   4.789  22.816  0.00  0.00    -0.025 A 
ATOM     26  C   UNL     1     -14.948   4.192  24.021  0.00  0.00    +0.009 A 
ATOM     27  C   UNL     1     -16.559   4.702  22.295  0.00  0.00    +0.009 A 
ATOM     28  C   UNL     1     -15.926   3.489  24.726  0.00  0.00    +0.020 A 
ATOM     29  C   UNL     1     -17.537   3.999  23.000  0.00  0.00    +0.020 A 
ATOM     30  C   UNL     1     -17.220   3.393  24.215  0.00  0.00    +0.041 A 
ENDBRANCH  21  25
ENDBRANCH  16  19
BRANCH   3  13
ATOM     13  C   UNL     1     -11.482   8.740  15.001  0.00  0.00    +0.139 C 
BRANCH  13  18
ATOM      5  N   UNL     1     -12.807   7.523  13.380  0.00  0.00    -0.259 NA
ATOM     18  C   UNL     1     -12.776   8.093  14.601  0.00  0.00    +0.055 A 
ATOM     20  C   UNL     1     -13.838   8.116  15.485  0.00  0.00    +0.024 A 
ATOM     22  C   UNL     1     -15.022   7.508  15.084  0.00  0.00    +0.003 A 
ATOM     23  C   UNL     1     -13.975   6.942  13.025  0.00  0.00    +0.111 A 
ATOM     24  C   UNL     1     -15.101   6.907  13.834  0.00  0.00    +0.020 A 
ENDBRANCH  13  18
ENDBRANCH   3  13
TORSDOF 4
ENDMDL
MODEL 5
REMARK VINA RESULT:      -7.1     23.728     27.686
REMARK  Name = 7051752
REMARK  4 active torsions:
REMARK  status: ('A' for Active; 'I' for Inactive)
REMARK    1  A    between atoms: N_3  and  C_13
REMARK    2  A    between atoms: C_13  and  C_18
REMARK    3  A    between atoms: C_16  and  C_19
REMARK    4  A    between atoms: C_21  and  C_25
REMARK                            x       y       z     vdW  Elec       q    Type
REMARK                         _______ _______ _______ _____ _____    ______ ____
ROOT
ATOM      2  O   UNL     1      -6.456   9.961   5.336  0.00  0.00    -0.267 OA
ATOM      3  N   UNL     1      -1.720  10.482   3.796  0.00  0.00    -0.296 NA
ATOM      4  N   UNL     1      -4.191   9.447   5.531  0.00  0.00    -0.311 N 
ATOM      6  C   UNL     1      -2.418  11.211   6.092  0.00  0.00    +0.024 C 
ATOM      7  C   UNL     1      -1.744   8.886   5.720  0.00  0.00    +0.050 C 
ATOM      8  C   UNL     1      -1.665  10.041   6.713  0.00  0.00    +0.017 C 
ATOM      9  C   UNL     1      -1.771  11.601   4.746  0.00  0.00    +0.090 C 
ATOM     10  C   UNL     1      -1.074   9.302   4.390  0.00  0.00    +0.094 C 
ATOM     11  C   UNL     1      -3.897  10.826   5.945  0.00  0.00    +0.130 C 
ATOM     12  C   UNL     1      -3.186   8.478   5.483  0.00  0.00    +0.026 A 
ATOM     14  C   UNL     1      -3.495   7.201   5.209  0.00  0.00    +0.022 A 
ATOM     15  C   UNL     1      -5.543   9.134   5.284  0.00  0.00    +0.259 A 
ATOM     16  C   UNL     1      -5.856   7.698   4.954  0.00  0.00    +0.040 A 
ATOM     17  C   UNL     1      -4.851   6.812   4.940  0.00  0.00    +0.015 A 
ENDROOT
BRANCH  16  19
ATOM     19  C   UNL     1      -7.213   7.304   4.672  0.00  0.00    +0.014 C 
ATOM     21  C   UNL     1      -8.072   6.924   5.626  0.00  0.00    +0.008 C 
BRANCH  21  25
ATOM      1 CL   UNL     1     -13.708   5.225   4.656  0.00  0.00    -0.084 Cl
ATOM     25  C   UNL     1      -9.464   6.504   5.386  0.00  0.00    -0.025 A 
ATOM     26  C   UNL     1      -9.709   5.320   4.710  0.00  0.00    +0.009 A 
ATOM     27  C   UNL     1     -10.501   7.302   5.841  0.00  0.00    +0.009 A 
ATOM     28  C   UNL     1     -11.027   4.922   4.483  0.00  0.00    +0.020 A 
ATOM     29  C   UNL     1     -11.819   6.905   5.614  0.00  0.00    +0.020 A 
ATOM     30  C   UNL     1     -12.082   5.715   4.935  0.00  0.00    +0.041 A 
ENDBRANCH  21  25
ENDBRANCH  16  19
BRANCH   3  13
ATOM     13  C   UNL     1      -1.056  10.875   2.557  0.00  0.00    +0.139 C 
BRANCH  13  18
ATOM      5  N   UNL     1      -3.061  10.586   1.230  0.00  0.00    -0.259 NA
ATOM     18  C   UNL     1      -1.745  10.315   1.347  0.00  0.00    +0.055 A 
ATOM     20  C   UNL     1      -1.013   9.571   0.442  0.00  0.00    +0.024 A 
ATOM     22  C   UNL     1      -1.681   9.065  -0.667  0.00  0.00    +0.003 A 
ATOM     23  C   UNL     1      -3.676  10.079   0.139  0.00  0.00    +0.111 A 
ATOM     24  C   UNL     1      -3.038   9.320  -0.830  0.00  0.00    +0.020 A 
ENDBRANCH  13  18
ENDBRANCH   3  13
TORSDOF 4
ENDMDL
MODEL 6
REMARK VINA RESULT:      -7.0     29.587     31.845
REMARK  Name = 7051752
REMARK  4 active torsions:
REMARK  status: ('A' for Active; 'I' for Inactive)
REMARK    1  A    between atoms: N_3  and  C_13
REMARK    2  A    between atoms: C_13  and  C_18
REMARK    3  A    between atoms: C_16  and  C_19
REMARK    4  A    between atoms: C_21  and  C_25
REMARK                            x       y       z     vdW  Elec       q    Type
REMARK                         _______ _______ _______ _____ _____    ______ ____
ROOT
ATOM      2  O   UNL     1     -11.221  -9.680  14.005  0.00  0.00    -0.267 OA
ATOM      3  N   UNL     1     -13.020  -5.613  11.704  0.00  0.00    -0.296 NA
ATOM      4  N   UNL     1     -12.394  -7.666  14.065  0.00  0.00    -0.311 N 
ATOM      6  C   UNL     1     -14.562  -7.291  12.750  0.00  0.00    +0.024 C 
ATOM      7  C   UNL     1     -13.643  -5.481  14.121  0.00  0.00    +0.050 C 
ATOM      8  C   UNL     1     -14.897  -6.314  13.870  0.00  0.00    +0.017 C 
ATOM      9  C   UNL     1     -14.155  -6.518  11.478  0.00  0.00    +0.090 C 
ATOM     10  C   UNL     1     -13.272  -4.707  12.835  0.00  0.00    +0.094 C 
ATOM     11  C   UNL     1     -13.462  -8.245  13.237  0.00  0.00    +0.130 C 
ATOM     12  C   UNL     1     -12.491  -6.364  14.561  0.00  0.00    +0.026 A 
ATOM     14  C   UNL     1     -11.558  -5.894  15.404  0.00  0.00    +0.022 A 
ATOM     15  C   UNL     1     -11.327  -8.520  14.411  0.00  0.00    +0.259 A 
ATOM     16  C   UNL     1     -10.282  -7.957  15.337  0.00  0.00    +0.040 A 
ATOM     17  C   UNL     1     -10.439  -6.706  15.793  0.00  0.00    +0.015 A 
ENDROOT
BRANCH  16  19
ATOM     19  C   UNL     1      -9.151  -8.763  15.722  0.00  0.00    +0.014 C 
ATOM     21  C   UNL     1      -8.595  -8.700  16.938  0.00  0.00    +0.008 C 
BRANCH  21  25
ATOM      1 CL   UNL     1      -3.895 -11.922  18.704  0.00  0.00    -0.084 Cl
ATOM     25  C   UNL     1      -7.434  -9.496  17.374  0.00  0.00    -0.025 A 
ATOM     26  C   UNL     1      -7.491 -10.176  18.580  0.00  0.00    +0.009 A 
ATOM     27  C   UNL     1      -6.306  -9.548  16.570  0.00  0.00    +0.009 A 
ATOM     28  C   UNL     1      -6.392 -10.929  18.993  0.00  0.00    +0.020 A 
ATOM     29  C   UNL     1      -5.208 -10.302  16.983  0.00  0.00    +0.020 A 
ATOM     30  C   UNL     1      -5.250 -10.992  18.195  0.00  0.00    +0.041 A 
ENDBRANCH  21  25
ENDBRANCH  16  19
BRANCH   3  13
ATOM     13  C   UNL     1     -12.699  -4.862  10.493  0.00  0.00    +0.139 C 
BRANCH  13  18
ATOM      5  N   UNL     1     -11.310  -6.741   9.856  0.00  0.00    -0.259 NA
ATOM     18  C   UNL     1     -11.482  -5.405   9.802  0.00  0.00    +0.055 A 
ATOM     20  C   UNL     1     -10.626  -4.527   9.164  0.00  0.00    +0.024 A 
ATOM     22  C   UNL     1      -9.508  -5.061   8.534  0.00  0.00    +0.003 A 
ATOM     23  C   UNL     1     -10.212  -7.223   9.231  0.00  0.00    +0.111 A 
ATOM     24  C   UNL     1      -9.290  -6.434   8.563  0.00  0.00    +0.020 A 
ENDBRANCH  13  18
ENDBRANCH   3  13
TORSDOF 4
ENDMDL
MODEL 7
REMARK VINA RESULT:      -6.8     14.754     18.460
REMARK  Name = 7051752
REMARK  4 active torsions:
REMARK  status: ('A' for Active; 'I' for Inactive)
REMARK    1  A    between atoms: N_3  and  C_13
REMARK    2  A    between atoms: C_13  and  C_18
REMARK    3  A    between atoms: C_16  and  C_19
REMARK    4  A    between atoms: C_21  and  C_25
REMARK                            x       y       z     vdW  Elec       q    Type
REMARK                         _______ _______ _______ _____ _____    ______ ____
ROOT
ATOM      2  O   UNL     1       9.480   7.479   1.824  0.00  0.00    -0.267 OA
ATOM      3  N   UNL     1      11.662   7.815   6.318  0.00  0.00    -0.296 NA
ATOM      4  N   UNL     1       9.723   6.741   4.022  0.00  0.00    -0.311 N 
ATOM      6  C   UNL     1       9.204   8.228   6.044  0.00  0.00    +0.024 C 
ATOM      7  C   UNL     1      10.009   5.942   6.391  0.00  0.00    +0.050 C 
ATOM      8  C   UNL     1       8.885   6.912   6.742  0.00  0.00    +0.017 C 
ATOM      9  C   UNL     1      10.566   8.769   6.530  0.00  0.00    +0.090 C 
ATOM     10  C   UNL     1      11.355   6.502   6.906  0.00  0.00    +0.094 C 
ATOM     11  C   UNL     1       9.168   8.005   4.525  0.00  0.00    +0.130 C 
ATOM     12  C   UNL     1      10.070   5.707   4.894  0.00  0.00    +0.026 A 
ATOM     14  C   UNL     1      10.472   4.522   4.407  0.00  0.00    +0.022 A 
ATOM     15  C   UNL     1       9.795   6.593   2.621  0.00  0.00    +0.259 A 
ATOM     16  C   UNL     1      10.274   5.263   2.105  0.00  0.00    +0.040 A 
ATOM     17  C   UNL     1      10.575   4.304   2.992  0.00  0.00    +0.015 A 
ENDROOT
BRANCH  16  19
ATOM     19  C   UNL     1      10.390   5.041   0.686  0.00  0.00    +0.014 C 
ATOM     21  C   UNL     1      11.174   4.092   0.160  0.00  0.00    +0.008 C 
BRANCH  21  25
ATOM      1 CL   UNL     1      11.811   3.048  -5.679  0.00  0.00    -0.084 Cl
ATOM     25  C   UNL     1      11.331   3.833  -1.282  0.00  0.00    -0.025 A 
ATOM     26  C   UNL     1      12.216   2.854  -1.704  0.00  0.00    +0.009 A 
ATOM     27  C   UNL     1      10.592   4.576  -2.189  0.00  0.00    +0.009 A 
ATOM     28  C   UNL     1      12.365   2.610  -3.069  0.00  0.00    +0.020 A 
ATOM     29  C   UNL     1      10.741   4.332  -3.554  0.00  0.00    +0.020 A 
ATOM     30  C   UNL     1      11.628   3.349  -3.994  0.00  0.00    +0.041 A 
ENDBRANCH  21  25
ENDBRANCH  16  19
BRANCH   3  13
ATOM     13  C   UNL     1      12.921   8.340   6.838  0.00  0.00    +0.139 C 
BRANCH  13  18
ATOM      5  N   UNL     1      13.756   7.499   4.725  0.00  0.00    -0.259 NA
ATOM     18  C   UNL     1      14.060   8.115   5.885  0.00  0.00    +0.055 A 
ATOM     20  C   UNL     1      15.326   8.540   6.241  0.00  0.00    +0.024 A 
ATOM     22  C   UNL     1      16.358   8.316   5.338  0.00  0.00    +0.003 A 
ATOM     23  C   UNL     1      14.785   7.300   3.872  0.00  0.00    +0.111 A 
ATOM     24  C   UNL     1      16.092   7.686   4.128  0.00  0.00    +0.020 A 
ENDBRANCH  13  18
ENDBRANCH   3  13
TORSDOF 4
ENDMDL
MODEL 8
REMARK VINA RESULT:      -6.8     30.243     32.897
REMARK  Name = 7051752
REMARK  4 active torsions:
REMARK  status: ('A' for Active; 'I' for Inactive)
REMARK    1  A    between atoms: N_3  and  C_13
REMARK    2  A    between atoms: C_13  and  C_18
REMARK    3  A    between atoms: C_16  and  C_19
REMARK    4  A    between atoms: C_21  and  C_25
REMARK                            x       y       z     vdW  Elec       q    Type
REMARK                         _______ _______ _______ _____ _____    ______ ____
ROOT
ATOM      2  O   UNL     1     -15.719   8.104  31.183  0.00  0.00    -0.267 OA
ATOM      3  N   UNL     1     -12.187  11.650  31.026  0.00  0.00    -0.296 NA
ATOM      4  N   UNL     1     -14.315   9.619  32.264  0.00  0.00    -0.311 N 
ATOM      6  C   UNL     1     -14.480  12.152  31.907  0.00  0.00    +0.024 C 
ATOM      7  C   UNL     1     -12.781  11.246  33.420  0.00  0.00    +0.050 C 
ATOM      8  C   UNL     1     -13.937  12.238  33.328  0.00  0.00    +0.017 C 
ATOM      9  C   UNL     1     -13.371  12.508  30.895  0.00  0.00    +0.090 C 
ATOM     10  C   UNL     1     -11.681  11.639  32.407  0.00  0.00    +0.094 C 
ATOM     11  C   UNL     1     -15.055  10.747  31.681  0.00  0.00    +0.130 C 
ATOM     12  C   UNL     1     -13.263   9.832  33.158  0.00  0.00    +0.026 A 
ATOM     14  C   UNL     1     -12.674   8.789  33.763  0.00  0.00    +0.022 A 
ATOM     15  C   UNL     1     -14.782   8.326  31.954  0.00  0.00    +0.259 A 
ATOM     16  C   UNL     1     -14.084   7.174  32.627  0.00  0.00    +0.040 A 
ATOM     17  C   UNL     1     -13.093   7.444  33.488  0.00  0.00    +0.015 A 
ENDROOT
BRANCH  16  19
ATOM     19  C   UNL     1     -14.493   5.821  32.348  0.00  0.00    +0.014 C 
ATOM     21  C   UNL     1     -13.637   4.793  32.324  0.00  0.00    +0.008 C 
BRANCH  21  25
ATOM      1 CL   UNL     1     -15.130  -0.862  31.152  0.00  0.00    -0.084 Cl
ATOM     25  C   UNL     1     -14.006   3.396  32.035  0.00  0.00    -0.025 A 
ATOM     26  C   UNL     1     -14.480   2.593  33.059  0.00  0.00    +0.009 A 
ATOM     27  C   UNL     1     -13.870   2.912  30.744  0.00  0.00    +0.009 A 
ATOM     28  C   UNL     1     -14.829   1.270  32.785  0.00  0.00    +0.020 A 
ATOM     29  C   UNL     1     -14.219   1.590  30.469  0.00  0.00    +0.020 A 
ATOM     30  C   UNL     1     -14.699   0.769  31.490  0.00  0.00    +0.041 A 
ENDBRANCH  21  25
ENDBRANCH  16  19
BRANCH   3  13
ATOM     13  C   UNL     1     -11.142  12.051  30.089  0.00  0.00    +0.139 C 
BRANCH  13  18
ATOM      5  N   UNL     1     -11.746  12.413  27.772  0.00  0.00    -0.259 NA
ATOM     18  C   UNL     1     -11.387  11.513  28.709  0.00  0.00    +0.055 A 
ATOM     20  C   UNL     1     -11.236  10.158  28.481  0.00  0.00    +0.024 A 
ATOM     22  C   UNL     1     -11.472   9.692  27.193  0.00  0.00    +0.003 A 
ATOM     23  C   UNL     1     -11.966  11.923  26.532  0.00  0.00    +0.111 A 
ATOM     24  C   UNL     1     -11.843  10.584  26.194  0.00  0.00    +0.020 A 
ENDBRANCH  13  18
ENDBRANCH   3  13
TORSDOF 4
ENDMDL
MODEL 9
REMARK VINA RESULT:      -6.8     12.849     14.778
REMARK  Name = 7051752
REMARK  4 active torsions:
REMARK  status: ('A' for Active; 'I' for Inactive)
REMARK    1  A    between atoms: N_3  and  C_13
REMARK    2  A    between atoms: C_13  and  C_18
REMARK    3  A    between atoms: C_16  and  C_19
REMARK    4  A    between atoms: C_21  and  C_25
REMARK                            x       y       z     vdW  Elec       q    Type
REMARK                         _______ _______ _______ _____ _____    ______ ____
ROOT
ATOM      2  O   UNL     1      13.968   6.203   7.388  0.00  0.00    -0.267 OA
ATOM      3  N   UNL     1       9.644   7.107   5.030  0.00  0.00    -0.296 NA
ATOM      4  N   UNL     1      12.140   7.585   6.961  0.00  0.00    -0.311 N 
ATOM      6  C   UNL     1       9.733   6.907   7.528  0.00  0.00    +0.024 C 
ATOM      7  C   UNL     1      10.170   9.076   6.477  0.00  0.00    +0.050 C 
ATOM      8  C   UNL     1       9.504   8.406   7.676  0.00  0.00    +0.017 C 
ATOM      9  C   UNL     1       9.115   6.405   6.207  0.00  0.00    +0.090 C 
ATOM     10  C   UNL     1       9.517   8.565   5.172  0.00  0.00    +0.094 C 
ATOM     11  C   UNL     1      11.240   6.626   7.617  0.00  0.00    +0.130 C 
ATOM     12  C   UNL     1      11.662   8.801   6.468  0.00  0.00    +0.026 A 
ATOM     14  C   UNL     1      12.517   9.709   5.972  0.00  0.00    +0.022 A 
ATOM     15  C   UNL     1      13.511   7.259   6.945  0.00  0.00    +0.259 A 
ATOM     16  C   UNL     1      14.443   8.286   6.358  0.00  0.00    +0.040 A 
ATOM     17  C   UNL     1      13.926   9.441   5.917  0.00  0.00    +0.015 A 
ENDROOT
BRANCH  16  19
ATOM     19  C   UNL     1      15.858   8.019   6.292  0.00  0.00    +0.014 C 
ATOM     21  C   UNL     1      16.697   8.730   5.529  0.00  0.00    +0.008 C 
BRANCH  21  25
ATOM      1 CL   UNL     1      22.566   7.755   5.089  0.00  0.00    -0.084 Cl
ATOM     25  C   UNL     1      18.146   8.489   5.421  0.00  0.00    -0.025 A 
ATOM     26  C   UNL     1      18.951   8.679   6.532  0.00  0.00    +0.009 A 
ATOM     27  C   UNL     1      18.677   8.078   4.208  0.00  0.00    +0.009 A 
ATOM     28  C   UNL     1      20.324   8.451   6.430  0.00  0.00    +0.020 A 
ATOM     29  C   UNL     1      20.049   7.850   4.106  0.00  0.00    +0.020 A 
ATOM     30  C   UNL     1      20.873   8.037   5.216  0.00  0.00    +0.041 A 
ENDBRANCH  21  25
ENDBRANCH  16  19
BRANCH   3  13
ATOM     13  C   UNL     1       8.998   6.641   3.807  0.00  0.00    +0.139 C 
BRANCH  13  18
ATOM      5  N   UNL     1      10.462   4.728   3.560  0.00  0.00    -0.259 NA
ATOM     18  C   UNL     1       9.921   5.810   2.964  0.00  0.00    +0.055 A 
ATOM     20  C   UNL     1      10.159   6.189   1.657  0.00  0.00    +0.024 A 
ATOM     22  C   UNL     1      11.020   5.398   0.904  0.00  0.00    +0.003 A 
ATOM     23  C   UNL     1      11.293   3.983   2.797  0.00  0.00    +0.111 A 
ATOM     24  C   UNL     1      11.601   4.272   1.477  0.00  0.00    +0.020 A 
ENDBRANCH  13  18
ENDBRANCH   3  13
TORSDOF 4
ENDMDL
MODEL 10
REMARK VINA RESULT:      -6.8     13.875     17.252
REMARK  Name = 7051752
REMARK  4 active torsions:
REMARK  status: ('A' for Active; 'I' for Inactive)
REMARK    1  A    between atoms: N_3  and  C_13
REMARK    2  A    between atoms: C_13  and  C_18
REMARK    3  A    between atoms: C_16  and  C_19
REMARK    4  A    between atoms: C_21  and  C_25
REMARK                            x       y       z     vdW  Elec       q    Type
REMARK                         _______ _______ _______ _____ _____    ______ ____
ROOT
ATOM      2  O   UNL     1      18.045  -5.614  28.928  0.00  0.00    -0.267 OA
ATOM      3  N   UNL     1      18.997  -5.458  24.014  0.00  0.00    -0.296 NA
ATOM      4  N   UNL     1      18.242  -6.680  26.864  0.00  0.00    -0.311 N 
ATOM      6  C   UNL     1      20.452  -6.784  25.568  0.00  0.00    +0.024 C 
ATOM      7  C   UNL     1      18.441  -7.817  24.627  0.00  0.00    +0.050 C 
ATOM      8  C   UNL     1      19.892  -8.087  25.012  0.00  0.00    +0.017 C 
ATOM      9  C   UNL     1      20.366  -5.673  24.500  0.00  0.00    +0.090 C 
ATOM     10  C   UNL     1      18.390  -6.713  23.545  0.00  0.00    +0.094 C 
ATOM     11  C   UNL     1      19.690  -6.426  26.852  0.00  0.00    +0.130 C 
ATOM     12  C   UNL     1      17.629  -7.407  25.841  0.00  0.00    +0.026 A 
ATOM     14  C   UNL     1      16.327  -7.722  25.927  0.00  0.00    +0.022 A 
ATOM     15  C   UNL     1      17.531  -6.241  27.999  0.00  0.00    +0.259 A 
ATOM     16  C   UNL     1      16.066  -6.586  28.055  0.00  0.00    +0.040 A 
ATOM     17  C   UNL     1      15.540  -7.301  27.051  0.00  0.00    +0.015 A 
ENDROOT
BRANCH  16  19
ATOM     19  C   UNL     1      15.268  -6.158  29.175  0.00  0.00    +0.014 C 
ATOM     21  C   UNL     1      14.141  -6.779  29.544  0.00  0.00    +0.008 C 
BRANCH  21  25
ATOM      1 CL   UNL     1      10.686  -5.139  34.123  0.00  0.00    -0.084 Cl
ATOM     25  C   UNL     1      13.288  -6.373  30.675  0.00  0.00    -0.025 A 
ATOM     26  C   UNL     1      13.626  -5.250  31.412  0.00  0.00    +0.009 A 
ATOM     27  C   UNL     1      12.164  -7.125  30.981  0.00  0.00    +0.009 A 
ATOM     28  C   UNL     1      12.818  -4.866  32.483  0.00  0.00    +0.020 A 
ATOM     29  C   UNL     1      11.357  -6.741  32.051  0.00  0.00    +0.020 A 
ATOM     30  C   UNL     1      11.684  -5.612  32.802  0.00  0.00    +0.041 A 
ENDBRANCH  21  25
ENDBRANCH  16  19
BRANCH   3  13
ATOM     13  C   UNL     1      18.965  -4.439  22.970  0.00  0.00    +0.139 C 
BRANCH  13  18
ATOM      5  N   UNL     1      18.150  -3.022  24.757  0.00  0.00    -0.259 NA
ATOM     18  C   UNL     1      18.268  -3.189  23.424  0.00  0.00    +0.055 A 
ATOM     20  C   UNL     1      17.796  -2.302  22.476  0.00  0.00    +0.024 A 
ATOM     22  C   UNL     1      17.154  -1.156  22.930  0.00  0.00    +0.003 A 
ATOM     23  C   UNL     1      17.521  -1.896  25.160  0.00  0.00    +0.111 A 
ATOM     24  C   UNL     1      17.010  -0.940  24.295  0.00  0.00    +0.020 A 
ENDBRANCH  13  18
ENDBRANCH   3  13
TORSDOF 4
ENDMDL
