MODEL 1
REMARK VINA RESULT:      -6.0      0.000      0.000
REMARK  Name = 38027614
REMARK  14 active torsions:
REMARK  status: ('A' for Active; 'I' for Inactive)
REMARK    1  A    between atoms: S_1  and  N_6
REMARK    2  A    between atoms: S_1  and  C_21
REMARK    3  A    between atoms: O_5  and  C_25
REMARK    4  A    between atoms: O_5  and  C_29
REMARK    5  A    between atoms: N_6  and  C_15
REMARK    6  A    between atoms: N_7  and  C_22
REMARK    7  A    between atoms: C_8  and  C_12
REMARK    8  A    between atoms: C_9  and  C_15
REMARK    9  A    between atoms: C_11  and  C_16
REMARK   10  A    between atoms: C_12  and  C_17
REMARK   11  A    between atoms: C_12  and  C_18
REMARK   12  A    between atoms: C_13  and  C_19
REMARK   13  A    between atoms: C_16  and  C_20
REMARK   14  A    between atoms: C_22  and  C_25
REMARK                            x       y       z     vdW  Elec       q    Type
REMARK                         _______ _______ _______ _____ _____    ______ ____
ROOT
ATOM      8  C   UNL     1      14.762   8.662  20.292  0.00  0.00    +0.000 C 
ATOM      9  C   UNL     1      14.333   7.316  19.658  0.00  0.00    +0.030 C 
ATOM     10  C   UNL     1      14.331   8.723  21.766  0.00  0.00    +0.012 C 
ATOM     11  C   UNL     1      12.808   8.566  21.935  0.00  0.00    +0.023 C 
ATOM     13  C   UNL     1      12.266   7.411  21.117  0.00  0.00    -0.073 C 
ATOM     14  C   UNL     1      12.967   6.857  20.113  0.00  0.00    -0.023 C 
ATOM     19  C   UNL     1      10.917   6.877  21.510  0.00  0.00    +0.039 C 
ENDROOT
BRANCH   8  12
ATOM     12  C   UNL     1      16.274   8.887  20.185  0.00  0.00    -0.013 C 
ATOM     17  C   UNL     1      16.654  10.241  20.772  0.00  0.00    +0.007 C 
ATOM     18  C   UNL     1      17.029   7.761  20.885  0.00  0.00    +0.007 C 
ENDBRANCH   8  12
BRANCH   9  15
ATOM     15  C   UNL     1      14.363   7.391  18.127  0.00  0.00    +0.113 C 
BRANCH  15   6
ATOM      6  N   UNL     1      13.016   7.724  17.636  0.00  0.00    -0.189 NA
ATOM     30  H   UNL     1      12.318   6.970  17.679  0.00  0.00    +0.148 HD
BRANCH   6   1
ATOM      1  S   UNL     1      12.812   8.906  16.426  0.00  0.00    +0.058 S 
ATOM      3  O   UNL     1      11.406   9.245  16.321  0.00  0.00    -0.153 OA
ATOM      4  O   UNL     1      13.559   8.513  15.247  0.00  0.00    -0.153 OA
BRANCH   1  21
ATOM     21  C   UNL     1      13.655  10.291  17.132  0.00  0.00    +0.105 A 
ATOM     23  C   UNL     1      13.142  10.911  18.272  0.00  0.00    +0.028 A 
ATOM     24  C   UNL     1      14.831  10.762  16.551  0.00  0.00    +0.028 A 
ATOM     26  C   UNL     1      13.807  12.003  18.830  0.00  0.00    +0.002 A 
ATOM     27  C   UNL     1      15.496  11.855  17.108  0.00  0.00    +0.002 A 
ATOM     28  C   UNL     1      14.983  12.476  18.247  0.00  0.00    +0.000 A 
ENDBRANCH   1  21
ENDBRANCH   6   1
ENDBRANCH  15   6
ENDBRANCH   9  15
BRANCH  11  16
ATOM     16  C   UNL     1      12.078   9.870  21.592  0.00  0.00    +0.103 C 
BRANCH  16  20
ATOM      2  O   UNL     1      13.104  11.972  22.211  0.00  0.00    -0.276 OA
ATOM      7  N   UNL     1      11.930  10.758  23.808  0.00  0.00    -0.313 N 
ATOM     20  C   UNL     1      12.442  10.991  22.539  0.00  0.00    +0.214 C 
ATOM     31  H   UNL     1      11.392   9.915  23.984  0.00  0.00    +0.149 HD
BRANCH   7  22
ATOM     22  C   UNL     1      12.124  11.664  24.916  0.00  0.00    +0.132 C 
BRANCH  22  25
ATOM     25  C   UNL     1      10.825  12.337  25.320  0.00  0.00    +0.178 C 
BRANCH  25   5
ATOM      5  O   UNL     1      10.289  13.038  24.205  0.00  0.00    -0.381 OA
ATOM     29  C   UNL     1      10.157  14.427  24.477  0.00  0.00    +0.194 C 
ENDBRANCH  25   5
ENDBRANCH  22  25
ENDBRANCH   7  22
ENDBRANCH  16  20
ENDBRANCH  11  16
TORSDOF 10
ENDMDL
MODEL 2
REMARK VINA RESULT:      -5.7      3.049      6.310
REMARK  Name = 38027614
REMARK  14 active torsions:
REMARK  status: ('A' for Active; 'I' for Inactive)
REMARK    1  A    between atoms: S_1  and  N_6
REMARK    2  A    between atoms: S_1  and  C_21
REMARK    3  A    between atoms: O_5  and  C_25
REMARK    4  A    between atoms: O_5  and  C_29
REMARK    5  A    between atoms: N_6  and  C_15
REMARK    6  A    between atoms: N_7  and  C_22
REMARK    7  A    between atoms: C_8  and  C_12
REMARK    8  A    between atoms: C_9  and  C_15
REMARK    9  A    between atoms: C_11  and  C_16
REMARK   10  A    between atoms: C_12  and  C_17
REMARK   11  A    between atoms: C_12  and  C_18
REMARK   12  A    between atoms: C_13  and  C_19
REMARK   13  A    between atoms: C_16  and  C_20
REMARK   14  A    between atoms: C_22  and  C_25
REMARK                            x       y       z     vdW  Elec       q    Type
REMARK                         _______ _______ _______ _____ _____    ______ ____
ROOT
ATOM      8  C   UNL     1      13.306  11.261  22.782  0.00  0.00    +0.000 C 
ATOM      9  C   UNL     1      12.381  11.380  21.545  0.00  0.00    +0.030 C 
ATOM     10  C   UNL     1      14.677  11.890  22.490  0.00  0.00    +0.012 C 
ATOM     11  C   UNL     1      15.378  11.227  21.289  0.00  0.00    +0.023 C 
ATOM     13  C   UNL     1      14.442  11.065  20.109  0.00  0.00    -0.073 C 
ATOM     14  C   UNL     1      13.106  11.150  20.240  0.00  0.00    -0.023 C 
ATOM     19  C   UNL     1      15.078  10.847  18.764  0.00  0.00    +0.039 C 
ENDROOT
BRANCH   8  12
ATOM     12  C   UNL     1      12.689  11.917  24.021  0.00  0.00    -0.013 C 
ATOM     17  C   UNL     1      13.656  11.849  25.198  0.00  0.00    +0.007 C 
ATOM     18  C   UNL     1      12.301  13.362  23.721  0.00  0.00    +0.007 C 
ENDBRANCH   8  12
BRANCH   9  15
ATOM     15  C   UNL     1      11.194  10.415  21.647  0.00  0.00    +0.113 C 
BRANCH  15   6
ATOM      6  N   UNL     1      11.702   9.041  21.786  0.00  0.00    -0.189 NA
ATOM     30  H   UNL     1      12.592   8.935  22.290  0.00  0.00    +0.148 HD
BRANCH   6   1
ATOM      1  S   UNL     1      11.326   7.865  20.611  0.00  0.00    +0.058 S 
ATOM      3  O   UNL     1      10.555   8.481  19.549  0.00  0.00    -0.153 OA
ATOM      4  O   UNL     1      10.835   6.673  21.273  0.00  0.00    -0.153 OA
BRANCH   1  21
ATOM     21  C   UNL     1      12.927   7.477  19.968  0.00  0.00    +0.105 A 
ATOM     23  C   UNL     1      13.208   7.696  18.620  0.00  0.00    +0.028 A 
ATOM     24  C   UNL     1      13.907   6.952  20.809  0.00  0.00    +0.028 A 
ATOM     26  C   UNL     1      14.471   7.390  18.112  0.00  0.00    +0.002 A 
ATOM     27  C   UNL     1      15.171   6.645  20.301  0.00  0.00    +0.002 A 
ATOM     28  C   UNL     1      15.452   6.864  18.953  0.00  0.00    +0.000 A 
ENDBRANCH   1  21
ENDBRANCH   6   1
ENDBRANCH  15   6
ENDBRANCH   9  15
BRANCH  11  16
ATOM     16  C   UNL     1      15.999   9.883  21.686  0.00  0.00    +0.103 C 
BRANCH  16  20
ATOM      2  O   UNL     1      18.133  10.754  20.949  0.00  0.00    -0.276 OA
ATOM      7  N   UNL     1      18.068   8.813  22.227  0.00  0.00    -0.313 N 
ATOM     20  C   UNL     1      17.506   9.894  21.562  0.00  0.00    +0.214 C 
ATOM     31  H   UNL     1      17.465   8.152  22.708  0.00  0.00    +0.149 HD
BRANCH   7  22
ATOM     22  C   UNL     1      19.490   8.570  22.275  0.00  0.00    +0.132 C 
BRANCH  22  25
ATOM     25  C   UNL     1      19.874   7.342  21.468  0.00  0.00    +0.178 C 
BRANCH  25   5
ATOM      5  O   UNL     1      18.746   6.485  21.348  0.00  0.00    -0.381 OA
ATOM     29  C   UNL     1      18.770   5.759  20.126  0.00  0.00    +0.194 C 
ENDBRANCH  25   5
ENDBRANCH  22  25
ENDBRANCH   7  22
ENDBRANCH  16  20
ENDBRANCH  11  16
TORSDOF 10
ENDMDL
MODEL 3
REMARK VINA RESULT:      -5.5      4.197      6.642
REMARK  Name = 38027614
REMARK  14 active torsions:
REMARK  status: ('A' for Active; 'I' for Inactive)
REMARK    1  A    between atoms: S_1  and  N_6
REMARK    2  A    between atoms: S_1  and  C_21
REMARK    3  A    between atoms: O_5  and  C_25
REMARK    4  A    between atoms: O_5  and  C_29
REMARK    5  A    between atoms: N_6  and  C_15
REMARK    6  A    between atoms: N_7  and  C_22
REMARK    7  A    between atoms: C_8  and  C_12
REMARK    8  A    between atoms: C_9  and  C_15
REMARK    9  A    between atoms: C_11  and  C_16
REMARK   10  A    between atoms: C_12  and  C_17
REMARK   11  A    between atoms: C_12  and  C_18
REMARK   12  A    between atoms: C_13  and  C_19
REMARK   13  A    between atoms: C_16  and  C_20
REMARK   14  A    between atoms: C_22  and  C_25
REMARK                            x       y       z     vdW  Elec       q    Type
REMARK                         _______ _______ _______ _____ _____    ______ ____
ROOT
ATOM      8  C   UNL     1      16.903   8.477  21.387  0.00  0.00    +0.000 C 
ATOM      9  C   UNL     1      16.237   7.704  20.222  0.00  0.00    +0.030 C 
ATOM     10  C   UNL     1      18.422   8.569  21.172  0.00  0.00    +0.012 C 
ATOM     11  C   UNL     1      19.081   7.180  21.067  0.00  0.00    +0.023 C 
ATOM     13  C   UNL     1      18.318   6.264  20.131  0.00  0.00    -0.073 C 
ATOM     14  C   UNL     1      17.053   6.521  19.754  0.00  0.00    -0.023 C 
ATOM     19  C   UNL     1      19.058   5.067  19.603  0.00  0.00    +0.039 C 
ENDROOT
BRANCH   8  12
ATOM     12  C   UNL     1      16.317   9.883  21.547  0.00  0.00    -0.013 C 
ATOM     17  C   UNL     1      15.936  10.459  20.188  0.00  0.00    +0.007 C 
ATOM     18  C   UNL     1      15.111   9.854  22.480  0.00  0.00    +0.007 C 
ENDBRANCH   8  12
BRANCH   9  15
ATOM     15  C   UNL     1      14.829   7.234  20.603  0.00  0.00    +0.113 C 
BRANCH  15   6
ATOM      6  N   UNL     1      14.115   6.816  19.386  0.00  0.00    -0.189 NA
ATOM     30  H   UNL     1      14.625   6.183  18.756  0.00  0.00    +0.148 HD
BRANCH   6   1
ATOM      1  S   UNL     1      12.943   7.835  18.686  0.00  0.00    +0.058 S 
ATOM      3  O   UNL     1      12.025   7.036  17.898  0.00  0.00    -0.153 OA
ATOM      4  O   UNL     1      13.602   8.983  18.097  0.00  0.00    -0.153 OA
BRANCH   1  21
ATOM     21  C   UNL     1      12.073   8.414  20.113  0.00  0.00    +0.105 A 
ATOM     23  C   UNL     1      11.345   7.518  20.896  0.00  0.00    +0.028 A 
ATOM     24  C   UNL     1      12.116   9.765  20.454  0.00  0.00    +0.028 A 
ATOM     26  C   UNL     1      10.660   7.975  22.022  0.00  0.00    +0.002 A 
ATOM     27  C   UNL     1      11.430  10.222  21.580  0.00  0.00    +0.002 A 
ATOM     28  C   UNL     1      10.702   9.327  22.364  0.00  0.00    +0.000 A 
ENDBRANCH   1  21
ENDBRANCH   6   1
ENDBRANCH  15   6
ENDBRANCH   9  15
BRANCH  11  16
ATOM     16  C   UNL     1      19.242   6.540  22.450  0.00  0.00    +0.103 C 
BRANCH  16  20
ATOM      2  O   UNL     1      21.446   7.473  22.806  0.00  0.00    -0.276 OA
ATOM      7  N   UNL     1      19.917   7.449  24.557  0.00  0.00    -0.313 N 
ATOM     20  C   UNL     1      20.337   7.200  23.258  0.00  0.00    +0.214 C 
ATOM     31  H   UNL     1      18.977   7.186  24.838  0.00  0.00    +0.149 HD
BRANCH   7  22
ATOM     22  C   UNL     1      20.758   8.071  25.552  0.00  0.00    +0.132 C 
BRANCH  22  25
ATOM     25  C   UNL     1      20.241   7.819  26.957  0.00  0.00    +0.178 C 
BRANCH  25   5
ATOM      5  O   UNL     1      19.884   6.449  27.089  0.00  0.00    -0.381 OA
ATOM     29  C   UNL     1      20.946   5.684  27.642  0.00  0.00    +0.194 C 
ENDBRANCH  25   5
ENDBRANCH  22  25
ENDBRANCH   7  22
ENDBRANCH  16  20
ENDBRANCH  11  16
TORSDOF 10
ENDMDL
MODEL 4
REMARK VINA RESULT:      -5.4     26.592     28.695
REMARK  Name = 38027614
REMARK  14 active torsions:
REMARK  status: ('A' for Active; 'I' for Inactive)
REMARK    1  A    between atoms: S_1  and  N_6
REMARK    2  A    between atoms: S_1  and  C_21
REMARK    3  A    between atoms: O_5  and  C_25
REMARK    4  A    between atoms: O_5  and  C_29
REMARK    5  A    between atoms: N_6  and  C_15
REMARK    6  A    between atoms: N_7  and  C_22
REMARK    7  A    between atoms: C_8  and  C_12
REMARK    8  A    between atoms: C_9  and  C_15
REMARK    9  A    between atoms: C_11  and  C_16
REMARK   10  A    between atoms: C_12  and  C_17
REMARK   11  A    between atoms: C_12  and  C_18
REMARK   12  A    between atoms: C_13  and  C_19
REMARK   13  A    between atoms: C_16  and  C_20
REMARK   14  A    between atoms: C_22  and  C_25
REMARK                            x       y       z     vdW  Elec       q    Type
REMARK                         _______ _______ _______ _____ _____    ______ ____
ROOT
ATOM      8  C   UNL     1      -6.636 -10.979  17.982  0.00  0.00    +0.000 C 
ATOM      9  C   UNL     1      -5.821 -11.342  16.715  0.00  0.00    +0.030 C 
ATOM     10  C   UNL     1      -8.143 -11.028  17.683  0.00  0.00    +0.012 C 
ATOM     11  C   UNL     1      -8.544 -10.065  16.551  0.00  0.00    +0.023 C 
ATOM     13  C   UNL     1      -7.614 -10.176  15.360  0.00  0.00    -0.073 C 
ATOM     14  C   UNL     1      -6.407 -10.762  15.449  0.00  0.00    -0.023 C 
ATOM     19  C   UNL     1      -8.121  -9.637  14.051  0.00  0.00    +0.039 C 
ENDROOT
BRANCH   8  12
ATOM     12  C   UNL     1      -6.310 -11.908  19.155  0.00  0.00    -0.013 C 
ATOM     17  C   UNL     1      -5.580 -11.143  20.253  0.00  0.00    +0.007 C 
ATOM     18  C   UNL     1      -7.585 -12.548  19.697  0.00  0.00    +0.007 C 
ENDBRANCH   8  12
BRANCH   9  15
ATOM     15  C   UNL     1      -4.360 -10.900  16.852  0.00  0.00    +0.113 C 
BRANCH  15   6
ATOM      6  N   UNL     1      -3.916 -10.308  15.580  0.00  0.00    -0.189 NA
ATOM     30  H   UNL     1      -4.638  -9.833  15.024  0.00  0.00    +0.148 HD
BRANCH   6   1
ATOM      1  S   UNL     1      -2.598 -10.981  14.735  0.00  0.00    +0.058 S 
ATOM      3  O   UNL     1      -2.701 -12.427  14.762  0.00  0.00    -0.153 OA
ATOM      4  O   UNL     1      -1.376 -10.328  15.163  0.00  0.00    -0.153 OA
BRANCH   1  21
ATOM     21  C   UNL     1      -2.919 -10.442  13.082  0.00  0.00    +0.105 A 
ATOM     23  C   UNL     1      -4.233 -10.344  12.624  0.00  0.00    +0.028 A 
ATOM     24  C   UNL     1      -1.860 -10.115  12.237  0.00  0.00    +0.028 A 
ATOM     26  C   UNL     1      -4.487  -9.919  11.320  0.00  0.00    +0.002 A 
ATOM     27  C   UNL     1      -2.113  -9.690  10.932  0.00  0.00    +0.002 A 
ATOM     28  C   UNL     1      -3.427  -9.592  10.474  0.00  0.00    +0.000 A 
ENDBRANCH   1  21
ENDBRANCH   6   1
ENDBRANCH  15   6
ENDBRANCH   9  15
BRANCH  11  16
ATOM     16  C   UNL     1      -8.618  -8.620  17.056  0.00  0.00    +0.103 C 
BRANCH  16  20
ATOM      2  O   UNL     1     -10.972  -8.668  17.613  0.00  0.00    -0.276 OA
ATOM      7  N   UNL     1     -10.123  -6.886  16.385  0.00  0.00    -0.313 N 
ATOM     20  C   UNL     1     -10.035  -8.092  17.067  0.00  0.00    +0.214 C 
ATOM     31  H   UNL     1      -9.289  -6.487  15.965  0.00  0.00    +0.149 HD
BRANCH   7  22
ATOM     22  C   UNL     1     -11.358  -6.154  16.234  0.00  0.00    +0.132 C 
BRANCH  22  25
ATOM     25  C   UNL     1     -11.657  -5.857  14.775  0.00  0.00    +0.178 C 
BRANCH  25   5
ATOM      5  O   UNL     1     -13.033  -5.530  14.631  0.00  0.00    -0.381 OA
ATOM     29  C   UNL     1     -13.249  -4.657  13.531  0.00  0.00    +0.194 C 
ENDBRANCH  25   5
ENDBRANCH  22  25
ENDBRANCH   7  22
ENDBRANCH  16  20
ENDBRANCH  11  16
TORSDOF 10
ENDMDL
MODEL 5
REMARK VINA RESULT:      -5.3      4.497      7.597
REMARK  Name = 38027614
REMARK  14 active torsions:
REMARK  status: ('A' for Active; 'I' for Inactive)
REMARK    1  A    between atoms: S_1  and  N_6
REMARK    2  A    between atoms: S_1  and  C_21
REMARK    3  A    between atoms: O_5  and  C_25
REMARK    4  A    between atoms: O_5  and  C_29
REMARK    5  A    between atoms: N_6  and  C_15
REMARK    6  A    between atoms: N_7  and  C_22
REMARK    7  A    between atoms: C_8  and  C_12
REMARK    8  A    between atoms: C_9  and  C_15
REMARK    9  A    between atoms: C_11  and  C_16
REMARK   10  A    between atoms: C_12  and  C_17
REMARK   11  A    between atoms: C_12  and  C_18
REMARK   12  A    between atoms: C_13  and  C_19
REMARK   13  A    between atoms: C_16  and  C_20
REMARK   14  A    between atoms: C_22  and  C_25
REMARK                            x       y       z     vdW  Elec       q    Type
REMARK                         _______ _______ _______ _____ _____    ______ ____
ROOT
ATOM      8  C   UNL     1      17.054   8.569  21.512  0.00  0.00    +0.000 C 
ATOM      9  C   UNL     1      16.249   7.699  20.515  0.00  0.00    +0.030 C 
ATOM     10  C   UNL     1      18.528   8.649  21.086  0.00  0.00    +0.012 C 
ATOM     11  C   UNL     1      19.188   7.259  21.006  0.00  0.00    +0.023 C 
ATOM     13  C   UNL     1      18.321   6.266  20.260  0.00  0.00    -0.073 C 
ATOM     14  C   UNL     1      17.013   6.485  20.038  0.00  0.00    -0.023 C 
ATOM     19  C   UNL     1      19.002   5.033  19.734  0.00  0.00    +0.039 C 
ENDROOT
BRANCH   8  12
ATOM     12  C   UNL     1      16.472   9.980  21.636  0.00  0.00    -0.013 C 
ATOM     17  C   UNL     1      17.493  10.923  22.264  0.00  0.00    +0.007 C 
ATOM     18  C   UNL     1      16.028  10.494  20.270  0.00  0.00    +0.007 C 
ENDBRANCH   8  12
BRANCH   9  15
ATOM     15  C   UNL     1      14.912   7.256  21.120  0.00  0.00    +0.113 C 
BRANCH  15   6
ATOM      6  N   UNL     1      14.079   6.661  20.063  0.00  0.00    -0.189 NA
ATOM     30  H   UNL     1      14.473   5.843  19.581  0.00  0.00    +0.148 HD
BRANCH   6   1
ATOM      1  S   UNL     1      12.984   7.630  19.187  0.00  0.00    +0.058 S 
ATOM      3  O   UNL     1      12.033   6.776  18.503  0.00  0.00    -0.153 OA
ATOM      4  O   UNL     1      13.724   8.636  18.451  0.00  0.00    -0.153 OA
BRANCH   1  21
ATOM     21  C   UNL     1      12.127   8.467  20.488  0.00  0.00    +0.105 A 
ATOM     23  C   UNL     1      11.290   7.752  21.344  0.00  0.00    +0.028 A 
ATOM     24  C   UNL     1      12.289   9.842  20.657  0.00  0.00    +0.028 A 
ATOM     26  C   UNL     1      10.615   8.413  22.371  0.00  0.00    +0.002 A 
ATOM     27  C   UNL     1      11.612  10.503  21.683  0.00  0.00    +0.002 A 
ATOM     28  C   UNL     1      10.775   9.788  22.539  0.00  0.00    +0.000 A 
ENDBRANCH   1  21
ENDBRANCH   6   1
ENDBRANCH  15   6
ENDBRANCH   9  15
BRANCH  11  16
ATOM     16  C   UNL     1      19.545   6.736  22.402  0.00  0.00    +0.103 C 
BRANCH  16  20
ATOM      2  O   UNL     1      21.339   5.391  23.311  0.00  0.00    -0.276 OA
ATOM      7  N   UNL     1      21.735   6.714  21.441  0.00  0.00    -0.313 N 
ATOM     20  C   UNL     1      20.954   6.191  22.462  0.00  0.00    +0.214 C 
ATOM     31  H   UNL     1      21.326   7.372  20.784  0.00  0.00    +0.149 HD
BRANCH   7  22
ATOM     22  C   UNL     1      23.125   6.370  21.256  0.00  0.00    +0.132 C 
BRANCH  22  25
ATOM     25  C   UNL     1      24.039   7.526  21.620  0.00  0.00    +0.178 C 
BRANCH  25   5
ATOM      5  O   UNL     1      23.652   8.682  20.889  0.00  0.00    -0.381 OA
ATOM     29  C   UNL     1      24.240   8.702  19.595  0.00  0.00    +0.194 C 
ENDBRANCH  25   5
ENDBRANCH  22  25
ENDBRANCH   7  22
ENDBRANCH  16  20
ENDBRANCH  11  16
TORSDOF 10
ENDMDL
MODEL 6
REMARK VINA RESULT:      -5.3      3.424      5.859
REMARK  Name = 38027614
REMARK  14 active torsions:
REMARK  status: ('A' for Active; 'I' for Inactive)
REMARK    1  A    between atoms: S_1  and  N_6
REMARK    2  A    between atoms: S_1  and  C_21
REMARK    3  A    between atoms: O_5  and  C_25
REMARK    4  A    between atoms: O_5  and  C_29
REMARK    5  A    between atoms: N_6  and  C_15
REMARK    6  A    between atoms: N_7  and  C_22
REMARK    7  A    between atoms: C_8  and  C_12
REMARK    8  A    between atoms: C_9  and  C_15
REMARK    9  A    between atoms: C_11  and  C_16
REMARK   10  A    between atoms: C_12  and  C_17
REMARK   11  A    between atoms: C_12  and  C_18
REMARK   12  A    between atoms: C_13  and  C_19
REMARK   13  A    between atoms: C_16  and  C_20
REMARK   14  A    between atoms: C_22  and  C_25
REMARK                            x       y       z     vdW  Elec       q    Type
REMARK                         _______ _______ _______ _____ _____    ______ ____
ROOT
ATOM      8  C   UNL     1      12.631   7.638  20.613  0.00  0.00    +0.000 C 
ATOM      9  C   UNL     1      12.585   9.002  19.879  0.00  0.00    +0.030 C 
ATOM     10  C   UNL     1      13.649   7.682  21.764  0.00  0.00    +0.012 C 
ATOM     11  C   UNL     1      15.069   8.022  21.274  0.00  0.00    +0.023 C 
ATOM     13  C   UNL     1      15.070   9.202  20.324  0.00  0.00    -0.073 C 
ATOM     14  C   UNL     1      13.948   9.634  19.720  0.00  0.00    -0.023 C 
ATOM     19  C   UNL     1      16.383   9.904  20.117  0.00  0.00    +0.039 C 
ENDROOT
BRANCH   8  12
ATOM     12  C   UNL     1      11.256   7.235  21.153  0.00  0.00    -0.013 C 
ATOM     17  C   UNL     1      11.246   5.760  21.538  0.00  0.00    +0.007 C 
ATOM     18  C   UNL     1      10.874   8.108  22.344  0.00  0.00    +0.007 C 
ENDBRANCH   8  12
BRANCH   9  15
ATOM     15  C   UNL     1      11.921   8.869  18.505  0.00  0.00    +0.113 C 
BRANCH  15   6
ATOM      6  N   UNL     1      12.493   9.873  17.594  0.00  0.00    -0.189 NA
ATOM     30  H   UNL     1      12.091  10.818  17.650  0.00  0.00    +0.148 HD
BRANCH   6   1
ATOM      1  S   UNL     1      13.158   9.396  16.100  0.00  0.00    +0.058 S 
ATOM      3  O   UNL     1      12.208   9.679  15.042  0.00  0.00    -0.153 OA
ATOM      4  O   UNL     1      13.727   8.069  16.235  0.00  0.00    -0.153 OA
BRANCH   1  21
ATOM     21  C   UNL     1      14.510  10.523  15.933  0.00  0.00    +0.105 A 
ATOM     23  C   UNL     1      15.318  10.479  14.797  0.00  0.00    +0.028 A 
ATOM     24  C   UNL     1      14.768  11.455  16.937  0.00  0.00    +0.028 A 
ATOM     26  C   UNL     1      16.385  11.369  14.665  0.00  0.00    +0.002 A 
ATOM     27  C   UNL     1      15.836  12.345  16.806  0.00  0.00    +0.002 A 
ATOM     28  C   UNL     1      16.644  12.301  15.670  0.00  0.00    +0.000 A 
ENDBRANCH   1  21
ENDBRANCH   6   1
ENDBRANCH  15   6
ENDBRANCH   9  15
BRANCH  11  16
ATOM     16  C   UNL     1      15.738   6.801  20.632  0.00  0.00    +0.103 C 
BRANCH  16  20
ATOM      2  O   UNL     1      17.941   6.574  19.659  0.00  0.00    -0.276 OA
ATOM      7  N   UNL     1      17.718   7.480  21.788  0.00  0.00    -0.313 N 
ATOM     20  C   UNL     1      17.245   6.925  20.608  0.00  0.00    +0.214 C 
ATOM     31  H   UNL     1      17.062   7.740  22.518  0.00  0.00    +0.149 HD
BRANCH   7  22
ATOM     22  C   UNL     1      19.120   7.714  22.043  0.00  0.00    +0.132 C 
BRANCH  22  25
ATOM     25  C   UNL     1      19.814   6.459  22.538  0.00  0.00    +0.178 C 
BRANCH  25   5
ATOM      5  O   UNL     1      21.096   6.357  21.931  0.00  0.00    -0.381 OA
ATOM     29  C   UNL     1      21.198   7.193  20.785  0.00  0.00    +0.194 C 
ENDBRANCH  25   5
ENDBRANCH  22  25
ENDBRANCH   7  22
ENDBRANCH  16  20
ENDBRANCH  11  16
TORSDOF 10
ENDMDL
MODEL 7
REMARK VINA RESULT:      -5.2     13.428     16.814
REMARK  Name = 38027614
REMARK  14 active torsions:
REMARK  status: ('A' for Active; 'I' for Inactive)
REMARK    1  A    between atoms: S_1  and  N_6
REMARK    2  A    between atoms: S_1  and  C_21
REMARK    3  A    between atoms: O_5  and  C_25
REMARK    4  A    between atoms: O_5  and  C_29
REMARK    5  A    between atoms: N_6  and  C_15
REMARK    6  A    between atoms: N_7  and  C_22
REMARK    7  A    between atoms: C_8  and  C_12
REMARK    8  A    between atoms: C_9  and  C_15
REMARK    9  A    between atoms: C_11  and  C_16
REMARK   10  A    between atoms: C_12  and  C_17
REMARK   11  A    between atoms: C_12  and  C_18
REMARK   12  A    between atoms: C_13  and  C_19
REMARK   13  A    between atoms: C_16  and  C_20
REMARK   14  A    between atoms: C_22  and  C_25
REMARK                            x       y       z     vdW  Elec       q    Type
REMARK                         _______ _______ _______ _____ _____    ______ ____
ROOT
ATOM      8  C   UNL     1       9.146   8.426   5.309  0.00  0.00    +0.000 C 
ATOM      9  C   UNL     1       8.747   8.302   6.801  0.00  0.00    +0.030 C 
ATOM     10  C   UNL     1       8.807   7.131   4.553  0.00  0.00    +0.012 C 
ATOM     11  C   UNL     1       9.521   5.904   5.149  0.00  0.00    +0.023 C 
ATOM     13  C   UNL     1       9.398   5.859   6.659  0.00  0.00    -0.073 C 
ATOM     14  C   UNL     1       9.038   6.936   7.379  0.00  0.00    -0.023 C 
ATOM     19  C   UNL     1       9.655   4.533   7.320  0.00  0.00    +0.039 C 
ENDROOT
BRANCH   8  12
ATOM     12  C   UNL     1       8.459   9.616   4.632  0.00  0.00    -0.013 C 
ATOM     17  C   UNL     1       9.353  10.198   3.543  0.00  0.00    +0.007 C 
ATOM     18  C   UNL     1       7.109   9.196   4.058  0.00  0.00    +0.007 C 
ENDBRANCH   8  12
BRANCH   9  15
ATOM     15  C   UNL     1       9.439   9.374   7.650  0.00  0.00    +0.113 C 
BRANCH  15   6
ATOM      6  N   UNL     1      10.889   9.120   7.656  0.00  0.00    -0.189 NA
ATOM     30  H   UNL     1      11.218   8.384   8.294  0.00  0.00    +0.148 HD
BRANCH   6   1
ATOM      1  S   UNL     1      11.980  10.374   7.284  0.00  0.00    +0.058 S 
ATOM      3  O   UNL     1      12.274  11.126   8.489  0.00  0.00    -0.153 OA
ATOM      4  O   UNL     1      11.528  11.059   6.088  0.00  0.00    -0.153 OA
BRANCH   1  21
ATOM     21  C   UNL     1      13.432   9.467   6.841  0.00  0.00    +0.105 A 
ATOM     23  C   UNL     1      14.607  10.145   6.518  0.00  0.00    +0.028 A 
ATOM     24  C   UNL     1      13.401   8.073   6.815  0.00  0.00    +0.028 A 
ATOM     26  C   UNL     1      15.752   9.429   6.169  0.00  0.00    +0.002 A 
ATOM     27  C   UNL     1      14.547   7.356   6.465  0.00  0.00    +0.002 A 
ATOM     28  C   UNL     1      15.722   8.035   6.142  0.00  0.00    +0.000 A 
ENDBRANCH   1  21
ENDBRANCH   6   1
ENDBRANCH  15   6
ENDBRANCH   9  15
BRANCH  11  16
ATOM     16  C   UNL     1      10.991   5.857   4.717  0.00  0.00    +0.103 C 
BRANCH  16  20
ATOM      2  O   UNL     1      10.265   4.619   2.770  0.00  0.00    -0.276 OA
ATOM      7  N   UNL     1      12.466   5.355   2.903  0.00  0.00    -0.313 N 
ATOM     20  C   UNL     1      11.166   5.203   3.366  0.00  0.00    +0.214 C 
ATOM     31  H   UNL     1      13.144   5.856   3.470  0.00  0.00    +0.149 HD
BRANCH   7  22
ATOM     22  C   UNL     1      12.919   4.828   1.638  0.00  0.00    +0.132 C 
BRANCH  22  25
ATOM     25  C   UNL     1      13.192   3.337   1.719  0.00  0.00    +0.178 C 
BRANCH  25   5
ATOM      5  O   UNL     1      14.594   3.118   1.813  0.00  0.00    -0.381 OA
ATOM     29  C   UNL     1      15.307   3.876   0.845  0.00  0.00    +0.194 C 
ENDBRANCH  25   5
ENDBRANCH  22  25
ENDBRANCH   7  22
ENDBRANCH  16  20
ENDBRANCH  11  16
TORSDOF 10
ENDMDL
MODEL 8
REMARK VINA RESULT:      -5.2     14.223     17.705
REMARK  Name = 38027614
REMARK  14 active torsions:
REMARK  status: ('A' for Active; 'I' for Inactive)
REMARK    1  A    between atoms: S_1  and  N_6
REMARK    2  A    between atoms: S_1  and  C_21
REMARK    3  A    between atoms: O_5  and  C_25
REMARK    4  A    between atoms: O_5  and  C_29
REMARK    5  A    between atoms: N_6  and  C_15
REMARK    6  A    between atoms: N_7  and  C_22
REMARK    7  A    between atoms: C_8  and  C_12
REMARK    8  A    between atoms: C_9  and  C_15
REMARK    9  A    between atoms: C_11  and  C_16
REMARK   10  A    between atoms: C_12  and  C_17
REMARK   11  A    between atoms: C_12  and  C_18
REMARK   12  A    between atoms: C_13  and  C_19
REMARK   13  A    between atoms: C_16  and  C_20
REMARK   14  A    between atoms: C_22  and  C_25
REMARK                            x       y       z     vdW  Elec       q    Type
REMARK                         _______ _______ _______ _____ _____    ______ ____
ROOT
ATOM      8  C   UNL     1      13.396   8.002   2.062  0.00  0.00    +0.000 C 
ATOM      9  C   UNL     1      14.941   7.930   2.137  0.00  0.00    +0.030 C 
ATOM     10  C   UNL     1      12.840   8.832   3.230  0.00  0.00    +0.012 C 
ATOM     11  C   UNL     1      13.236   8.250   4.599  0.00  0.00    +0.023 C 
ATOM     13  C   UNL     1      14.709   7.900   4.658  0.00  0.00    -0.073 C 
ATOM     14  C   UNL     1      15.458   7.774   3.548  0.00  0.00    -0.023 C 
ATOM     19  C   UNL     1      15.314   7.742   6.025  0.00  0.00    +0.039 C 
ENDROOT
BRANCH   8  12
ATOM     12  C   UNL     1      12.917   8.592   0.732  0.00  0.00    -0.013 C 
ATOM     17  C   UNL     1      11.401   8.760   0.739  0.00  0.00    +0.007 C 
ATOM     18  C   UNL     1      13.608   9.925   0.461  0.00  0.00    +0.007 C 
ENDBRANCH   8  12
BRANCH   9  15
ATOM     15  C   UNL     1      15.485   6.791   1.266  0.00  0.00    +0.113 C 
BRANCH  15   6
ATOM      6  N   UNL     1      15.242   5.509   1.945  0.00  0.00    -0.189 NA
ATOM     30  H   UNL     1      15.844   5.302   2.753  0.00  0.00    +0.148 HD
BRANCH   6   1
ATOM      1  S   UNL     1      14.623   4.181   1.074  0.00  0.00    +0.058 S 
ATOM      3  O   UNL     1      14.804   2.972   1.854  0.00  0.00    -0.153 OA
ATOM      4  O   UNL     1      15.098   4.247  -0.294  0.00  0.00    -0.153 OA
BRANCH   1  21
ATOM     21  C   UNL     1      12.894   4.552   1.039  0.00  0.00    +0.105 A 
ATOM     23  C   UNL     1      12.270   4.850  -0.172  0.00  0.00    +0.028 A 
ATOM     24  C   UNL     1      12.155   4.545   2.222  0.00  0.00    +0.028 A 
ATOM     26  C   UNL     1      10.906   5.141  -0.200  0.00  0.00    +0.002 A 
ATOM     27  C   UNL     1      10.791   4.838   2.194  0.00  0.00    +0.002 A 
ATOM     28  C   UNL     1      10.167   5.136   0.983  0.00  0.00    +0.000 A 
ENDBRANCH   1  21
ENDBRANCH   6   1
ENDBRANCH  15   6
ENDBRANCH   9  15
BRANCH  11  16
ATOM     16  C   UNL     1      12.369   7.037   4.955  0.00  0.00    +0.103 C 
BRANCH  16  20
ATOM      2  O   UNL     1      11.248   8.344   6.653  0.00  0.00    -0.276 OA
ATOM      7  N   UNL     1      11.359   6.033   6.876  0.00  0.00    -0.313 N 
ATOM     20  C   UNL     1      11.602   7.243   6.241  0.00  0.00    +0.214 C 
ATOM     31  H   UNL     1      11.693   5.171   6.455  0.00  0.00    +0.149 HD
BRANCH   7  22
ATOM     22  C   UNL     1      10.646   5.928   8.127  0.00  0.00    +0.132 C 
BRANCH  22  25
ATOM     25  C   UNL     1       9.850   4.637   8.209  0.00  0.00    +0.178 C 
BRANCH  25   5
ATOM      5  O   UNL     1       9.892   4.141   9.540  0.00  0.00    -0.381 OA
ATOM     29  C   UNL     1       8.828   4.661  10.325  0.00  0.00    +0.194 C 
ENDBRANCH  25   5
ENDBRANCH  22  25
ENDBRANCH   7  22
ENDBRANCH  16  20
ENDBRANCH  11  16
TORSDOF 10
ENDMDL
MODEL 9
REMARK VINA RESULT:      -5.1      6.649      9.772
REMARK  Name = 38027614
REMARK  14 active torsions:
REMARK  status: ('A' for Active; 'I' for Inactive)
REMARK    1  A    between atoms: S_1  and  N_6
REMARK    2  A    between atoms: S_1  and  C_21
REMARK    3  A    between atoms: O_5  and  C_25
REMARK    4  A    between atoms: O_5  and  C_29
REMARK    5  A    between atoms: N_6  and  C_15
REMARK    6  A    between atoms: N_7  and  C_22
REMARK    7  A    between atoms: C_8  and  C_12
REMARK    8  A    between atoms: C_9  and  C_15
REMARK    9  A    between atoms: C_11  and  C_16
REMARK   10  A    between atoms: C_12  and  C_17
REMARK   11  A    between atoms: C_12  and  C_18
REMARK   12  A    between atoms: C_13  and  C_19
REMARK   13  A    between atoms: C_16  and  C_20
REMARK   14  A    between atoms: C_22  and  C_25
REMARK                            x       y       z     vdW  Elec       q    Type
REMARK                         _______ _______ _______ _____ _____    ______ ____
ROOT
ATOM      8  C   UNL     1      20.077   5.985  21.735  0.00  0.00    +0.000 C 
ATOM      9  C   UNL     1      20.461   7.256  22.535  0.00  0.00    +0.030 C 
ATOM     10  C   UNL     1      19.378   6.369  20.421  0.00  0.00    +0.012 C 
ATOM     11  C   UNL     1      18.104   7.200  20.660  0.00  0.00    +0.023 C 
ATOM     13  C   UNL     1      18.339   8.319  21.654  0.00  0.00    -0.073 C 
ATOM     14  C   UNL     1      19.404   8.334  22.474  0.00  0.00    -0.023 C 
ATOM     19  C   UNL     1      17.344   9.446  21.653  0.00  0.00    +0.039 C 
ENDROOT
BRANCH   8  12
ATOM     12  C   UNL     1      21.298   5.110  21.436  0.00  0.00    -0.013 C 
ATOM     17  C   UNL     1      20.862   3.769  20.857  0.00  0.00    +0.007 C 
ATOM     18  C   UNL     1      22.248   5.829  20.484  0.00  0.00    +0.007 C 
ENDBRANCH   8  12
BRANCH   9  15
ATOM     15  C   UNL     1      20.762   6.917  23.999  0.00  0.00    +0.113 C 
BRANCH  15   6
ATOM      6  N   UNL     1      22.220   6.884  24.195  0.00  0.00    -0.189 NA
ATOM     30  H   UNL     1      22.792   7.177  23.393  0.00  0.00    +0.148 HD
BRANCH   6   1
ATOM      1  S   UNL     1      22.914   5.772  25.284  0.00  0.00    +0.058 S 
ATOM      3  O   UNL     1      21.881   5.248  26.156  0.00  0.00    -0.153 OA
ATOM      4  O   UNL     1      24.121   6.347  25.845  0.00  0.00    -0.153 OA
BRANCH   1  21
ATOM     21  C   UNL     1      23.419   4.473  24.196  0.00  0.00    +0.105 A 
ATOM     23  C   UNL     1      24.454   4.688  23.286  0.00  0.00    +0.028 A 
ATOM     24  C   UNL     1      22.782   3.234  24.247  0.00  0.00    +0.028 A 
ATOM     26  C   UNL     1      24.853   3.663  22.428  0.00  0.00    +0.002 A 
ATOM     27  C   UNL     1      23.180   2.208  23.388  0.00  0.00    +0.002 A 
ATOM     28  C   UNL     1      24.215   2.424  22.478  0.00  0.00    +0.000 A 
ENDBRANCH   1  21
ENDBRANCH   6   1
ENDBRANCH  15   6
ENDBRANCH   9  15
BRANCH  11  16
ATOM     16  C   UNL     1      16.939   6.309  21.103  0.00  0.00    +0.103 C 
BRANCH  16  20
ATOM      2  O   UNL     1      15.876   6.198  18.933  0.00  0.00    -0.276 OA
ATOM      7  N   UNL     1      14.592   6.665  20.814  0.00  0.00    -0.313 N 
ATOM     20  C   UNL     1      15.772   6.377  20.144  0.00  0.00    +0.214 C 
ATOM     31  H   UNL     1      14.607   6.796  21.821  0.00  0.00    +0.149 HD
BRANCH   7  22
ATOM     22  C   UNL     1      13.317   6.792  20.147  0.00  0.00    +0.132 C 
BRANCH  22  25
ATOM     25  C   UNL     1      12.164   6.493  21.088  0.00  0.00    +0.178 C 
BRANCH  25   5
ATOM      5  O   UNL     1      11.064   7.335  20.768  0.00  0.00    -0.381 OA
ATOM     29  C   UNL     1      10.265   7.608  21.912  0.00  0.00    +0.194 C 
ENDBRANCH  25   5
ENDBRANCH  22  25
ENDBRANCH   7  22
ENDBRANCH  16  20
ENDBRANCH  11  16
TORSDOF 10
ENDMDL
MODEL 10
REMARK VINA RESULT:      -5.1     13.711     17.825
REMARK  Name = 38027614
REMARK  14 active torsions:
REMARK  status: ('A' for Active; 'I' for Inactive)
REMARK    1  A    between atoms: S_1  and  N_6
REMARK    2  A    between atoms: S_1  and  C_21
REMARK    3  A    between atoms: O_5  and  C_25
REMARK    4  A    between atoms: O_5  and  C_29
REMARK    5  A    between atoms: N_6  and  C_15
REMARK    6  A    between atoms: N_7  and  C_22
REMARK    7  A    between atoms: C_8  and  C_12
REMARK    8  A    between atoms: C_9  and  C_15
REMARK    9  A    between atoms: C_11  and  C_16
REMARK   10  A    between atoms: C_12  and  C_17
REMARK   11  A    between atoms: C_12  and  C_18
REMARK   12  A    between atoms: C_13  and  C_19
REMARK   13  A    between atoms: C_16  and  C_20
REMARK   14  A    between atoms: C_22  and  C_25
REMARK                            x       y       z     vdW  Elec       q    Type
REMARK                         _______ _______ _______ _____ _____    ______ ____
ROOT
ATOM      8  C   UNL     1       8.955   8.467   3.237  0.00  0.00    +0.000 C 
ATOM      9  C   UNL     1       8.014   7.754   4.240  0.00  0.00    +0.030 C 
ATOM     10  C   UNL     1       9.665   7.439   2.343  0.00  0.00    +0.012 C 
ATOM     11  C   UNL     1      10.496   6.432   3.160  0.00  0.00    +0.023 C 
ATOM     13  C   UNL     1       9.716   5.882   4.337  0.00  0.00    -0.073 C 
ATOM     14  C   UNL     1       8.602   6.478   4.797  0.00  0.00    -0.023 C 
ATOM     19  C   UNL     1      10.221   4.603   4.946  0.00  0.00    +0.039 C 
ENDROOT
BRANCH   8  12
ATOM     12  C   UNL     1       8.199   9.477   2.367  0.00  0.00    -0.013 C 
ATOM     17  C   UNL     1       8.714  10.889   2.621  0.00  0.00    +0.007 C 
ATOM     18  C   UNL     1       8.329   9.109   0.892  0.00  0.00    +0.007 C 
ENDBRANCH   8  12
BRANCH   9  15
ATOM     15  C   UNL     1       7.628   8.685   5.395  0.00  0.00    +0.113 C 
BRANCH  15   6
ATOM      6  N   UNL     1       8.850   9.272   5.968  0.00  0.00    -0.189 NA
ATOM     30  H   UNL     1       9.587   9.529   5.299  0.00  0.00    +0.148 HD
BRANCH   6   1
ATOM      1  S   UNL     1       9.340   8.862   7.548  0.00  0.00    +0.058 S 
ATOM      3  O   UNL     1       8.552   7.738   8.015  0.00  0.00    -0.153 OA
ATOM      4  O   UNL     1       9.434  10.070   8.344  0.00  0.00    -0.153 OA
BRANCH   1  21
ATOM     21  C   UNL     1      10.991   8.294   7.275  0.00  0.00    +0.105 A 
ATOM     23  C   UNL     1      11.982   9.194   6.883  0.00  0.00    +0.028 A 
ATOM     24  C   UNL     1      11.303   6.946   7.452  0.00  0.00    +0.028 A 
ATOM     26  C   UNL     1      13.286   8.746   6.668  0.00  0.00    +0.002 A 
ATOM     27  C   UNL     1      12.607   6.497   7.235  0.00  0.00    +0.002 A 
ATOM     28  C   UNL     1      13.598   7.398   6.844  0.00  0.00    +0.000 A 
ENDBRANCH   1  21
ENDBRANCH   6   1
ENDBRANCH  15   6
ENDBRANCH   9  15
BRANCH  11  16
ATOM     16  C   UNL     1      11.819   7.053   3.621  0.00  0.00    +0.103 C 
BRANCH  16  20
ATOM      2  O   UNL     1      14.099   7.004   2.813  0.00  0.00    -0.276 OA
ATOM      7  N   UNL     1      12.702   5.191   2.407  0.00  0.00    -0.313 N 
ATOM     20  C   UNL     1      13.010   6.446   2.914  0.00  0.00    +0.214 C 
ATOM     31  H   UNL     1      11.770   4.812   2.542  0.00  0.00    +0.149 HD
BRANCH   7  22
ATOM     22  C   UNL     1      13.650   4.379   1.682  0.00  0.00    +0.132 C 
BRANCH  22  25
ATOM     25  C   UNL     1      12.977   3.189   1.022  0.00  0.00    +0.178 C 
BRANCH  25   5
ATOM      5  O   UNL     1      12.948   3.383  -0.386  0.00  0.00    -0.381 OA
ATOM     29  C   UNL     1      11.641   3.709  -0.841  0.00  0.00    +0.194 C 
ENDBRANCH  25   5
ENDBRANCH  22  25
ENDBRANCH   7  22
ENDBRANCH  16  20
ENDBRANCH  11  16
TORSDOF 10
ENDMDL
