MODEL 1
REMARK VINA RESULT:      -6.9      0.000      0.000
REMARK  Name = 45783806
REMARK  9 active torsions:
REMARK  status: ('A' for Active; 'I' for Inactive)
REMARK    1  A    between atoms: O_3  and  C_21
REMARK    2  A    between atoms: N_4  and  C_13
REMARK    3  A    between atoms: N_8  and  C_25
REMARK    4  A    between atoms: N_8  and  C_26
REMARK    5  A    between atoms: N_8  and  C_27
REMARK    6  A    between atoms: C_9  and  C_14
REMARK    7  A    between atoms: C_13  and  C_15
REMARK    8  A    between atoms: C_17  and  C_20
REMARK    9  A    between atoms: C_18  and  C_21
REMARK                            x       y       z     vdW  Elec       q    Type
REMARK                         _______ _______ _______ _____ _____    ______ ____
ROOT
ATOM      4  N   UNL     1      14.661   8.908  19.888  0.00  0.00    -0.284 NA
ATOM      9  C   UNL     1      14.648   7.544  19.322  0.00  0.00    +0.146 C 
ATOM     10  C   UNL     1      14.185   7.729  17.865  0.00  0.00    +0.030 C 
ATOM     11  C   UNL     1      13.904   9.218  17.724  0.00  0.00    +0.017 C 
ATOM     12  C   UNL     1      13.656   9.672  19.148  0.00  0.00    +0.085 C 
ENDROOT
BRANCH   9  14
ATOM      1  O   UNL     1      16.313   5.996  18.425  0.00  0.00    -0.336 OA
ATOM      5  N   UNL     1      16.914   6.970  20.350  0.00  0.00    -0.190 NA
ATOM      6  N   UNL     1      17.583   5.494  18.735  0.00  0.00    -0.056 NA
ATOM     14  C   UNL     1      15.994   6.858  19.426  0.00  0.00    +0.245 A 
ATOM     17  C   UNL     1      17.869   6.115  19.884  0.00  0.00    +0.204 A 
BRANCH  17  20
ATOM      7  N   UNL     1      20.590   6.541  22.384  0.00  0.00    -0.240 NA
ATOM     20  C   UNL     1      19.101   5.904  20.588  0.00  0.00    +0.041 A 
ATOM     22  C   UNL     1      19.988   4.907  20.197  0.00  0.00    +0.016 A 
ATOM     23  C   UNL     1      19.445   6.687  21.678  0.00  0.00    +0.124 A 
ATOM     24  C   UNL     1      21.176   4.726  20.898  0.00  0.00    +0.044 A 
ATOM     25  C   UNL     1      21.426   5.563  21.975  0.00  0.00    +0.121 A 
BRANCH  25   8
ATOM      8  N   UNL     1      22.639   5.366  22.680  0.00  0.00    -0.321 N 
ATOM     26  C   UNL     1      23.531   4.290  22.309  0.00  0.00    +0.130 C 
ATOM     27  C   UNL     1      22.990   6.235  23.781  0.00  0.00    +0.130 C 
ENDBRANCH  25   8
ENDBRANCH  17  20
ENDBRANCH   9  14
BRANCH   4  13
ATOM     13  C   UNL     1      14.423   8.936  21.325  0.00  0.00    +0.159 C 
BRANCH  13  15
ATOM      2  O   UNL     1      12.556   7.393  21.570  0.00  0.00    -0.461 OA
ATOM     15  C   UNL     1      12.978   8.682  21.660  0.00  0.00    +0.119 A 
ATOM     16  C   UNL     1      11.945   9.502  22.054  0.00  0.00    +0.046 A 
ATOM     18  C   UNL     1      11.241   7.389  21.909  0.00  0.00    +0.131 A 
ATOM     19  C   UNL     1      10.818   8.662  22.216  0.00  0.00    +0.047 A 
BRANCH  18  21
ATOM     21  C   UNL     1      10.567   6.084  21.884  0.00  0.00    +0.230 C 
BRANCH  21   3
ATOM      3  O   UNL     1      11.505   5.050  21.576  0.00  0.00    -0.387 OA
ATOM     28  H   UNL     1      12.361   5.323  21.950  0.00  0.00    +0.210 HD
ENDBRANCH  21   3
ENDBRANCH  18  21
ENDBRANCH  13  15
ENDBRANCH   4  13
TORSDOF 7
ENDMDL
MODEL 2
REMARK VINA RESULT:      -6.9      3.751      7.507
REMARK  Name = 45783806
REMARK  9 active torsions:
REMARK  status: ('A' for Active; 'I' for Inactive)
REMARK    1  A    between atoms: O_3  and  C_21
REMARK    2  A    between atoms: N_4  and  C_13
REMARK    3  A    between atoms: N_8  and  C_25
REMARK    4  A    between atoms: N_8  and  C_26
REMARK    5  A    between atoms: N_8  and  C_27
REMARK    6  A    between atoms: C_9  and  C_14
REMARK    7  A    between atoms: C_13  and  C_15
REMARK    8  A    between atoms: C_17  and  C_20
REMARK    9  A    between atoms: C_18  and  C_21
REMARK                            x       y       z     vdW  Elec       q    Type
REMARK                         _______ _______ _______ _____ _____    ______ ____
ROOT
ATOM      4  N   UNL     1      13.045   7.856  20.610  0.00  0.00    -0.284 NA
ATOM      9  C   UNL     1      12.160   7.853  19.427  0.00  0.00    +0.146 C 
ATOM     10  C   UNL     1      10.907   8.628  19.874  0.00  0.00    +0.030 C 
ATOM     11  C   UNL     1      11.154   8.974  21.336  0.00  0.00    +0.017 C 
ATOM     12  C   UNL     1      12.171   7.942  21.780  0.00  0.00    +0.085 C 
ENDROOT
BRANCH   9  14
ATOM      1  O   UNL     1      12.508   7.895  17.009  0.00  0.00    -0.336 OA
ATOM      5  N   UNL     1      13.657   9.460  18.126  0.00  0.00    -0.190 NA
ATOM      6  N   UNL     1      13.226   8.614  16.044  0.00  0.00    -0.056 NA
ATOM     14  C   UNL     1      12.819   8.458  18.206  0.00  0.00    +0.245 A 
ATOM     17  C   UNL     1      13.879   9.518  16.781  0.00  0.00    +0.204 A 
BRANCH  17  20
ATOM      7  N   UNL     1      16.002  11.274  14.282  0.00  0.00    -0.240 NA
ATOM     20  C   UNL     1      14.758  10.494  16.203  0.00  0.00    +0.041 A 
ATOM     22  C   UNL     1      15.219  11.573  16.949  0.00  0.00    +0.016 A 
ATOM     23  C   UNL     1      15.175  10.390  14.886  0.00  0.00    +0.124 A 
ATOM     24  C   UNL     1      16.071  12.503  16.363  0.00  0.00    +0.044 A 
ATOM     25  C   UNL     1      16.429  12.309  15.038  0.00  0.00    +0.121 A 
BRANCH  25   8
ATOM      8  N   UNL     1      17.297  13.266  14.454  0.00  0.00    -0.321 N 
ATOM     26  C   UNL     1      18.532  12.845  13.832  0.00  0.00    +0.130 C 
ATOM     27  C   UNL     1      16.955  14.671  14.484  0.00  0.00    +0.130 C 
ENDBRANCH  25   8
ENDBRANCH  17  20
ENDBRANCH   9  14
BRANCH   4  13
ATOM     13  C   UNL     1      13.929   6.700  20.669  0.00  0.00    +0.159 C 
BRANCH  13  15
ATOM      2  O   UNL     1      16.273   6.176  20.272  0.00  0.00    -0.461 OA
ATOM     15  C   UNL     1      15.379   7.103  20.707  0.00  0.00    +0.119 A 
ATOM     16  C   UNL     1      16.027   8.251  21.102  0.00  0.00    +0.046 A 
ATOM     18  C   UNL     1      17.505   6.738  20.391  0.00  0.00    +0.131 A 
ATOM     19  C   UNL     1      17.407   8.013  20.896  0.00  0.00    +0.047 A 
BRANCH  18  21
ATOM     21  C   UNL     1      18.641   5.907  19.971  0.00  0.00    +0.230 C 
BRANCH  21   3
ATOM      3  O   UNL     1      18.292   5.139  18.816  0.00  0.00    -0.387 OA
ATOM     28  H   UNL     1      17.747   4.394  19.125  0.00  0.00    +0.210 HD
ENDBRANCH  21   3
ENDBRANCH  18  21
ENDBRANCH  13  15
ENDBRANCH   4  13
TORSDOF 7
ENDMDL
MODEL 3
REMARK VINA RESULT:      -6.9      5.766      7.454
REMARK  Name = 45783806
REMARK  9 active torsions:
REMARK  status: ('A' for Active; 'I' for Inactive)
REMARK    1  A    between atoms: O_3  and  C_21
REMARK    2  A    between atoms: N_4  and  C_13
REMARK    3  A    between atoms: N_8  and  C_25
REMARK    4  A    between atoms: N_8  and  C_26
REMARK    5  A    between atoms: N_8  and  C_27
REMARK    6  A    between atoms: C_9  and  C_14
REMARK    7  A    between atoms: C_13  and  C_15
REMARK    8  A    between atoms: C_17  and  C_20
REMARK    9  A    between atoms: C_18  and  C_21
REMARK                            x       y       z     vdW  Elec       q    Type
REMARK                         _______ _______ _______ _____ _____    ______ ____
ROOT
ATOM      4  N   UNL     1      11.738   8.773  21.638  0.00  0.00    -0.284 NA
ATOM      9  C   UNL     1      12.457   7.657  20.993  0.00  0.00    +0.146 C 
ATOM     10  C   UNL     1      11.502   6.455  21.114  0.00  0.00    +0.030 C 
ATOM     11  C   UNL     1      10.303   6.977  21.892  0.00  0.00    +0.017 C 
ATOM     12  C   UNL     1      10.855   8.174  22.639  0.00  0.00    +0.085 C 
ENDROOT
BRANCH   9  14
ATOM      1  O   UNL     1      12.419   7.070  18.621  0.00  0.00    -0.336 OA
ATOM      5  N   UNL     1      13.522   8.966  19.076  0.00  0.00    -0.190 NA
ATOM      6  N   UNL     1      12.883   7.556  17.391  0.00  0.00    -0.056 NA
ATOM     14  C   UNL     1      12.838   7.959  19.559  0.00  0.00    +0.245 A 
ATOM     17  C   UNL     1      13.524   8.675  17.743  0.00  0.00    +0.204 A 
BRANCH  17  20
ATOM      7  N   UNL     1      14.868   9.914  14.504  0.00  0.00    -0.240 NA
ATOM     20  C   UNL     1      14.175   9.525  16.787  0.00  0.00    +0.041 A 
ATOM     22  C   UNL     1      14.731  10.740  17.172  0.00  0.00    +0.016 A 
ATOM     23  C   UNL     1      14.269   9.160  15.454  0.00  0.00    +0.124 A 
ATOM     24  C   UNL     1      15.355  11.542  16.223  0.00  0.00    +0.044 A 
ATOM     25  C   UNL     1      15.397  11.087  14.915  0.00  0.00    +0.121 A 
BRANCH  25   8
ATOM      8  N   UNL     1      16.036  11.917  13.959  0.00  0.00    -0.321 N 
ATOM     26  C   UNL     1      16.939  12.960  14.389  0.00  0.00    +0.130 C 
ATOM     27  C   UNL     1      15.782  11.729  12.548  0.00  0.00    +0.130 C 
ENDBRANCH  25   8
ENDBRANCH  17  20
ENDBRANCH   9  14
BRANCH   4  13
ATOM     13  C   UNL     1      12.628   9.771  22.217  0.00  0.00    +0.159 C 
BRANCH  13  15
ATOM      2  O   UNL     1      11.739  11.247  23.937  0.00  0.00    -0.461 OA
ATOM     15  C   UNL     1      11.889  11.024  22.604  0.00  0.00    +0.119 A 
ATOM     16  C   UNL     1      11.307  12.038  21.877  0.00  0.00    +0.046 A 
ATOM     18  C   UNL     1      11.055  12.414  24.062  0.00  0.00    +0.131 A 
ATOM     19  C   UNL     1      10.766  12.939  22.823  0.00  0.00    +0.047 A 
BRANCH  18  21
ATOM     21  C   UNL     1      10.775  12.860  25.433  0.00  0.00    +0.230 C 
BRANCH  21   3
ATOM      3  O   UNL     1      11.969  12.819  26.219  0.00  0.00    -0.387 OA
ATOM     28  H   UNL     1      12.400  13.686  26.127  0.00  0.00    +0.210 HD
ENDBRANCH  21   3
ENDBRANCH  18  21
ENDBRANCH  13  15
ENDBRANCH   4  13
TORSDOF 7
ENDMDL
MODEL 4
REMARK VINA RESULT:      -6.6     25.941     29.713
REMARK  Name = 45783806
REMARK  9 active torsions:
REMARK  status: ('A' for Active; 'I' for Inactive)
REMARK    1  A    between atoms: O_3  and  C_21
REMARK    2  A    between atoms: N_4  and  C_13
REMARK    3  A    between atoms: N_8  and  C_25
REMARK    4  A    between atoms: N_8  and  C_26
REMARK    5  A    between atoms: N_8  and  C_27
REMARK    6  A    between atoms: C_9  and  C_14
REMARK    7  A    between atoms: C_13  and  C_15
REMARK    8  A    between atoms: C_17  and  C_20
REMARK    9  A    between atoms: C_18  and  C_21
REMARK                            x       y       z     vdW  Elec       q    Type
REMARK                         _______ _______ _______ _____ _____    ______ ____
ROOT
ATOM      4  N   UNL     1      -3.149 -10.540  14.433  0.00  0.00    -0.284 NA
ATOM      9  C   UNL     1      -3.072 -11.262  15.719  0.00  0.00    +0.146 C 
ATOM     10  C   UNL     1      -1.747 -10.796  16.351  0.00  0.00    +0.030 C 
ATOM     11  C   UNL     1      -1.123  -9.863  15.321  0.00  0.00    +0.017 C 
ATOM     12  C   UNL     1      -1.769 -10.286  14.018  0.00  0.00    +0.085 C 
ENDROOT
BRANCH   9  14
ATOM      1  O   UNL     1      -4.066 -11.113  17.947  0.00  0.00    -0.336 OA
ATOM      5  N   UNL     1      -5.491 -10.666  16.278  0.00  0.00    -0.190 NA
ATOM      6  N   UNL     1      -5.296 -10.826  18.552  0.00  0.00    -0.056 NA
ATOM     14  C   UNL     1      -4.268 -10.997  16.608  0.00  0.00    +0.245 A 
ATOM     17  C   UNL     1      -6.085 -10.573  17.503  0.00  0.00    +0.204 A 
BRANCH  17  20
ATOM      7  N   UNL     1      -9.623 -10.676  18.646  0.00  0.00    -0.240 NA
ATOM     20  C   UNL     1      -7.469 -10.223  17.645  0.00  0.00    +0.041 A 
ATOM     22  C   UNL     1      -8.007  -9.139  16.959  0.00  0.00    +0.016 A 
ATOM     23  C   UNL     1      -8.311 -10.953  18.468  0.00  0.00    +0.124 A 
ATOM     24  C   UNL     1      -9.353  -8.824  17.116  0.00  0.00    +0.044 A 
ATOM     25  C   UNL     1     -10.110  -9.617  17.964  0.00  0.00    +0.121 A 
BRANCH  25   8
ATOM      8  N   UNL     1     -11.479  -9.281  18.114  0.00  0.00    -0.321 N 
ATOM     26  C   UNL     1     -12.213  -9.723  19.279  0.00  0.00    +0.130 C 
ATOM     27  C   UNL     1     -12.152  -8.501  17.100  0.00  0.00    +0.130 C 
ENDBRANCH  25   8
ENDBRANCH  17  20
ENDBRANCH   9  14
BRANCH   4  13
ATOM     13  C   UNL     1      -3.905 -11.259  13.416  0.00  0.00    +0.159 C 
BRANCH  13  15
ATOM      2  O   UNL     1      -3.874 -10.106  11.273  0.00  0.00    -0.461 OA
ATOM     15  C   UNL     1      -4.552 -10.323  12.431  0.00  0.00    +0.119 A 
ATOM     16  C   UNL     1      -5.727  -9.606  12.444  0.00  0.00    +0.046 A 
ATOM     18  C   UNL     1      -4.624  -9.243  10.539  0.00  0.00    +0.131 A 
ATOM     19  C   UNL     1      -5.773  -8.906  11.216  0.00  0.00    +0.047 A 
BRANCH  18  21
ATOM     21  C   UNL     1      -4.081  -8.862   9.228  0.00  0.00    +0.230 C 
BRANCH  21   3
ATOM      3  O   UNL     1      -5.118  -8.861   8.245  0.00  0.00    -0.387 OA
ATOM     28  H   UNL     1      -5.804  -9.478   8.555  0.00  0.00    +0.210 HD
ENDBRANCH  21   3
ENDBRANCH  18  21
ENDBRANCH  13  15
ENDBRANCH   4  13
TORSDOF 7
ENDMDL
MODEL 5
REMARK VINA RESULT:      -6.6     29.210     32.703
REMARK  Name = 45783806
REMARK  9 active torsions:
REMARK  status: ('A' for Active; 'I' for Inactive)
REMARK    1  A    between atoms: O_3  and  C_21
REMARK    2  A    between atoms: N_4  and  C_13
REMARK    3  A    between atoms: N_8  and  C_25
REMARK    4  A    between atoms: N_8  and  C_26
REMARK    5  A    between atoms: N_8  and  C_27
REMARK    6  A    between atoms: C_9  and  C_14
REMARK    7  A    between atoms: C_13  and  C_15
REMARK    8  A    between atoms: C_17  and  C_20
REMARK    9  A    between atoms: C_18  and  C_21
REMARK                            x       y       z     vdW  Elec       q    Type
REMARK                         _______ _______ _______ _____ _____    ______ ____
ROOT
ATOM      4  N   UNL     1     -17.358   3.139  27.029  0.00  0.00    -0.284 NA
ATOM      9  C   UNL     1     -16.309   2.399  26.299  0.00  0.00    +0.146 C 
ATOM     10  C   UNL     1     -16.818   0.946  26.249  0.00  0.00    +0.030 C 
ATOM     11  C   UNL     1     -18.126   0.956  27.027  0.00  0.00    +0.017 C 
ATOM     12  C   UNL     1     -18.001   2.173  27.921  0.00  0.00    +0.085 C 
ENDROOT
BRANCH   9  14
ATOM      1  O   UNL     1     -16.667   2.365  23.882  0.00  0.00    -0.336 OA
ATOM      5  N   UNL     1     -15.286   3.985  24.579  0.00  0.00    -0.190 NA
ATOM      6  N   UNL     1     -16.272   3.061  22.732  0.00  0.00    -0.056 NA
ATOM     14  C   UNL     1     -16.042   2.973  24.924  0.00  0.00    +0.245 A 
ATOM     17  C   UNL     1     -15.459   4.000  23.225  0.00  0.00    +0.204 A 
BRANCH  17  20
ATOM      7  N   UNL     1     -14.982   6.766  20.786  0.00  0.00    -0.240 NA
ATOM     20  C   UNL     1     -14.805   4.969  22.393  0.00  0.00    +0.041 A 
ATOM     22  C   UNL     1     -13.418   5.071  22.366  0.00  0.00    +0.016 A 
ATOM     23  C   UNL     1     -15.535   5.832  21.592  0.00  0.00    +0.124 A 
ATOM     24  C   UNL     1     -12.813   6.019  21.549  0.00  0.00    +0.044 A 
ATOM     25  C   UNL     1     -13.633   6.835  20.785  0.00  0.00    +0.121 A 
BRANCH  25   8
ATOM      8  N   UNL     1     -13.001   7.798  19.959  0.00  0.00    -0.321 N 
ATOM     26  C   UNL     1     -11.866   7.425  19.144  0.00  0.00    +0.130 C 
ATOM     27  C   UNL     1     -13.483   9.161  19.931  0.00  0.00    +0.130 C 
ENDBRANCH  25   8
ENDBRANCH  17  20
ENDBRANCH   9  14
BRANCH   4  13
ATOM     13  C   UNL     1     -16.848   4.297  27.750  0.00  0.00    +0.159 C 
BRANCH  13  15
ATOM      2  O   UNL     1     -15.093   3.476  29.224  0.00  0.00    -0.461 OA
ATOM     15  C   UNL     1     -16.369   3.933  29.130  0.00  0.00    +0.119 A 
ATOM     16  C   UNL     1     -16.964   3.961  30.371  0.00  0.00    +0.046 A 
ATOM     18  C   UNL     1     -14.869   3.210  30.537  0.00  0.00    +0.131 A 
ATOM     19  C   UNL     1     -15.990   3.492  31.284  0.00  0.00    +0.047 A 
BRANCH  18  21
ATOM     21  C   UNL     1     -13.535   2.699  30.879  0.00  0.00    +0.230 C 
BRANCH  21   3
ATOM      3  O   UNL     1     -13.077   1.797  29.868  0.00  0.00    -0.387 OA
ATOM     28  H   UNL     1     -12.116   1.924  29.789  0.00  0.00    +0.210 HD
ENDBRANCH  21   3
ENDBRANCH  18  21
ENDBRANCH  13  15
ENDBRANCH   4  13
TORSDOF 7
ENDMDL
MODEL 6
REMARK VINA RESULT:      -6.6     26.062     29.728
REMARK  Name = 45783806
REMARK  9 active torsions:
REMARK  status: ('A' for Active; 'I' for Inactive)
REMARK    1  A    between atoms: O_3  and  C_21
REMARK    2  A    between atoms: N_4  and  C_13
REMARK    3  A    between atoms: N_8  and  C_25
REMARK    4  A    between atoms: N_8  and  C_26
REMARK    5  A    between atoms: N_8  and  C_27
REMARK    6  A    between atoms: C_9  and  C_14
REMARK    7  A    between atoms: C_13  and  C_15
REMARK    8  A    between atoms: C_17  and  C_20
REMARK    9  A    between atoms: C_18  and  C_21
REMARK                            x       y       z     vdW  Elec       q    Type
REMARK                         _______ _______ _______ _____ _____    ______ ____
ROOT
ATOM      4  N   UNL     1      -3.033 -10.524  14.152  0.00  0.00    -0.284 NA
ATOM      9  C   UNL     1      -3.332 -11.154  15.453  0.00  0.00    +0.146 C 
ATOM     10  C   UNL     1      -2.148 -10.766  16.358  0.00  0.00    +0.030 C 
ATOM     11  C   UNL     1      -1.208  -9.970  15.462  0.00  0.00    +0.017 C 
ATOM     12  C   UNL     1      -1.575 -10.426  14.065  0.00  0.00    +0.085 C 
ENDROOT
BRANCH   9  14
ATOM      1  O   UNL     1      -4.878 -10.971  17.336  0.00  0.00    -0.336 OA
ATOM      5  N   UNL     1      -5.669 -10.126  15.419  0.00  0.00    -0.190 NA
ATOM      6  N   UNL     1      -6.161 -10.485  17.624  0.00  0.00    -0.056 NA
ATOM     14  C   UNL     1      -4.667 -10.719  16.018  0.00  0.00    +0.245 A 
ATOM     17  C   UNL     1      -6.562 -10.003  16.443  0.00  0.00    +0.204 A 
BRANCH  17  20
ATOM      7  N   UNL     1      -9.713  -8.914  14.795  0.00  0.00    -0.240 NA
ATOM     20  C   UNL     1      -7.846  -9.392  16.255  0.00  0.00    +0.041 A 
ATOM     22  C   UNL     1      -8.470  -8.704  17.290  0.00  0.00    +0.016 A 
ATOM     23  C   UNL     1      -8.503  -9.467  15.038  0.00  0.00    +0.124 A 
ATOM     24  C   UNL     1      -9.715  -8.121  17.079  0.00  0.00    +0.044 A 
ATOM     25  C   UNL     1     -10.288  -8.254  15.824  0.00  0.00    +0.121 A 
BRANCH  25   8
ATOM      8  N   UNL     1     -11.557  -7.656  15.624  0.00  0.00    -0.321 N 
ATOM     26  C   UNL     1     -12.634  -8.415  15.031  0.00  0.00    +0.130 C 
ATOM     27  C   UNL     1     -11.780  -6.278  16.006  0.00  0.00    +0.130 C 
ENDBRANCH  25   8
ENDBRANCH  17  20
ENDBRANCH   9  14
BRANCH   4  13
ATOM     13  C   UNL     1      -3.604 -11.243  13.020  0.00  0.00    +0.159 C 
BRANCH  13  15
ATOM      2  O   UNL     1      -5.043  -9.910  11.578  0.00  0.00    -0.461 OA
ATOM     15  C   UNL     1      -3.780 -10.351  11.820  0.00  0.00    +0.119 A 
ATOM     16  C   UNL     1      -2.909  -9.863  10.873  0.00  0.00    +0.046 A 
ATOM     18  C   UNL     1      -4.977  -9.133  10.466  0.00  0.00    +0.131 A 
ATOM     19  C   UNL     1      -3.686  -9.073   9.994  0.00  0.00    +0.047 A 
BRANCH  18  21
ATOM     21  C   UNL     1      -6.242  -8.539  10.012  0.00  0.00    +0.230 C 
BRANCH  21   3
ATOM      3  O   UNL     1      -6.041  -7.820   8.793  0.00  0.00    -0.387 OA
ATOM     28  H   UNL     1      -6.336  -8.399   8.069  0.00  0.00    +0.210 HD
ENDBRANCH  21   3
ENDBRANCH  18  21
ENDBRANCH  13  15
ENDBRANCH   4  13
TORSDOF 7
ENDMDL
MODEL 7
REMARK VINA RESULT:      -6.5     16.281     19.397
REMARK  Name = 45783806
REMARK  9 active torsions:
REMARK  status: ('A' for Active; 'I' for Inactive)
REMARK    1  A    between atoms: O_3  and  C_21
REMARK    2  A    between atoms: N_4  and  C_13
REMARK    3  A    between atoms: N_8  and  C_25
REMARK    4  A    between atoms: N_8  and  C_26
REMARK    5  A    between atoms: N_8  and  C_27
REMARK    6  A    between atoms: C_9  and  C_14
REMARK    7  A    between atoms: C_13  and  C_15
REMARK    8  A    between atoms: C_17  and  C_20
REMARK    9  A    between atoms: C_18  and  C_21
REMARK                            x       y       z     vdW  Elec       q    Type
REMARK                         _______ _______ _______ _____ _____    ______ ____
ROOT
ATOM      4  N   UNL     1       9.378   7.707   6.310  0.00  0.00    -0.284 NA
ATOM      9  C   UNL     1      10.513   6.773   6.448  0.00  0.00    +0.146 C 
ATOM     10  C   UNL     1      10.308   6.109   7.822  0.00  0.00    +0.030 C 
ATOM     11  C   UNL     1       9.070   6.777   8.406  0.00  0.00    +0.017 C 
ATOM     12  C   UNL     1       8.996   8.098   7.668  0.00  0.00    +0.085 C 
ENDROOT
BRANCH   9  14
ATOM      1  O   UNL     1      10.024   4.551   5.554  0.00  0.00    -0.336 OA
ATOM      5  N   UNL     1      11.103   5.895   4.124  0.00  0.00    -0.190 NA
ATOM      6  N   UNL     1      10.207   3.806   4.382  0.00  0.00    -0.056 NA
ATOM     14  C   UNL     1      10.580   5.768   5.317  0.00  0.00    +0.245 A 
ATOM     17  C   UNL     1      10.851   4.667   3.587  0.00  0.00    +0.204 A 
BRANCH  17  20
ATOM      7  N   UNL     1      10.667   4.080  -0.081  0.00  0.00    -0.240 NA
ATOM     20  C   UNL     1      11.252   4.331   2.251  0.00  0.00    +0.041 A 
ATOM     22  C   UNL     1      12.558   3.939   1.973  0.00  0.00    +0.016 A 
ATOM     23  C   UNL     1      10.353   4.384   1.199  0.00  0.00    +0.124 A 
ATOM     24  C   UNL     1      12.918   3.618   0.669  0.00  0.00    +0.044 A 
ATOM     25  C   UNL     1      11.943   3.704  -0.313  0.00  0.00    +0.121 A 
BRANCH  25   8
ATOM      8  N   UNL     1      12.326   3.375  -1.637  0.00  0.00    -0.321 N 
ATOM     26  C   UNL     1      11.518   2.474  -2.426  0.00  0.00    +0.130 C 
ATOM     27  C   UNL     1      13.534   3.934  -2.205  0.00  0.00    +0.130 C 
ENDBRANCH  25   8
ENDBRANCH  17  20
ENDBRANCH   9  14
BRANCH   4  13
ATOM     13  C   UNL     1       9.682   8.860   5.472  0.00  0.00    +0.159 C 
BRANCH  13  15
ATOM      2  O   UNL     1       7.547   9.696   4.654  0.00  0.00    -0.461 OA
ATOM     15  C   UNL     1       8.686   9.019   4.354  0.00  0.00    +0.119 A 
ATOM     16  C   UNL     1       8.674   8.614   3.039  0.00  0.00    +0.046 A 
ATOM     18  C   UNL     1       6.799   9.723   3.520  0.00  0.00    +0.131 A 
ATOM     19  C   UNL     1       7.450   9.071   2.498  0.00  0.00    +0.047 A 
BRANCH  18  21
ATOM     21  C   UNL     1       5.506  10.414   3.610  0.00  0.00    +0.230 C 
BRANCH  21   3
ATOM      3  O   UNL     1       4.571   9.833   2.698  0.00  0.00    -0.387 OA
ATOM     28  H   UNL     1       4.041   9.193   3.205  0.00  0.00    +0.210 HD
ENDBRANCH  21   3
ENDBRANCH  18  21
ENDBRANCH  13  15
ENDBRANCH   4  13
TORSDOF 7
ENDMDL
MODEL 8
REMARK VINA RESULT:      -6.4     27.794     31.929
REMARK  Name = 45783806
REMARK  9 active torsions:
REMARK  status: ('A' for Active; 'I' for Inactive)
REMARK    1  A    between atoms: O_3  and  C_21
REMARK    2  A    between atoms: N_4  and  C_13
REMARK    3  A    between atoms: N_8  and  C_25
REMARK    4  A    between atoms: N_8  and  C_26
REMARK    5  A    between atoms: N_8  and  C_27
REMARK    6  A    between atoms: C_9  and  C_14
REMARK    7  A    between atoms: C_13  and  C_15
REMARK    8  A    between atoms: C_17  and  C_20
REMARK    9  A    between atoms: C_18  and  C_21
REMARK                            x       y       z     vdW  Elec       q    Type
REMARK                         _______ _______ _______ _____ _____    ______ ____
ROOT
ATOM      4  N   UNL     1     -16.631   4.332  25.726  0.00  0.00    -0.284 NA
ATOM      9  C   UNL     1     -17.114   4.756  24.397  0.00  0.00    +0.146 C 
ATOM     10  C   UNL     1     -18.038   5.955  24.682  0.00  0.00    +0.030 C 
ATOM     11  C   UNL     1     -18.058   6.091  26.198  0.00  0.00    +0.017 C 
ATOM     12  C   UNL     1     -17.669   4.709  26.685  0.00  0.00    +0.085 C 
ENDROOT
BRANCH   9  14
ATOM      1  O   UNL     1     -15.374   4.054  22.832  0.00  0.00    -0.336 OA
ATOM      5  N   UNL     1     -15.499   6.271  23.126  0.00  0.00    -0.190 NA
ATOM      6  N   UNL     1     -14.380   4.612  22.017  0.00  0.00    -0.056 NA
ATOM     14  C   UNL     1     -15.986   5.099  23.448  0.00  0.00    +0.245 A 
ATOM     17  C   UNL     1     -14.516   5.922  22.247  0.00  0.00    +0.204 A 
BRANCH  17  20
ATOM      7  N   UNL     1     -13.383   9.194  20.889  0.00  0.00    -0.240 NA
ATOM     20  C   UNL     1     -13.689   6.907  21.611  0.00  0.00    +0.041 A 
ATOM     22  C   UNL     1     -12.436   6.573  21.109  0.00  0.00    +0.016 A 
ATOM     23  C   UNL     1     -14.113   8.219  21.477  0.00  0.00    +0.124 A 
ATOM     24  C   UNL     1     -11.656   7.548  20.497  0.00  0.00    +0.044 A 
ATOM     25  C   UNL     1     -12.171   8.832  20.413  0.00  0.00    +0.121 A 
BRANCH  25   8
ATOM      8  N   UNL     1     -11.364   9.815  19.789  0.00  0.00    -0.321 N 
ATOM     26  C   UNL     1     -11.796  11.195  19.750  0.00  0.00    +0.130 C 
ATOM     27  C   UNL     1     -10.107   9.443  19.178  0.00  0.00    +0.130 C 
ENDBRANCH  25   8
ENDBRANCH  17  20
ENDBRANCH   9  14
BRANCH   4  13
ATOM     13  C   UNL     1     -16.310   2.912  25.794  0.00  0.00    +0.159 C 
BRANCH  13  15
ATOM      2  O   UNL     1     -15.252   2.935  27.986  0.00  0.00    -0.461 OA
ATOM     15  C   UNL     1     -16.245   2.419  27.215  0.00  0.00    +0.119 A 
ATOM     16  C   UNL     1     -16.999   1.522  27.937  0.00  0.00    +0.046 A 
ATOM     18  C   UNL     1     -15.373   2.363  29.212  0.00  0.00    +0.131 A 
ATOM     19  C   UNL     1     -16.433   1.487  29.233  0.00  0.00    +0.047 A 
BRANCH  18  21
ATOM     21  C   UNL     1     -14.392   2.779  30.223  0.00  0.00    +0.230 C 
BRANCH  21   3
ATOM      3  O   UNL     1     -13.118   2.190  29.947  0.00  0.00    -0.387 OA
ATOM     28  H   UNL     1     -13.278   1.252  29.742  0.00  0.00    +0.210 HD
ENDBRANCH  21   3
ENDBRANCH  18  21
ENDBRANCH  13  15
ENDBRANCH   4  13
TORSDOF 7
ENDMDL
MODEL 9
REMARK VINA RESULT:      -6.4     26.611     30.466
REMARK  Name = 45783806
REMARK  9 active torsions:
REMARK  status: ('A' for Active; 'I' for Inactive)
REMARK    1  A    between atoms: O_3  and  C_21
REMARK    2  A    between atoms: N_4  and  C_13
REMARK    3  A    between atoms: N_8  and  C_25
REMARK    4  A    between atoms: N_8  and  C_26
REMARK    5  A    between atoms: N_8  and  C_27
REMARK    6  A    between atoms: C_9  and  C_14
REMARK    7  A    between atoms: C_13  and  C_15
REMARK    8  A    between atoms: C_17  and  C_20
REMARK    9  A    between atoms: C_18  and  C_21
REMARK                            x       y       z     vdW  Elec       q    Type
REMARK                         _______ _______ _______ _____ _____    ______ ____
ROOT
ATOM      4  N   UNL     1     -11.445 -10.768  18.016  0.00  0.00    -0.284 NA
ATOM      9  C   UNL     1     -10.665 -11.462  19.060  0.00  0.00    +0.146 C 
ATOM     10  C   UNL     1     -11.035 -12.948  18.901  0.00  0.00    +0.030 C 
ATOM     11  C   UNL     1     -12.071 -12.983  17.787  0.00  0.00    +0.017 C 
ATOM     12  C   UNL     1     -12.641 -11.579  17.785  0.00  0.00    +0.085 C 
ENDROOT
BRANCH   9  14
ATOM      1  O   UNL     1      -8.520 -10.891  20.082  0.00  0.00    -0.336 OA
ATOM      5  N   UNL     1      -8.412 -11.261  17.876  0.00  0.00    -0.190 NA
ATOM      6  N   UNL     1      -7.178 -10.710  19.723  0.00  0.00    -0.056 NA
ATOM     14  C   UNL     1      -9.177 -11.213  18.937  0.00  0.00    +0.245 A 
ATOM     17  C   UNL     1      -7.195 -10.945  18.407  0.00  0.00    +0.204 A 
BRANCH  17  20
ATOM      7  N   UNL     1      -5.003 -10.374  15.457  0.00  0.00    -0.240 NA
ATOM     20  C   UNL     1      -6.014 -10.876  17.595  0.00  0.00    +0.041 A 
ATOM     22  C   UNL     1      -4.770 -11.223  18.111  0.00  0.00    +0.016 A 
ATOM     23  C   UNL     1      -6.077 -10.462  16.275  0.00  0.00    +0.124 A 
ATOM     24  C   UNL     1      -3.642 -11.145  17.300  0.00  0.00    +0.044 A 
ATOM     25  C   UNL     1      -3.812 -10.719  15.993  0.00  0.00    +0.121 A 
BRANCH  25   8
ATOM      8  N   UNL     1      -2.653 -10.645  15.180  0.00  0.00    -0.321 N 
ATOM     26  C   UNL     1      -1.338 -10.691  15.780  0.00  0.00    +0.130 C 
ATOM     27  C   UNL     1      -2.779 -10.514  13.745  0.00  0.00    +0.130 C 
ENDBRANCH  25   8
ENDBRANCH  17  20
ENDBRANCH   9  14
BRANCH   4  13
ATOM     13  C   UNL     1     -11.774  -9.392  18.365  0.00  0.00    +0.159 C 
BRANCH  13  15
ATOM      2  O   UNL     1     -12.169  -7.792  16.573  0.00  0.00    -0.461 OA
ATOM     15  C   UNL     1     -11.244  -8.414  17.351  0.00  0.00    +0.119 A 
ATOM     16  C   UNL     1      -9.976  -7.991  17.024  0.00  0.00    +0.046 A 
ATOM     18  C   UNL     1     -11.485  -6.965  15.740  0.00  0.00    +0.131 A 
ATOM     19  C   UNL     1     -10.133  -7.051  15.978  0.00  0.00    +0.047 A 
BRANCH  18  21
ATOM     21  C   UNL     1     -12.292  -6.179  14.797  0.00  0.00    +0.230 C 
BRANCH  21   3
ATOM      3  O   UNL     1     -11.522  -5.095  14.272  0.00  0.00    -0.387 OA
ATOM     28  H   UNL     1     -10.669  -5.466  13.983  0.00  0.00    +0.210 HD
ENDBRANCH  21   3
ENDBRANCH  18  21
ENDBRANCH  13  15
ENDBRANCH   4  13
TORSDOF 7
ENDMDL
MODEL 10
REMARK VINA RESULT:      -6.3     25.986     29.951
REMARK  Name = 45783806
REMARK  9 active torsions:
REMARK  status: ('A' for Active; 'I' for Inactive)
REMARK    1  A    between atoms: O_3  and  C_21
REMARK    2  A    between atoms: N_4  and  C_13
REMARK    3  A    between atoms: N_8  and  C_25
REMARK    4  A    between atoms: N_8  and  C_26
REMARK    5  A    between atoms: N_8  and  C_27
REMARK    6  A    between atoms: C_9  and  C_14
REMARK    7  A    between atoms: C_13  and  C_15
REMARK    8  A    between atoms: C_17  and  C_20
REMARK    9  A    between atoms: C_18  and  C_21
REMARK                            x       y       z     vdW  Elec       q    Type
REMARK                         _______ _______ _______ _____ _____    ______ ____
ROOT
ATOM      4  N   UNL     1      -3.073 -10.587  14.243  0.00  0.00    -0.284 NA
ATOM      9  C   UNL     1      -3.201 -11.275  15.544  0.00  0.00    +0.146 C 
ATOM     10  C   UNL     1      -2.015 -10.758  16.379  0.00  0.00    +0.030 C 
ATOM     11  C   UNL     1      -1.245  -9.833  15.446  0.00  0.00    +0.017 C 
ATOM     12  C   UNL     1      -1.648 -10.305  14.063  0.00  0.00    +0.085 C 
ENDROOT
BRANCH   9  14
ATOM      1  O   UNL     1      -5.106  -9.808  15.981  0.00  0.00    -0.336 OA
ATOM      5  N   UNL     1      -5.244 -11.808  16.980  0.00  0.00    -0.190 NA
ATOM      6  N   UNL     1      -6.316  -9.808  16.687  0.00  0.00    -0.056 NA
ATOM     14  C   UNL     1      -4.538 -11.021  16.207  0.00  0.00    +0.245 A 
ATOM     17  C   UNL     1      -6.325 -11.021  17.250  0.00  0.00    +0.204 A 
BRANCH  17  20
ATOM      7  N   UNL     1      -9.666 -11.187  18.875  0.00  0.00    -0.240 NA
ATOM     20  C   UNL     1      -7.400 -11.476  18.084  0.00  0.00    +0.041 A 
ATOM     22  C   UNL     1      -7.253 -12.599  18.891  0.00  0.00    +0.016 A 
ATOM     23  C   UNL     1      -8.614 -10.810  18.112  0.00  0.00    +0.124 A 
ATOM     24  C   UNL     1      -8.313 -13.017  19.689  0.00  0.00    +0.044 A 
ATOM     25  C   UNL     1      -9.487 -12.282  19.645  0.00  0.00    +0.121 A 
BRANCH  25   8
ATOM      8  N   UNL     1     -10.557 -12.720  20.464  0.00  0.00    -0.321 N 
ATOM     26  C   UNL     1     -11.803 -11.987  20.489  0.00  0.00    +0.130 C 
ATOM     27  C   UNL     1     -10.408 -13.902  21.285  0.00  0.00    +0.130 C 
ENDBRANCH  25   8
ENDBRANCH  17  20
ENDBRANCH   9  14
BRANCH   4  13
ATOM     13  C   UNL     1      -3.626 -11.350  13.133  0.00  0.00    +0.159 C 
BRANCH  13  15
ATOM      2  O   UNL     1      -4.953  -9.957  11.642  0.00  0.00    -0.461 OA
ATOM     15  C   UNL     1      -3.739 -10.520  11.882  0.00  0.00    +0.119 A 
ATOM     16  C   UNL     1      -2.848 -10.191  10.886  0.00  0.00    +0.046 A 
ATOM     18  C   UNL     1      -4.836  -9.261  10.480  0.00  0.00    +0.131 A 
ATOM     19  C   UNL     1      -3.561  -9.374   9.977  0.00  0.00    +0.047 A 
BRANCH  18  21
ATOM     21  C   UNL     1      -6.041  -8.559  10.019  0.00  0.00    +0.230 C 
BRANCH  21   3
ATOM      3  O   UNL     1      -5.688  -7.531   9.091  0.00  0.00    -0.387 OA
ATOM     28  H   UNL     1      -5.802  -7.902   8.198  0.00  0.00    +0.210 HD
ENDBRANCH  21   3
ENDBRANCH  18  21
ENDBRANCH  13  15
ENDBRANCH   4  13
TORSDOF 7
ENDMDL
