MODEL 1
REMARK VINA RESULT:      -7.7      0.000      0.000
REMARK  Name = 26742282
REMARK  4 active torsions:
REMARK  status: ('A' for Active; 'I' for Inactive)
REMARK    1  A    between atoms: O_4  and  C_28
REMARK    2  A    between atoms: O_4  and  C_32
REMARK    3  A    between atoms: N_7  and  C_21
REMARK    4  A    between atoms: C_18  and  C_20
REMARK                            x       y       z     vdW  Elec       q    Type
REMARK                         _______ _______ _______ _____ _____    ______ ____
ROOT
ATOM      2  O   UNL     1      10.766   7.158   2.256  0.00  0.00    -0.267 OA
ATOM      3  O   UNL     1      13.354   6.410   7.398  0.00  0.00    -0.252 OA
ATOM      5  N   UNL     1      11.451   7.712   7.198  0.00  0.00    -0.284 N 
ATOM      6  N   UNL     1      10.086   6.802   4.458  0.00  0.00    -0.311 N 
ATOM      7  N   UNL     1      13.559   8.570   6.578  0.00  0.00    -0.269 N 
ATOM      8  C   UNL     1       9.471   8.719   6.036  0.00  0.00    +0.027 C 
ATOM      9  C   UNL     1       9.367   6.399   6.837  0.00  0.00    +0.054 C 
ATOM     10  C   UNL     1       8.570   7.695   6.714  0.00  0.00    +0.018 C 
ATOM     11  C   UNL     1      10.752   8.963   6.861  0.00  0.00    +0.114 C 
ATOM     12  C   UNL     1       9.789   8.231   4.617  0.00  0.00    +0.130 C 
ATOM     13  C   UNL     1      10.595   6.645   7.731  0.00  0.00    +0.119 C 
ATOM     14  C   UNL     1       9.812   5.890   5.480  0.00  0.00    +0.027 A 
ATOM     15  C   UNL     1       9.977   4.574   5.271  0.00  0.00    +0.022 A 
ATOM     16  C   UNL     1      10.550   6.388   3.193  0.00  0.00    +0.259 A 
ATOM     17  C   UNL     1      12.839   7.483   7.072  0.00  0.00    +0.306 C 
ATOM     18  C   UNL     1      10.763   4.912   3.002  0.00  0.00    +0.047 A 
ATOM     19  C   UNL     1      10.464   4.082   4.013  0.00  0.00    +0.015 A 
ATOM     33  H   UNL     1      13.220   9.503   6.787  0.00  0.00    +0.156 HD
ENDROOT
BRANCH   7  21
ATOM      1  F   UNL     1      15.953   7.185   2.650  0.00  0.00    -0.205 F 
ATOM     21  C   UNL     1      14.749   8.531   5.809  0.00  0.00    +0.037 A 
ATOM     26  C   UNL     1      14.766   7.864   4.584  0.00  0.00    +0.061 A 
ATOM     27  C   UNL     1      15.903   9.159   6.277  0.00  0.00    +0.023 A 
ATOM     29  C   UNL     1      15.937   7.825   3.827  0.00  0.00    +0.125 A 
ATOM     30  C   UNL     1      17.075   9.120   5.520  0.00  0.00    +0.005 A 
ATOM     31  C   UNL     1      17.091   8.453   4.296  0.00  0.00    +0.038 A 
ENDBRANCH   7  21
BRANCH  18  20
ATOM     20  C   UNL     1      11.298   4.375   1.738  0.00  0.00    -0.012 A 
ATOM     22  C   UNL     1      12.557   3.776   1.711  0.00  0.00    +0.012 A 
ATOM     23  C   UNL     1      10.544   4.466   0.568  0.00  0.00    +0.012 A 
ATOM     24  C   UNL     1      13.063   3.269   0.514  0.00  0.00    +0.046 A 
ATOM     25  C   UNL     1      11.050   3.960  -0.629  0.00  0.00    +0.046 A 
ATOM     28  C   UNL     1      12.309   3.360  -0.655  0.00  0.00    +0.120 A 
BRANCH  28   4
ATOM      4  O   UNL     1      12.803   2.867  -1.824  0.00  0.00    -0.495 OA
ATOM     32  C   UNL     1      11.857   2.395  -2.781  0.00  0.00    +0.277 C 
ENDBRANCH  28   4
ENDBRANCH  18  20
TORSDOF 3
ENDMDL
MODEL 2
REMARK VINA RESULT:      -7.2     26.425     29.813
REMARK  Name = 26742282
REMARK  4 active torsions:
REMARK  status: ('A' for Active; 'I' for Inactive)
REMARK    1  A    between atoms: O_4  and  C_28
REMARK    2  A    between atoms: O_4  and  C_32
REMARK    3  A    between atoms: N_7  and  C_21
REMARK    4  A    between atoms: C_18  and  C_20
REMARK                            x       y       z     vdW  Elec       q    Type
REMARK                         _______ _______ _______ _____ _____    ______ ____
ROOT
ATOM      2  O   UNL     1     -14.431   9.339  19.609  0.00  0.00    -0.267 OA
ATOM      3  O   UNL     1     -10.876   8.331  15.130  0.00  0.00    -0.252 OA
ATOM      5  N   UNL     1     -11.236  10.481  15.908  0.00  0.00    -0.284 N 
ATOM      6  N   UNL     1     -12.363  10.130  18.877  0.00  0.00    -0.311 N 
ATOM      7  N   UNL     1     -12.826   9.428  14.520  0.00  0.00    -0.269 N 
ATOM      8  C   UNL     1     -12.124  12.243  17.454  0.00  0.00    +0.027 C 
ATOM      9  C   UNL     1     -10.123  10.963  18.082  0.00  0.00    +0.054 C 
ATOM     10  C   UNL     1     -10.745  12.357  18.093  0.00  0.00    +0.018 C 
ATOM     11  C   UNL     1     -12.022  11.721  16.006  0.00  0.00    +0.114 C 
ATOM     12  C   UNL     1     -12.997  11.336  18.328  0.00  0.00    +0.130 C 
ATOM     13  C   UNL     1      -9.955  10.497  16.625  0.00  0.00    +0.119 C 
ATOM     14  C   UNL     1     -10.976   9.969  18.845  0.00  0.00    +0.027 A 
ATOM     15  C   UNL     1     -10.407   8.918  19.458  0.00  0.00    +0.022 A 
ATOM     16  C   UNL     1     -13.208   9.210  19.528  0.00  0.00    +0.259 A 
ATOM     17  C   UNL     1     -11.603   9.327  15.181  0.00  0.00    +0.306 C 
ATOM     18  C   UNL     1     -12.545   8.023  20.171  0.00  0.00    +0.047 A 
ATOM     19  C   UNL     1     -11.207   7.931  20.126  0.00  0.00    +0.015 A 
ATOM     33  H   UNL     1     -13.119  10.343  14.194  0.00  0.00    +0.156 HD
ENDROOT
BRANCH   7  21
ATOM      1  F   UNL     1     -16.529   6.633  15.767  0.00  0.00    -0.205 F 
ATOM     21  C   UNL     1     -13.732   8.378  14.227  0.00  0.00    +0.037 A 
ATOM     26  C   UNL     1     -14.703   8.015  15.159  0.00  0.00    +0.061 A 
ATOM     27  C   UNL     1     -13.651   7.706  13.007  0.00  0.00    +0.023 A 
ATOM     29  C   UNL     1     -15.594   6.981  14.872  0.00  0.00    +0.125 A 
ATOM     30  C   UNL     1     -14.541   6.671  12.720  0.00  0.00    +0.005 A 
ATOM     31  C   UNL     1     -15.513   6.310  13.652  0.00  0.00    +0.038 A 
ENDBRANCH   7  21
BRANCH  18  20
ATOM     20  C   UNL     1     -13.337   6.971  20.832  0.00  0.00    -0.012 A 
ATOM     22  C   UNL     1     -12.714   6.061  21.686  0.00  0.00    +0.012 A 
ATOM     23  C   UNL     1     -14.710   6.884  20.603  0.00  0.00    +0.012 A 
ATOM     24  C   UNL     1     -13.464   5.065  22.311  0.00  0.00    +0.046 A 
ATOM     25  C   UNL     1     -15.460   5.888  21.226  0.00  0.00    +0.046 A 
ATOM     28  C   UNL     1     -14.837   4.978  22.082  0.00  0.00    +0.120 A 
BRANCH  28   4
ATOM      4  O   UNL     1     -15.568   4.005  22.690  0.00  0.00    -0.495 OA
ATOM     32  C   UNL     1     -15.441   3.886  24.106  0.00  0.00    +0.277 C 
ENDBRANCH  28   4
ENDBRANCH  18  20
TORSDOF 3
ENDMDL
MODEL 3
REMARK VINA RESULT:      -7.0     25.790     28.547
REMARK  Name = 26742282
REMARK  4 active torsions:
REMARK  status: ('A' for Active; 'I' for Inactive)
REMARK    1  A    between atoms: O_4  and  C_28
REMARK    2  A    between atoms: O_4  and  C_32
REMARK    3  A    between atoms: N_7  and  C_21
REMARK    4  A    between atoms: C_18  and  C_20
REMARK                            x       y       z     vdW  Elec       q    Type
REMARK                         _______ _______ _______ _____ _____    ______ ____
ROOT
ATOM      2  O   UNL     1      -7.491  -8.841  17.049  0.00  0.00    -0.267 OA
ATOM      3  O   UNL     1      -5.428 -12.999  13.562  0.00  0.00    -0.252 OA
ATOM      5  N   UNL     1      -4.425 -12.542  15.598  0.00  0.00    -0.284 N 
ATOM      6  N   UNL     1      -6.640 -10.997  17.305  0.00  0.00    -0.311 N 
ATOM      7  N   UNL     1      -4.019 -11.163  13.728  0.00  0.00    -0.269 N 
ATOM      8  C   UNL     1      -4.180 -11.451  17.841  0.00  0.00    +0.027 C 
ATOM      9  C   UNL     1      -5.734 -13.332  17.563  0.00  0.00    +0.054 C 
ATOM     10  C   UNL     1      -4.696 -12.723  18.501  0.00  0.00    +0.018 C 
ATOM     11  C   UNL     1      -3.539 -11.758  16.472  0.00  0.00    +0.114 C 
ATOM     12  C   UNL     1      -5.339 -10.455  17.719  0.00  0.00    +0.130 C 
ATOM     13  C   UNL     1      -5.055 -13.706  16.233  0.00  0.00    +0.119 C 
ATOM     14  C   UNL     1      -6.879 -12.373  17.303  0.00  0.00    +0.027 A 
ATOM     15  C   UNL     1      -8.109 -12.842  17.038  0.00  0.00    +0.022 A 
ATOM     16  C   UNL     1      -7.655 -10.061  17.021  0.00  0.00    +0.259 A 
ATOM     17  C   UNL     1      -4.686 -12.277  14.235  0.00  0.00    +0.306 C 
ATOM     18  C   UNL     1      -9.012 -10.619  16.688  0.00  0.00    +0.047 A 
ATOM     19  C   UNL     1      -9.188 -11.948  16.722  0.00  0.00    +0.015 A 
ATOM     33  H   UNL     1      -3.115 -10.926  14.123  0.00  0.00    +0.156 HD
ENDROOT
BRANCH   7  21
ATOM      1  F   UNL     1      -3.266  -8.991   9.510  0.00  0.00    -0.205 F 
ATOM     21  C   UNL     1      -4.455 -10.304  12.689  0.00  0.00    +0.037 A 
ATOM     26  C   UNL     1      -3.631 -10.065  11.589  0.00  0.00    +0.061 A 
ATOM     27  C   UNL     1      -5.708  -9.696  12.765  0.00  0.00    +0.023 A 
ATOM     29  C   UNL     1      -4.058  -9.219  10.567  0.00  0.00    +0.125 A 
ATOM     30  C   UNL     1      -6.136  -8.849  11.742  0.00  0.00    +0.005 A 
ATOM     31  C   UNL     1      -5.311  -8.611  10.644  0.00  0.00    +0.038 A 
ENDBRANCH   7  21
BRANCH  18  20
ATOM     20  C   UNL     1     -10.132  -9.733  16.323  0.00  0.00    -0.012 A 
ATOM     22  C   UNL     1     -11.036  -9.314  17.298  0.00  0.00    +0.012 A 
ATOM     23  C   UNL     1     -10.287  -9.316  15.001  0.00  0.00    +0.012 A 
ATOM     24  C   UNL     1     -12.097  -8.477  16.951  0.00  0.00    +0.046 A 
ATOM     25  C   UNL     1     -11.348  -8.480  14.655  0.00  0.00    +0.046 A 
ATOM     28  C   UNL     1     -12.253  -8.060  15.630  0.00  0.00    +0.120 A 
BRANCH  28   4
ATOM      4  O   UNL     1     -13.289  -7.244  15.291  0.00  0.00    -0.495 OA
ATOM     32  C   UNL     1     -12.961  -5.932  14.839  0.00  0.00    +0.277 C 
ENDBRANCH  28   4
ENDBRANCH  18  20
TORSDOF 3
ENDMDL
MODEL 4
REMARK VINA RESULT:      -6.9      3.318      5.448
REMARK  Name = 26742282
REMARK  4 active torsions:
REMARK  status: ('A' for Active; 'I' for Inactive)
REMARK    1  A    between atoms: O_4  and  C_28
REMARK    2  A    between atoms: O_4  and  C_32
REMARK    3  A    between atoms: N_7  and  C_21
REMARK    4  A    between atoms: C_18  and  C_20
REMARK                            x       y       z     vdW  Elec       q    Type
REMARK                         _______ _______ _______ _____ _____    ______ ____
ROOT
ATOM      2  O   UNL     1      10.108   4.706   3.316  0.00  0.00    -0.267 OA
ATOM      3  O   UNL     1       9.682  10.183   5.195  0.00  0.00    -0.252 OA
ATOM      5  N   UNL     1       9.361   8.398   6.634  0.00  0.00    -0.284 N 
ATOM      6  N   UNL     1      10.754   5.901   5.211  0.00  0.00    -0.311 N 
ATOM      7  N   UNL     1       7.648   9.069   5.157  0.00  0.00    -0.269 N 
ATOM      8  C   UNL     1       9.328   5.992   7.333  0.00  0.00    +0.027 C 
ATOM      9  C   UNL     1      11.460   7.208   7.245  0.00  0.00    +0.054 C 
ATOM     10  C   UNL     1      10.653   6.198   8.056  0.00  0.00    +0.018 C 
ATOM     11  C   UNL     1       8.549   7.318   7.215  0.00  0.00    +0.114 C 
ATOM     12  C   UNL     1       9.608   5.369   5.960  0.00  0.00    +0.130 C 
ATOM     13  C   UNL     1      10.702   8.548   7.210  0.00  0.00    +0.119 C 
ATOM     14  C   UNL     1      11.703   6.718   5.830  0.00  0.00    +0.027 A 
ATOM     15  C   UNL     1      12.806   7.094   5.163  0.00  0.00    +0.022 A 
ATOM     16  C   UNL     1      10.904   5.457   3.882  0.00  0.00    +0.259 A 
ATOM     17  C   UNL     1       8.946   9.285   5.615  0.00  0.00    +0.306 C 
ATOM     18  C   UNL     1      12.129   5.928   3.148  0.00  0.00    +0.047 A 
ATOM     19  C   UNL     1      13.016   6.695   3.800  0.00  0.00    +0.015 A 
ATOM     33  H   UNL     1       6.965   8.699   5.811  0.00  0.00    +0.156 HD
ENDROOT
BRANCH   7  21
ATOM      1  F   UNL     1       4.284  10.907   2.261  0.00  0.00    -0.205 F 
ATOM     21  C   UNL     1       7.145   9.321   3.856  0.00  0.00    +0.037 A 
ATOM     26  C   UNL     1       5.939  10.003   3.695  0.00  0.00    +0.061 A 
ATOM     27  C   UNL     1       7.855   8.887   2.737  0.00  0.00    +0.023 A 
ATOM     29  C   UNL     1       5.442  10.251   2.416  0.00  0.00    +0.125 A 
ATOM     30  C   UNL     1       7.358   9.134   1.457  0.00  0.00    +0.005 A 
ATOM     31  C   UNL     1       6.153   9.816   1.297  0.00  0.00    +0.038 A 
ENDBRANCH   7  21
BRANCH  18  20
ATOM     20  C   UNL     1      12.359   5.568   1.737  0.00  0.00    -0.012 A 
ATOM     22  C   UNL     1      13.055   4.403   1.418  0.00  0.00    +0.012 A 
ATOM     23  C   UNL     1      11.879   6.394   0.720  0.00  0.00    +0.012 A 
ATOM     24  C   UNL     1      13.274   4.064   0.083  0.00  0.00    +0.046 A 
ATOM     25  C   UNL     1      12.098   6.056  -0.614  0.00  0.00    +0.046 A 
ATOM     28  C   UNL     1      12.794   4.890  -0.933  0.00  0.00    +0.120 A 
BRANCH  28   4
ATOM      4  O   UNL     1      13.008   4.560  -2.236  0.00  0.00    -0.495 OA
ATOM     32  C   UNL     1      14.365   4.475  -2.670  0.00  0.00    +0.277 C 
ENDBRANCH  28   4
ENDBRANCH  18  20
TORSDOF 3
ENDMDL
MODEL 5
REMARK VINA RESULT:      -6.8      2.882      6.376
REMARK  Name = 26742282
REMARK  4 active torsions:
REMARK  status: ('A' for Active; 'I' for Inactive)
REMARK    1  A    between atoms: O_4  and  C_28
REMARK    2  A    between atoms: O_4  and  C_32
REMARK    3  A    between atoms: N_7  and  C_21
REMARK    4  A    between atoms: C_18  and  C_20
REMARK                            x       y       z     vdW  Elec       q    Type
REMARK                         _______ _______ _______ _____ _____    ______ ____
ROOT
ATOM      2  O   UNL     1      10.155   5.488   3.494  0.00  0.00    -0.267 OA
ATOM      3  O   UNL     1      15.108   7.490   1.222  0.00  0.00    -0.252 OA
ATOM      5  N   UNL     1      14.584   5.237   1.142  0.00  0.00    -0.284 N 
ATOM      6  N   UNL     1      11.423   5.087   1.578  0.00  0.00    -0.311 N 
ATOM      7  N   UNL     1      15.431   6.200   3.122  0.00  0.00    -0.269 N 
ATOM      8  C   UNL     1      13.148   3.204   1.438  0.00  0.00    +0.027 C 
ATOM      9  C   UNL     1      12.794   4.678  -0.495  0.00  0.00    +0.054 C 
ATOM     10  C   UNL     1      12.846   3.217  -0.055  0.00  0.00    +0.018 C 
ATOM     11  C   UNL     1      14.495   3.894   1.737  0.00  0.00    +0.114 C 
ATOM     12  C   UNL     1      11.986   3.872   2.181  0.00  0.00    +0.130 C 
ATOM     13  C   UNL     1      14.171   5.324  -0.264  0.00  0.00    +0.119 C 
ATOM     14  C   UNL     1      11.731   5.448   0.264  0.00  0.00    +0.027 A 
ATOM     15  C   UNL     1      11.113   6.494  -0.309  0.00  0.00    +0.022 A 
ATOM     16  C   UNL     1      10.480   5.798   2.347  0.00  0.00    +0.259 A 
ATOM     17  C   UNL     1      15.043   6.401   1.798  0.00  0.00    +0.306 C 
ATOM     18  C   UNL     1       9.835   6.989   1.691  0.00  0.00    +0.047 A 
ATOM     19  C   UNL     1      10.155   7.276   0.420  0.00  0.00    +0.015 A 
ATOM     33  H   UNL     1      15.812   5.295   3.377  0.00  0.00    +0.156 HD
ENDROOT
BRANCH   7  21
ATOM      1  F   UNL     1      17.590   9.281   6.109  0.00  0.00    -0.205 F 
ATOM     21  C   UNL     1      15.369   7.136   4.184  0.00  0.00    +0.037 A 
ATOM     26  C   UNL     1      16.532   7.760   4.633  0.00  0.00    +0.061 A 
ATOM     27  C   UNL     1      14.144   7.433   4.782  0.00  0.00    +0.023 A 
ATOM     29  C   UNL     1      16.472   8.681   5.679  0.00  0.00    +0.125 A 
ATOM     30  C   UNL     1      14.083   8.354   5.829  0.00  0.00    +0.005 A 
ATOM     31  C   UNL     1      15.247   8.977   6.276  0.00  0.00    +0.038 A 
ENDBRANCH   7  21
BRANCH  18  20
ATOM     20  C   UNL     1       8.875   7.836   2.422  0.00  0.00    -0.012 A 
ATOM     22  C   UNL     1       8.688   7.655   3.792  0.00  0.00    +0.012 A 
ATOM     23  C   UNL     1       8.154   8.817   1.743  0.00  0.00    +0.012 A 
ATOM     24  C   UNL     1       7.779   8.456   4.483  0.00  0.00    +0.046 A 
ATOM     25  C   UNL     1       7.245   9.617   2.433  0.00  0.00    +0.046 A 
ATOM     28  C   UNL     1       7.058   9.438   3.804  0.00  0.00    +0.120 A 
BRANCH  28   4
ATOM      4  O   UNL     1       6.169  10.218   4.478  0.00  0.00    -0.495 OA
ATOM     32  C   UNL     1       5.135  10.834   3.712  0.00  0.00    +0.277 C 
ENDBRANCH  28   4
ENDBRANCH  18  20
TORSDOF 3
ENDMDL
MODEL 6
REMARK VINA RESULT:      -6.7     42.408     43.687
REMARK  Name = 26742282
REMARK  4 active torsions:
REMARK  status: ('A' for Active; 'I' for Inactive)
REMARK    1  A    between atoms: O_4  and  C_28
REMARK    2  A    between atoms: O_4  and  C_32
REMARK    3  A    between atoms: N_7  and  C_21
REMARK    4  A    between atoms: C_18  and  C_20
REMARK                            x       y       z     vdW  Elec       q    Type
REMARK                         _______ _______ _______ _____ _____    ______ ____
ROOT
ATOM      2  O   UNL     1      -9.852 -10.478  40.087  0.00  0.00    -0.267 OA
ATOM      3  O   UNL     1      -6.383  -5.993  38.839  0.00  0.00    -0.252 OA
ATOM      5  N   UNL     1      -5.965  -7.355  40.663  0.00  0.00    -0.284 N 
ATOM      6  N   UNL     1      -7.558 -10.062  40.084  0.00  0.00    -0.311 N 
ATOM      7  N   UNL     1      -7.622  -5.679  40.774  0.00  0.00    -0.269 N 
ATOM      8  C   UNL     1      -6.290  -9.323  42.180  0.00  0.00    +0.027 C 
ATOM      9  C   UNL     1      -5.082  -9.602  40.060  0.00  0.00    +0.054 C 
ATOM     10  C   UNL     1      -5.090 -10.003  41.533  0.00  0.00    +0.018 C 
ATOM     11  C   UNL     1      -6.195  -7.789  42.050  0.00  0.00    +0.114 C 
ATOM     12  C   UNL     1      -7.571  -9.873  41.540  0.00  0.00    +0.130 C 
ATOM     13  C   UNL     1      -4.903  -8.077  39.953  0.00  0.00    +0.119 C 
ATOM     14  C   UNL     1      -6.362 -10.021  39.363  0.00  0.00    +0.027 A 
ATOM     15  C   UNL     1      -6.355 -10.315  38.053  0.00  0.00    +0.022 A 
ATOM     16  C   UNL     1      -8.785 -10.395  39.477  0.00  0.00    +0.259 A 
ATOM     17  C   UNL     1      -6.652  -6.313  40.000  0.00  0.00    +0.306 C 
ATOM     18  C   UNL     1      -8.752 -10.681  38.001  0.00  0.00    +0.047 A 
ATOM     19  C   UNL     1      -7.571 -10.646  37.364  0.00  0.00    +0.015 A 
ATOM     33  H   UNL     1      -7.474  -5.627  41.777  0.00  0.00    +0.156 HD
ENDROOT
BRANCH   7  21
ATOM      1  F   UNL     1      -9.929  -1.947  38.818  0.00  0.00    -0.205 F 
ATOM     21  C   UNL     1      -8.818  -5.070  40.320  0.00  0.00    +0.037 A 
ATOM     26  C   UNL     1      -8.784  -3.784  39.782  0.00  0.00    +0.061 A 
ATOM     27  C   UNL     1     -10.029  -5.756  40.410  0.00  0.00    +0.023 A 
ATOM     29  C   UNL     1      -9.961  -3.183  39.335  0.00  0.00    +0.125 A 
ATOM     30  C   UNL     1     -11.206  -5.156  39.963  0.00  0.00    +0.005 A 
ATOM     31  C   UNL     1     -11.172  -3.870  39.426  0.00  0.00    +0.038 A 
ENDBRANCH   7  21
BRANCH  18  20
ATOM     20  C   UNL     1      -9.985 -10.986  37.254  0.00  0.00    -0.012 A 
ATOM     22  C   UNL     1     -10.130 -12.220  36.622  0.00  0.00    +0.012 A 
ATOM     23  C   UNL     1     -11.007 -10.040  37.180  0.00  0.00    +0.012 A 
ATOM     24  C   UNL     1     -11.297 -12.509  35.914  0.00  0.00    +0.046 A 
ATOM     25  C   UNL     1     -12.174 -10.328  36.472  0.00  0.00    +0.046 A 
ATOM     28  C   UNL     1     -12.319 -11.563  35.840  0.00  0.00    +0.120 A 
BRANCH  28   4
ATOM      4  O   UNL     1     -13.457 -11.844  35.149  0.00  0.00    -0.495 OA
ATOM     32  C   UNL     1     -13.328 -12.670  33.993  0.00  0.00    +0.277 C 
ENDBRANCH  28   4
ENDBRANCH  18  20
TORSDOF 3
ENDMDL
MODEL 7
REMARK VINA RESULT:      -6.6      3.842      8.699
REMARK  Name = 26742282
REMARK  4 active torsions:
REMARK  status: ('A' for Active; 'I' for Inactive)
REMARK    1  A    between atoms: O_4  and  C_28
REMARK    2  A    between atoms: O_4  and  C_32
REMARK    3  A    between atoms: N_7  and  C_21
REMARK    4  A    between atoms: C_18  and  C_20
REMARK                            x       y       z     vdW  Elec       q    Type
REMARK                         _______ _______ _______ _____ _____    ______ ____
ROOT
ATOM      2  O   UNL     1      12.059   7.563   1.592  0.00  0.00    -0.267 OA
ATOM      3  O   UNL     1      10.014   3.633  -2.159  0.00  0.00    -0.252 OA
ATOM      5  N   UNL     1      12.183   4.426  -2.325  0.00  0.00    -0.284 N 
ATOM      6  N   UNL     1      12.863   5.638   0.551  0.00  0.00    -0.311 N 
ATOM      7  N   UNL     1      10.373   5.713  -3.121  0.00  0.00    -0.269 N 
ATOM      8  C   UNL     1      14.217   5.709  -1.618  0.00  0.00    +0.027 C 
ATOM      9  C   UNL     1      13.711   3.547  -0.567  0.00  0.00    +0.054 C 
ATOM     10  C   UNL     1      14.842   4.414  -1.115  0.00  0.00    +0.018 C 
ATOM     11  C   UNL     1      13.181   5.430  -2.726  0.00  0.00    +0.114 C 
ATOM     12  C   UNL     1      13.596   6.450  -0.428  0.00  0.00    +0.130 C 
ATOM     13  C   UNL     1      12.734   3.213  -1.708  0.00  0.00    +0.119 C 
ATOM     14  C   UNL     1      12.971   4.245   0.557  0.00  0.00    +0.027 A 
ATOM     15  C   UNL     1      12.391   3.529   1.534  0.00  0.00    +0.022 A 
ATOM     16  C   UNL     1      12.145   6.336   1.543  0.00  0.00    +0.259 A 
ATOM     17  C   UNL     1      10.786   4.532  -2.505  0.00  0.00    +0.306 C 
ATOM     18  C   UNL     1      11.473   5.504   2.600  0.00  0.00    +0.047 A 
ATOM     19  C   UNL     1      11.628   4.171   2.566  0.00  0.00    +0.015 A 
ATOM     33  H   UNL     1      11.002   6.150  -3.787  0.00  0.00    +0.156 HD
ENDROOT
BRANCH   7  21
ATOM      1  F   UNL     1       7.784   9.173  -1.023  0.00  0.00    -0.205 F 
ATOM     21  C   UNL     1       9.143   6.392  -2.935  0.00  0.00    +0.037 A 
ATOM     26  C   UNL     1       9.067   7.469  -2.053  0.00  0.00    +0.061 A 
ATOM     27  C   UNL     1       8.008   5.982  -3.634  0.00  0.00    +0.023 A 
ATOM     29  C   UNL     1       7.857   8.137  -1.869  0.00  0.00    +0.125 A 
ATOM     30  C   UNL     1       6.797   6.649  -3.451  0.00  0.00    +0.005 A 
ATOM     31  C   UNL     1       6.722   7.727  -2.569  0.00  0.00    +0.038 A 
ENDBRANCH   7  21
BRANCH  18  20
ATOM     20  C   UNL     1      10.651   6.126   3.654  0.00  0.00    -0.012 A 
ATOM     22  C   UNL     1      11.095   6.127   4.976  0.00  0.00    +0.012 A 
ATOM     23  C   UNL     1       9.428   6.713   3.328  0.00  0.00    +0.012 A 
ATOM     24  C   UNL     1      10.317   6.715   5.973  0.00  0.00    +0.046 A 
ATOM     25  C   UNL     1       8.650   7.300   4.325  0.00  0.00    +0.046 A 
ATOM     28  C   UNL     1       9.094   7.302   5.647  0.00  0.00    +0.120 A 
BRANCH  28   4
ATOM      4  O   UNL     1       8.334   7.874   6.620  0.00  0.00    -0.495 OA
ATOM     32  C   UNL     1       8.936   8.040   7.902  0.00  0.00    +0.277 C 
ENDBRANCH  28   4
ENDBRANCH  18  20
TORSDOF 3
ENDMDL
MODEL 8
REMARK VINA RESULT:      -6.6     24.405     26.519
REMARK  Name = 26742282
REMARK  4 active torsions:
REMARK  status: ('A' for Active; 'I' for Inactive)
REMARK    1  A    between atoms: O_4  and  C_28
REMARK    2  A    between atoms: O_4  and  C_32
REMARK    3  A    between atoms: N_7  and  C_21
REMARK    4  A    between atoms: C_18  and  C_20
REMARK                            x       y       z     vdW  Elec       q    Type
REMARK                         _______ _______ _______ _____ _____    ______ ____
ROOT
ATOM      2  O   UNL     1      -5.897 -12.360  11.001  0.00  0.00    -0.267 OA
ATOM      3  O   UNL     1      -3.520 -10.029  15.757  0.00  0.00    -0.252 OA
ATOM      5  N   UNL     1      -3.188 -12.258  15.226  0.00  0.00    -0.284 N 
ATOM      6  N   UNL     1      -3.850 -12.494  12.110  0.00  0.00    -0.311 N 
ATOM      7  N   UNL     1      -5.204 -11.553  16.230  0.00  0.00    -0.269 N 
ATOM      8  C   UNL     1      -3.329 -14.326  13.818  0.00  0.00    +0.027 C 
ATOM      9  C   UNL     1      -1.640 -12.616  13.311  0.00  0.00    +0.054 C 
ATOM     10  C   UNL     1      -1.879 -14.121  13.397  0.00  0.00    +0.018 C 
ATOM     11  C   UNL     1      -3.607 -13.668  15.184  0.00  0.00    +0.114 C 
ATOM     12  C   UNL     1      -4.243 -13.772  12.719  0.00  0.00    +0.130 C 
ATOM     13  C   UNL     1      -1.843 -11.992  14.703  0.00  0.00    +0.119 C 
ATOM     14  C   UNL     1      -2.575 -11.962  12.312  0.00  0.00    +0.027 A 
ATOM     15  C   UNL     1      -2.195 -10.856  11.651  0.00  0.00    +0.022 A 
ATOM     16  C   UNL     1      -4.778 -11.899  11.232  0.00  0.00    +0.259 A 
ATOM     17  C   UNL     1      -3.953 -11.185  15.738  0.00  0.00    +0.306 C 
ATOM     18  C   UNL     1      -4.338 -10.640  10.538  0.00  0.00    +0.047 A 
ATOM     19  C   UNL     1      -3.094 -10.186  10.755  0.00  0.00    +0.015 A 
ATOM     33  H   UNL     1      -5.306 -12.480  16.630  0.00  0.00    +0.156 HD
ENDROOT
BRANCH   7  21
ATOM      1  F   UNL     1      -8.965  -9.590  13.977  0.00  0.00    -0.205 F 
ATOM     21  C   UNL     1      -6.381 -10.764  16.254  0.00  0.00    +0.037 A 
ATOM     26  C   UNL     1      -7.108 -10.561  15.081  0.00  0.00    +0.061 A 
ATOM     27  C   UNL     1      -6.813 -10.190  17.450  0.00  0.00    +0.023 A 
ATOM     29  C   UNL     1      -8.266  -9.784  15.103  0.00  0.00    +0.125 A 
ATOM     30  C   UNL     1      -7.971  -9.413  17.472  0.00  0.00    +0.005 A 
ATOM     31  C   UNL     1      -8.697  -9.211  16.299  0.00  0.00    +0.038 A 
ENDBRANCH   7  21
BRANCH  18  20
ATOM     20  C   UNL     1      -5.247  -9.905   9.640  0.00  0.00    -0.012 A 
ATOM     22  C   UNL     1      -6.116  -8.946  10.160  0.00  0.00    +0.012 A 
ATOM     23  C   UNL     1      -5.239 -10.169   8.271  0.00  0.00    +0.012 A 
ATOM     24  C   UNL     1      -6.977  -8.251   9.311  0.00  0.00    +0.046 A 
ATOM     25  C   UNL     1      -6.101  -9.476   7.422  0.00  0.00    +0.046 A 
ATOM     28  C   UNL     1      -6.969  -8.516   7.942  0.00  0.00    +0.120 A 
BRANCH  28   4
ATOM      4  O   UNL     1      -7.811  -7.839   7.113  0.00  0.00    -0.495 OA
ATOM     32  C   UNL     1      -8.258  -6.556   7.548  0.00  0.00    +0.277 C 
ENDBRANCH  28   4
ENDBRANCH  18  20
TORSDOF 3
ENDMDL
MODEL 9
REMARK VINA RESULT:      -6.4     31.995     34.543
REMARK  Name = 26742282
REMARK  4 active torsions:
REMARK  status: ('A' for Active; 'I' for Inactive)
REMARK    1  A    between atoms: O_4  and  C_28
REMARK    2  A    between atoms: O_4  and  C_32
REMARK    3  A    between atoms: N_7  and  C_21
REMARK    4  A    between atoms: C_18  and  C_20
REMARK                            x       y       z     vdW  Elec       q    Type
REMARK                         _______ _______ _______ _____ _____    ______ ____
ROOT
ATOM      2  O   UNL     1       8.640 -12.232  32.170  0.00  0.00    -0.267 OA
ATOM      3  O   UNL     1       4.567  -8.937  34.673  0.00  0.00    -0.252 OA
ATOM      5  N   UNL     1       6.817  -8.498  34.989  0.00  0.00    -0.284 N 
ATOM      6  N   UNL     1       8.313  -9.958  32.573  0.00  0.00    -0.311 N 
ATOM      7  N   UNL     1       5.755 -10.229  36.189  0.00  0.00    -0.269 N 
ATOM      8  C   UNL     1       9.282  -8.769  34.621  0.00  0.00    +0.027 C 
ATOM      9  C   UNL     1       7.937  -7.505  33.000  0.00  0.00    +0.054 C 
ATOM     10  C   UNL     1       9.273  -7.527  33.738  0.00  0.00    +0.018 C 
ATOM     11  C   UNL     1       8.118  -8.739  35.633  0.00  0.00    +0.114 C 
ATOM     12  C   UNL     1       9.226 -10.011  33.722  0.00  0.00    +0.130 C 
ATOM     13  C   UNL     1       6.795  -7.391  34.025  0.00  0.00    +0.119 C 
ATOM     14  C   UNL     1       7.749  -8.750  32.156  0.00  0.00    +0.027 A 
ATOM     15  C   UNL     1       7.014  -8.703  31.032  0.00  0.00    +0.022 A 
ATOM     16  C   UNL     1       8.128 -11.157  31.855  0.00  0.00    +0.259 A 
ATOM     17  C   UNL     1       5.627  -9.216  35.240  0.00  0.00    +0.306 C 
ATOM     18  C   UNL     1       7.268 -11.079  30.623  0.00  0.00    +0.047 A 
ATOM     19  C   UNL     1       6.769  -9.888  30.260  0.00  0.00    +0.015 A 
ATOM     33  H   UNL     1       6.435 -10.105  36.932  0.00  0.00    +0.156 HD
ENDROOT
BRANCH   7  21
ATOM      1  F   UNL     1       4.511 -14.465  34.296  0.00  0.00    -0.205 F 
ATOM     21  C   UNL     1       5.023 -11.440  36.253  0.00  0.00    +0.037 A 
ATOM     26  C   UNL     1       5.129 -12.375  35.223  0.00  0.00    +0.061 A 
ATOM     27  C   UNL     1       4.195 -11.699  37.345  0.00  0.00    +0.023 A 
ATOM     29  C   UNL     1       4.408 -13.567  35.285  0.00  0.00    +0.125 A 
ATOM     30  C   UNL     1       3.473 -12.891  37.407  0.00  0.00    +0.005 A 
ATOM     31  C   UNL     1       3.580 -13.825  36.377  0.00  0.00    +0.038 A 
ENDBRANCH   7  21
BRANCH  18  20
ATOM     20  C   UNL     1       6.964 -12.282  29.828  0.00  0.00    -0.012 A 
ATOM     22  C   UNL     1       7.817 -12.668  28.794  0.00  0.00    +0.012 A 
ATOM     23  C   UNL     1       5.823 -13.034  30.108  0.00  0.00    +0.012 A 
ATOM     24  C   UNL     1       7.529 -13.806  28.040  0.00  0.00    +0.046 A 
ATOM     25  C   UNL     1       5.535 -14.170  29.354  0.00  0.00    +0.046 A 
ATOM     28  C   UNL     1       6.388 -14.558  28.321  0.00  0.00    +0.120 A 
BRANCH  28   4
ATOM      4  O   UNL     1       6.106 -15.667  27.584  0.00  0.00    -0.495 OA
ATOM     32  C   UNL     1       6.063 -15.512  26.167  0.00  0.00    +0.277 C 
ENDBRANCH  28   4
ENDBRANCH  18  20
TORSDOF 3
ENDMDL
MODEL 10
REMARK VINA RESULT:      -6.4     14.682     17.726
REMARK  Name = 26742282
REMARK  4 active torsions:
REMARK  status: ('A' for Active; 'I' for Inactive)
REMARK    1  A    between atoms: O_4  and  C_28
REMARK    2  A    between atoms: O_4  and  C_32
REMARK    3  A    between atoms: N_7  and  C_21
REMARK    4  A    between atoms: C_18  and  C_20
REMARK                            x       y       z     vdW  Elec       q    Type
REMARK                         _______ _______ _______ _____ _____    ______ ____
ROOT
ATOM      2  O   UNL     1      -5.890  10.466   4.128  0.00  0.00    -0.267 OA
ATOM      3  O   UNL     1      -1.139   9.112   1.079  0.00  0.00    -0.252 OA
ATOM      5  N   UNL     1      -1.122  10.851   2.607  0.00  0.00    -0.284 N 
ATOM      6  N   UNL     1      -3.601  10.302   4.544  0.00  0.00    -0.311 N 
ATOM      7  N   UNL     1      -2.068  11.147   0.466  0.00  0.00    -0.269 N 
ATOM      8  C   UNL     1      -2.033  12.319   4.422  0.00  0.00    +0.027 C 
ATOM      9  C   UNL     1      -1.129  10.104   4.981  0.00  0.00    +0.054 C 
ATOM     10  C   UNL     1      -1.192  11.559   5.440  0.00  0.00    +0.018 C 
ATOM     11  C   UNL     1      -1.408  12.236   3.014  0.00  0.00    +0.114 C 
ATOM     12  C   UNL     1      -3.460  11.761   4.449  0.00  0.00    +0.130 C 
ATOM     13  C   UNL     1      -0.429  10.037   3.612  0.00  0.00    +0.119 C 
ATOM     14  C   UNL     1      -2.514   9.494   4.881  0.00  0.00    +0.027 A 
ATOM     15  C   UNL     1      -2.690   8.177   5.081  0.00  0.00    +0.022 A 
ATOM     16  C   UNL     1      -4.901   9.779   4.388  0.00  0.00    +0.259 A 
ATOM     17  C   UNL     1      -1.433  10.279   1.353  0.00  0.00    +0.306 C 
ATOM     18  C   UNL     1      -5.059   8.296   4.579  0.00  0.00    +0.047 A 
ATOM     19  C   UNL     1      -3.982   7.573   4.922  0.00  0.00    +0.015 A 
ATOM     33  H   UNL     1      -1.852  12.136   0.528  0.00  0.00    +0.156 HD
ENDROOT
BRANCH   7  21
ATOM      1  F   UNL     1      -3.199  10.699  -4.181  0.00  0.00    -0.205 F 
ATOM     21  C   UNL     1      -2.996  10.806  -0.550  0.00  0.00    +0.037 A 
ATOM     26  C   UNL     1      -2.634  10.922  -1.892  0.00  0.00    +0.061 A 
ATOM     27  C   UNL     1      -4.271  10.355  -0.208  0.00  0.00    +0.023 A 
ATOM     29  C   UNL     1      -3.547  10.588  -2.892  0.00  0.00    +0.125 A 
ATOM     30  C   UNL     1      -5.184  10.021  -1.209  0.00  0.00    +0.005 A 
ATOM     31  C   UNL     1      -4.821  10.137  -2.550  0.00  0.00    +0.038 A 
ENDBRANCH   7  21
BRANCH  18  20
ATOM     20  C   UNL     1      -6.363   7.636   4.387  0.00  0.00    -0.012 A 
ATOM     22  C   UNL     1      -7.288   8.167   3.489  0.00  0.00    +0.012 A 
ATOM     23  C   UNL     1      -6.671   6.481   5.105  0.00  0.00    +0.012 A 
ATOM     24  C   UNL     1      -8.522   7.543   3.308  0.00  0.00    +0.046 A 
ATOM     25  C   UNL     1      -7.905   5.857   4.925  0.00  0.00    +0.046 A 
ATOM     28  C   UNL     1      -8.831   6.388   4.026  0.00  0.00    +0.120 A 
BRANCH  28   4
ATOM      4  O   UNL     1     -10.035   5.779   3.852  0.00  0.00    -0.495 OA
ATOM     32  C   UNL     1     -10.187   4.957   2.696  0.00  0.00    +0.277 C 
ENDBRANCH  28   4
ENDBRANCH  18  20
TORSDOF 3
ENDMDL
