MODEL 1
REMARK VINA RESULT:      -7.0      0.000      0.000
REMARK  Name = 11883016
REMARK  13 active torsions:
REMARK  status: ('A' for Active; 'I' for Inactive)
REMARK    1  A    between atoms: O_2  and  C_15
REMARK    2  A    between atoms: O_3  and  C_20
REMARK    3  A    between atoms: O_6  and  C_34
REMARK    4  A    between atoms: N_8  and  C_27
REMARK    5  A    between atoms: C_10  and  C_18
REMARK    6  A    between atoms: C_12  and  C_20
REMARK    7  A    between atoms: C_12  and  C_21
REMARK    8  A    between atoms: C_13  and  C_23
REMARK    9  A    between atoms: C_23  and  C_24
REMARK   10  A    between atoms: C_26  and  C_28
REMARK   11  A    between atoms: C_28  and  C_31
REMARK   12  A    between atoms: C_28  and  C_32
REMARK   13  A    between atoms: C_28  and  C_33
REMARK                            x       y       z     vdW  Elec       q    Type
REMARK                         _______ _______ _______ _____ _____    ______ ____
ROOT
ATOM      1  S   UNL     1      10.282   8.166  -0.943  0.00  0.00    -0.057 S 
ATOM      5  O   UNL     1       7.792   8.584   2.950  0.00  0.00    -0.275 OA
ATOM      7  N   UNL     1      10.069   7.396   1.517  0.00  0.00    -0.229 NA
ATOM      9  N   UNL     1       8.413   8.954   0.718  0.00  0.00    -0.264 N 
ATOM     10  C   UNL     1      12.956   4.925   0.858  0.00  0.00    -0.019 C 
ATOM     11  C   UNL     1      13.631   5.881  -0.221  0.00  0.00    +0.011 C 
ATOM     12  C   UNL     1      14.889   5.317  -0.989  0.00  0.00    +0.021 C 
ATOM     13  C   UNL     1      12.021   5.823   1.794  0.00  0.00    +0.054 C 
ATOM     14  C   UNL     1      14.057   4.283   1.740  0.00  0.00    +0.010 C 
ATOM     15  C   UNL     1      15.865   4.671   0.034  0.00  0.00    +0.123 C 
ATOM     16  C   UNL     1      12.565   6.528  -1.154  0.00  0.00    +0.049 C 
ATOM     17  C   UNL     1      15.192   3.652   0.946  0.00  0.00    +0.032 C 
ATOM     18  C   UNL     1      12.111   3.797   0.218  0.00  0.00    +0.012 C 
ATOM     19  C   UNL     1      11.166   6.754   0.974  0.00  0.00    +0.058 A 
ATOM     21  C   UNL     1      15.641   6.499  -1.664  0.00  0.00    +0.016 C 
ATOM     22  C   UNL     1      11.439   7.071  -0.342  0.00  0.00    +0.015 A 
ATOM     25  C   UNL     1       9.521   8.158   0.596  0.00  0.00    +0.165 A 
ATOM     26  C   UNL     1       7.613   9.129   1.863  0.00  0.00    +0.224 C 
ATOM     40  H   UNL     1       8.168   9.460  -0.128  0.00  0.00    +0.157 HD
ENDROOT
BRANCH  26  28
ATOM     28  C   UNL     1       6.427  10.106   1.655  0.00  0.00    +0.039 C 
ATOM     31  C   UNL     1       5.493   9.579   0.553  0.00  0.00    +0.020 C 
ATOM     32  C   UNL     1       6.947  11.503   1.286  0.00  0.00    +0.020 C 
ATOM     33  C   UNL     1       5.620  10.218   2.963  0.00  0.00    +0.020 C 
ENDBRANCH  26  28
BRANCH  15   2
ATOM      2  O   UNL     1      16.952   4.037  -0.640  0.00  0.00    -0.391 OA
ATOM     37  H   UNL     1      17.774   4.474  -0.362  0.00  0.00    +0.210 HD
ENDBRANCH  15   2
BRANCH  12  20
ATOM     20  C   UNL     1      14.554   4.331  -2.130  0.00  0.00    +0.165 C 
BRANCH  20   3
ATOM      3  O   UNL     1      15.468   4.560  -3.179  0.00  0.00    -0.394 OA
ATOM     38  H   UNL     1      15.873   5.433  -3.041  0.00  0.00    +0.209 HD
ENDBRANCH  20   3
ENDBRANCH  12  20
BRANCH  13  23
ATOM     23  C   UNL     1      11.179   5.030   2.803  0.00  0.00    +0.106 C 
BRANCH  23  24
ATOM      4  O   UNL     1      12.080   6.418   4.553  0.00  0.00    -0.275 OA
ATOM      8  N   UNL     1      10.070   5.254   4.899  0.00  0.00    -0.285 N 
ATOM     24  C   UNL     1      11.189   5.662   4.179  0.00  0.00    +0.218 C 
ATOM     39  H   UNL     1       9.424   4.611   4.446  0.00  0.00    +0.155 HD
BRANCH   8  27
ATOM     27  C   UNL     1       9.711   5.619   6.218  0.00  0.00    +0.037 A 
ATOM     29  C   UNL     1      10.006   4.758   7.263  0.00  0.00    +0.068 A 
ATOM     30  C   UNL     1       9.075   6.830   6.436  0.00  0.00    +0.023 A 
ATOM     34  C   UNL     1       9.652   5.119   8.563  0.00  0.00    +0.119 A 
ATOM     35  C   UNL     1       8.722   7.189   7.737  0.00  0.00    +0.005 A 
ATOM     36  C   UNL     1       9.011   6.335   8.800  0.00  0.00    +0.045 A 
BRANCH  34   6
ATOM      6  O   UNL     1       9.934   4.284   9.601  0.00  0.00    -0.507 OA
ATOM     41  H   UNL     1      10.893   4.124   9.625  0.00  0.00    +0.292 HD
ENDBRANCH  34   6
ENDBRANCH   8  27
ENDBRANCH  23  24
ENDBRANCH  13  23
TORSDOF 8
ENDMDL
MODEL 2
REMARK VINA RESULT:      -6.9     14.285     18.144
REMARK  Name = 11883016
REMARK  13 active torsions:
REMARK  status: ('A' for Active; 'I' for Inactive)
REMARK    1  A    between atoms: O_2  and  C_15
REMARK    2  A    between atoms: O_3  and  C_20
REMARK    3  A    between atoms: O_6  and  C_34
REMARK    4  A    between atoms: N_8  and  C_27
REMARK    5  A    between atoms: C_10  and  C_18
REMARK    6  A    between atoms: C_12  and  C_20
REMARK    7  A    between atoms: C_12  and  C_21
REMARK    8  A    between atoms: C_13  and  C_23
REMARK    9  A    between atoms: C_23  and  C_24
REMARK   10  A    between atoms: C_26  and  C_28
REMARK   11  A    between atoms: C_28  and  C_31
REMARK   12  A    between atoms: C_28  and  C_32
REMARK   13  A    between atoms: C_28  and  C_33
REMARK                            x       y       z     vdW  Elec       q    Type
REMARK                         _______ _______ _______ _____ _____    ______ ____
ROOT
ATOM      1  S   UNL     1      20.813  -4.676   1.295  0.00  0.00    -0.057 S 
ATOM      5  O   UNL     1      18.097  -5.704  -2.325  0.00  0.00    -0.275 OA
ATOM      7  N   UNL     1      19.672  -6.598  -0.007  0.00  0.00    -0.229 NA
ATOM      9  N   UNL     1      19.316  -4.363  -0.834  0.00  0.00    -0.264 N 
ATOM     10  C   UNL     1      21.546  -9.081   2.272  0.00  0.00    -0.019 C 
ATOM     11  C   UNL     1      21.542  -8.074   3.505  0.00  0.00    +0.011 C 
ATOM     12  C   UNL     1      22.329  -8.521   4.797  0.00  0.00    +0.021 C 
ATOM     13  C   UNL     1      20.368  -8.652   1.281  0.00  0.00    +0.054 C 
ATOM     14  C   UNL     1      21.260 -10.519   2.778  0.00  0.00    +0.010 C 
ATOM     15  C   UNL     1      21.962  -9.993   5.137  0.00  0.00    +0.123 C 
ATOM     16  C   UNL     1      21.856  -6.618   3.051  0.00  0.00    +0.049 C 
ATOM     17  C   UNL     1      22.128 -10.941   3.955  0.00  0.00    +0.032 C 
ATOM     18  C   UNL     1      22.890  -9.083   1.502  0.00  0.00    +0.012 C 
ATOM     19  C   UNL     1      20.378  -7.165   1.038  0.00  0.00    +0.058 A 
ATOM     21  C   UNL     1      21.874  -7.642   5.996  0.00  0.00    +0.016 C 
ATOM     22  C   UNL     1      21.037  -6.269   1.855  0.00  0.00    +0.015 A 
ATOM     25  C   UNL     1      19.836  -5.293   0.025  0.00  0.00    +0.165 A 
ATOM     26  C   UNL     1      18.488  -4.601  -1.948  0.00  0.00    +0.224 C 
ATOM     40  H   UNL     1      19.574  -3.405  -0.617  0.00  0.00    +0.157 HD
ENDROOT
BRANCH  26  28
ATOM     28  C   UNL     1      18.078  -3.315  -2.710  0.00  0.00    +0.039 C 
ATOM     31  C   UNL     1      18.695  -2.079  -2.035  0.00  0.00    +0.020 C 
ATOM     32  C   UNL     1      16.548  -3.187  -2.754  0.00  0.00    +0.020 C 
ATOM     33  C   UNL     1      18.601  -3.389  -4.158  0.00  0.00    +0.020 C 
ENDBRANCH  26  28
BRANCH  15   2
ATOM      2  O   UNL     1      22.754 -10.470   6.224  0.00  0.00    -0.391 OA
ATOM     37  H   UNL     1      23.688 -10.332   5.999  0.00  0.00    +0.210 HD
ENDBRANCH  15   2
BRANCH  12  20
ATOM     20  C   UNL     1      23.861  -8.341   4.708  0.00  0.00    +0.165 C 
BRANCH  20   3
ATOM      3  O   UNL     1      24.345  -8.116   6.013  0.00  0.00    -0.394 OA
ATOM     38  H   UNL     1      25.312  -8.211   5.996  0.00  0.00    +0.209 HD
ENDBRANCH  20   3
ENDBRANCH  12  20
BRANCH  13  23
ATOM     23  C   UNL     1      20.326  -9.436  -0.038  0.00  0.00    +0.106 C 
BRANCH  23  24
ATOM      4  O   UNL     1      18.321  -9.923  -1.280  0.00  0.00    -0.275 OA
ATOM      8  N   UNL     1      18.663 -10.909   0.823  0.00  0.00    -0.285 N 
ATOM     24  C   UNL     1      18.985 -10.103  -0.265  0.00  0.00    +0.218 C 
ATOM     39  H   UNL     1      19.322 -10.944   1.598  0.00  0.00    +0.155 HD
BRANCH   8  27
ATOM     27  C   UNL     1      17.502 -11.698   1.000  0.00  0.00    +0.037 A 
ATOM     29  C   UNL     1      17.278 -12.773   0.154  0.00  0.00    +0.068 A 
ATOM     30  C   UNL     1      16.615 -11.380   2.015  0.00  0.00    +0.023 A 
ATOM     34  C   UNL     1      16.134 -13.550   0.329  0.00  0.00    +0.119 A 
ATOM     35  C   UNL     1      15.471 -12.159   2.188  0.00  0.00    +0.005 A 
ATOM     36  C   UNL     1      15.230 -13.244   1.346  0.00  0.00    +0.045 A 
BRANCH  34   6
ATOM      6  O   UNL     1      15.899 -14.609  -0.494  0.00  0.00    -0.507 OA
ATOM     41  H   UNL     1      16.299 -15.406  -0.104  0.00  0.00    +0.292 HD
ENDBRANCH  34   6
ENDBRANCH   8  27
ENDBRANCH  23  24
ENDBRANCH  13  23
TORSDOF 8
ENDMDL
MODEL 3
REMARK VINA RESULT:      -6.8     15.704     20.175
REMARK  Name = 11883016
REMARK  13 active torsions:
REMARK  status: ('A' for Active; 'I' for Inactive)
REMARK    1  A    between atoms: O_2  and  C_15
REMARK    2  A    between atoms: O_3  and  C_20
REMARK    3  A    between atoms: O_6  and  C_34
REMARK    4  A    between atoms: N_8  and  C_27
REMARK    5  A    between atoms: C_10  and  C_18
REMARK    6  A    between atoms: C_12  and  C_20
REMARK    7  A    between atoms: C_12  and  C_21
REMARK    8  A    between atoms: C_13  and  C_23
REMARK    9  A    between atoms: C_23  and  C_24
REMARK   10  A    between atoms: C_26  and  C_28
REMARK   11  A    between atoms: C_28  and  C_31
REMARK   12  A    between atoms: C_28  and  C_32
REMARK   13  A    between atoms: C_28  and  C_33
REMARK                            x       y       z     vdW  Elec       q    Type
REMARK                         _______ _______ _______ _____ _____    ______ ____
ROOT
ATOM      1  S   UNL     1      12.951  12.725  21.257  0.00  0.00    -0.057 S 
ATOM      5  O   UNL     1      14.919  11.377  25.237  0.00  0.00    -0.275 OA
ATOM      7  N   UNL     1      14.295  10.842  22.414  0.00  0.00    -0.229 NA
ATOM      9  N   UNL     1      13.730  12.759  23.760  0.00  0.00    -0.264 N 
ATOM     10  C   UNL     1      13.882   8.750  19.200  0.00  0.00    -0.019 C 
ATOM     11  C   UNL     1      13.862  10.042  18.269  0.00  0.00    +0.011 C 
ATOM     12  C   UNL     1      13.581   9.813  16.733  0.00  0.00    +0.021 C 
ATOM     13  C   UNL     1      14.600   9.145  20.572  0.00  0.00    +0.054 C 
ATOM     14  C   UNL     1      14.713   7.634  18.517  0.00  0.00    +0.010 C 
ATOM     15  C   UNL     1      14.458   8.636  16.222  0.00  0.00    +0.123 C 
ATOM     16  C   UNL     1      13.011  11.184  18.899  0.00  0.00    +0.049 C 
ATOM     17  C   UNL     1      14.324   7.375  17.068  0.00  0.00    +0.032 C 
ATOM     18  C   UNL     1      12.465   8.203  19.499  0.00  0.00    +0.012 C 
ATOM     19  C   UNL     1      14.068  10.450  21.107  0.00  0.00    +0.058 A 
ATOM     21  C   UNL     1      14.007  11.084  15.945  0.00  0.00    +0.016 C 
ATOM     22  C   UNL     1      13.374  11.358  20.334  0.00  0.00    +0.015 A 
ATOM     25  C   UNL     1      13.744  12.021  22.607  0.00  0.00    +0.165 A 
ATOM     26  C   UNL     1      14.304  12.415  24.999  0.00  0.00    +0.224 C 
ATOM     40  H   UNL     1      13.244  13.647  23.680  0.00  0.00    +0.157 HD
ENDROOT
BRANCH  26  28
ATOM     28  C   UNL     1      14.100  13.484  26.103  0.00  0.00    +0.039 C 
ATOM     31  C   UNL     1      12.611  13.848  26.220  0.00  0.00    +0.020 C 
ATOM     32  C   UNL     1      14.930  14.738  25.788  0.00  0.00    +0.020 C 
ATOM     33  C   UNL     1      14.570  12.918  27.457  0.00  0.00    +0.020 C 
ENDBRANCH  26  28
BRANCH  15   2
ATOM      2  O   UNL     1      14.135   8.318  14.869  0.00  0.00    -0.391 OA
ATOM     37  H   UNL     1      14.939   7.989  14.436  0.00  0.00    +0.210 HD
ENDBRANCH  15   2
BRANCH  12  20
ATOM     20  C   UNL     1      12.094   9.585  16.381  0.00  0.00    +0.165 C 
BRANCH  20   3
ATOM      3  O   UNL     1      11.894  10.020  15.055  0.00  0.00    -0.394 OA
ATOM     38  H   UNL     1      11.938  10.991  15.046  0.00  0.00    +0.209 HD
ENDBRANCH  20   3
ENDBRANCH  12  20
BRANCH  13  23
ATOM     23  C   UNL     1      14.573   8.046  21.644  0.00  0.00    +0.106 C 
BRANCH  23  24
ATOM      4  O   UNL     1      15.747   5.943  21.637  0.00  0.00    -0.275 OA
ATOM      8  N   UNL     1      16.948   7.957  21.498  0.00  0.00    -0.285 N 
ATOM     24  C   UNL     1      15.806   7.168  21.595  0.00  0.00    +0.218 C 
ATOM     39  H   UNL     1      16.827   8.967  21.484  0.00  0.00    +0.155 HD
BRANCH   8  27
ATOM     27  C   UNL     1      18.293   7.523  21.427  0.00  0.00    +0.037 A 
ATOM     29  C   UNL     1      18.610   6.425  20.643  0.00  0.00    +0.068 A 
ATOM     30  C   UNL     1      19.264   8.205  22.141  0.00  0.00    +0.023 A 
ATOM     34  C   UNL     1      19.936   5.998  20.572  0.00  0.00    +0.119 A 
ATOM     35  C   UNL     1      20.590   7.777  22.070  0.00  0.00    +0.005 A 
ATOM     36  C   UNL     1      20.926   6.674  21.286  0.00  0.00    +0.045 A 
BRANCH  34   6
ATOM      6  O   UNL     1      20.264   4.921  19.807  0.00  0.00    -0.507 OA
ATOM     41  H   UNL     1      20.797   4.306  20.341  0.00  0.00    +0.292 HD
ENDBRANCH  34   6
ENDBRANCH   8  27
ENDBRANCH  23  24
ENDBRANCH  13  23
TORSDOF 8
ENDMDL
MODEL 4
REMARK VINA RESULT:      -6.8     27.894     31.308
REMARK  Name = 11883016
REMARK  13 active torsions:
REMARK  status: ('A' for Active; 'I' for Inactive)
REMARK    1  A    between atoms: O_2  and  C_15
REMARK    2  A    between atoms: O_3  and  C_20
REMARK    3  A    between atoms: O_6  and  C_34
REMARK    4  A    between atoms: N_8  and  C_27
REMARK    5  A    between atoms: C_10  and  C_18
REMARK    6  A    between atoms: C_12  and  C_20
REMARK    7  A    between atoms: C_12  and  C_21
REMARK    8  A    between atoms: C_13  and  C_23
REMARK    9  A    between atoms: C_23  and  C_24
REMARK   10  A    between atoms: C_26  and  C_28
REMARK   11  A    between atoms: C_28  and  C_31
REMARK   12  A    between atoms: C_28  and  C_32
REMARK   13  A    between atoms: C_28  and  C_33
REMARK                            x       y       z     vdW  Elec       q    Type
REMARK                         _______ _______ _______ _____ _____    ______ ____
ROOT
ATOM      1  S   UNL     1     -10.085 -12.677  20.180  0.00  0.00    -0.057 S 
ATOM      5  O   UNL     1     -13.412  -9.603  19.168  0.00  0.00    -0.275 OA
ATOM      7  N   UNL     1     -10.680 -10.608  18.746  0.00  0.00    -0.229 NA
ATOM      9  N   UNL     1     -12.396 -11.438  20.220  0.00  0.00    -0.264 N 
ATOM     10  C   UNL     1      -7.012 -10.538  17.558  0.00  0.00    -0.019 C 
ATOM     11  C   UNL     1      -6.860 -12.118  17.681  0.00  0.00    +0.011 C 
ATOM     12  C   UNL     1      -5.427 -12.722  17.416  0.00  0.00    +0.021 C 
ATOM     13  C   UNL     1      -8.569 -10.202  17.426  0.00  0.00    +0.054 C 
ATOM     14  C   UNL     1      -6.297 -10.049  16.272  0.00  0.00    +0.010 C 
ATOM     15  C   UNL     1      -4.838 -12.094  16.122  0.00  0.00    +0.123 C 
ATOM     16  C   UNL     1      -7.538 -12.655  18.976  0.00  0.00    +0.049 C 
ATOM     17  C   UNL     1      -4.874 -10.570  16.123  0.00  0.00    +0.032 C 
ATOM     18  C   UNL     1      -6.423  -9.781  18.773  0.00  0.00    +0.012 C 
ATOM     19  C   UNL     1      -9.376 -10.958  18.451  0.00  0.00    +0.058 A 
ATOM     21  C   UNL     1      -5.560 -14.252  17.170  0.00  0.00    +0.016 C 
ATOM     22  C   UNL     1      -8.900 -12.067  19.121  0.00  0.00    +0.015 A 
ATOM     25  C   UNL     1     -11.151 -11.439  19.650  0.00  0.00    +0.165 A 
ATOM     26  C   UNL     1     -13.450 -10.541  19.962  0.00  0.00    +0.224 C 
ATOM     40  H   UNL     1     -12.543 -12.179  20.900  0.00  0.00    +0.157 HD
ENDROOT
BRANCH  26  28
ATOM     28  C   UNL     1     -14.731 -10.826  20.788  0.00  0.00    +0.039 C 
ATOM     31  C   UNL     1     -15.712 -11.680  19.968  0.00  0.00    +0.020 C 
ATOM     32  C   UNL     1     -15.398  -9.508  21.207  0.00  0.00    +0.020 C 
ATOM     33  C   UNL     1     -14.356 -11.607  22.062  0.00  0.00    +0.020 C 
ENDBRANCH  26  28
BRANCH  15   2
ATOM      2  O   UNL     1      -3.491 -12.522  15.923  0.00  0.00    -0.391 OA
ATOM     37  H   UNL     1      -2.937 -11.731  15.819  0.00  0.00    +0.210 HD
ENDBRANCH  15   2
BRANCH  12  20
ATOM     20  C   UNL     1      -4.442 -12.576  18.597  0.00  0.00    +0.165 C 
BRANCH  20   3
ATOM      3  O   UNL     1      -3.869 -13.841  18.839  0.00  0.00    -0.394 OA
ATOM     38  H   UNL     1      -4.413 -14.509  18.390  0.00  0.00    +0.209 HD
ENDBRANCH  20   3
ENDBRANCH  12  20
BRANCH  13  23
ATOM     23  C   UNL     1      -8.902  -8.704  17.444  0.00  0.00    +0.106 C 
BRANCH  23  24
ATOM      4  O   UNL     1      -9.502  -8.679  15.112  0.00  0.00    -0.275 OA
ATOM      8  N   UNL     1     -10.758  -7.435  16.658  0.00  0.00    -0.285 N 
ATOM     24  C   UNL     1      -9.737  -8.289  16.251  0.00  0.00    +0.218 C 
ATOM     39  H   UNL     1     -10.813  -7.198  17.646  0.00  0.00    +0.155 HD
BRANCH   8  27
ATOM     27  C   UNL     1     -11.751  -6.830  15.851  0.00  0.00    +0.037 A 
ATOM     29  C   UNL     1     -11.385  -5.832  14.962  0.00  0.00    +0.068 A 
ATOM     30  C   UNL     1     -13.066  -7.248  15.966  0.00  0.00    +0.023 A 
ATOM     34  C   UNL     1     -12.363  -5.236  14.166  0.00  0.00    +0.119 A 
ATOM     35  C   UNL     1     -14.043  -6.651  15.170  0.00  0.00    +0.005 A 
ATOM     36  C   UNL     1     -13.692  -5.646  14.270  0.00  0.00    +0.045 A 
BRANCH  34   6
ATOM      6  O   UNL     1     -12.020  -4.254  13.288  0.00  0.00    -0.507 OA
ATOM     41  H   UNL     1     -11.742  -4.663  12.451  0.00  0.00    +0.292 HD
ENDBRANCH  34   6
ENDBRANCH   8  27
ENDBRANCH  23  24
ENDBRANCH  13  23
TORSDOF 8
ENDMDL
MODEL 5
REMARK VINA RESULT:      -6.8     24.509     29.119
REMARK  Name = 11883016
REMARK  13 active torsions:
REMARK  status: ('A' for Active; 'I' for Inactive)
REMARK    1  A    between atoms: O_2  and  C_15
REMARK    2  A    between atoms: O_3  and  C_20
REMARK    3  A    between atoms: O_6  and  C_34
REMARK    4  A    between atoms: N_8  and  C_27
REMARK    5  A    between atoms: C_10  and  C_18
REMARK    6  A    between atoms: C_12  and  C_20
REMARK    7  A    between atoms: C_12  and  C_21
REMARK    8  A    between atoms: C_13  and  C_23
REMARK    9  A    between atoms: C_23  and  C_24
REMARK   10  A    between atoms: C_26  and  C_28
REMARK   11  A    between atoms: C_28  and  C_31
REMARK   12  A    between atoms: C_28  and  C_32
REMARK   13  A    between atoms: C_28  and  C_33
REMARK                            x       y       z     vdW  Elec       q    Type
REMARK                         _______ _______ _______ _____ _____    ______ ____
ROOT
ATOM      1  S   UNL     1      -9.546  -9.800  12.747  0.00  0.00    -0.057 S 
ATOM      5  O   UNL     1      -4.920  -9.744  12.381  0.00  0.00    -0.275 OA
ATOM      7  N   UNL     1      -7.324  -9.920  14.066  0.00  0.00    -0.229 NA
ATOM      9  N   UNL     1      -7.157  -9.682  11.673  0.00  0.00    -0.264 N 
ATOM     10  C   UNL     1      -9.400  -9.845  17.316  0.00  0.00    -0.019 C 
ATOM     11  C   UNL     1     -10.630 -10.596  16.639  0.00  0.00    +0.011 C 
ATOM     12  C   UNL     1     -11.933 -10.766  17.513  0.00  0.00    +0.021 C 
ATOM     13  C   UNL     1      -8.092 -10.170  16.456  0.00  0.00    +0.054 C 
ATOM     14  C   UNL     1      -9.188 -10.390  18.751  0.00  0.00    +0.010 C 
ATOM     15  C   UNL     1     -11.538 -11.273  18.928  0.00  0.00    +0.123 C 
ATOM     16  C   UNL     1     -10.903 -10.061  15.203  0.00  0.00    +0.049 C 
ATOM     17  C   UNL     1     -10.457 -10.425  19.590  0.00  0.00    +0.032 C 
ATOM     18  C   UNL     1      -9.599  -8.311  17.390  0.00  0.00    +0.012 C 
ATOM     19  C   UNL     1      -8.357 -10.003  14.981  0.00  0.00    +0.058 A 
ATOM     21  C   UNL     1     -12.837 -11.853  16.867  0.00  0.00    +0.016 C 
ATOM     22  C   UNL     1      -9.626  -9.976  14.439  0.00  0.00    +0.015 A 
ATOM     25  C   UNL     1      -7.833  -9.801  12.858  0.00  0.00    +0.165 A 
ATOM     26  C   UNL     1      -5.761  -9.658  11.488  0.00  0.00    +0.224 C 
ATOM     40  H   UNL     1      -7.757  -9.604  10.858  0.00  0.00    +0.157 HD
ENDROOT
BRANCH  26  28
ATOM     28  C   UNL     1      -5.329  -9.508  10.006  0.00  0.00    +0.039 C 
ATOM     31  C   UNL     1      -5.903  -8.210   9.415  0.00  0.00    +0.020 C 
ATOM     32  C   UNL     1      -5.804 -10.719   9.189  0.00  0.00    +0.020 C 
ATOM     33  C   UNL     1      -3.792  -9.441   9.926  0.00  0.00    +0.020 C 
ENDBRANCH  26  28
BRANCH  15   2
ATOM      2  O   UNL     1     -12.679 -11.314  19.784  0.00  0.00    -0.391 OA
ATOM     37  H   UNL     1     -13.440 -11.606  19.258  0.00  0.00    +0.210 HD
ENDBRANCH  15   2
BRANCH  12  20
ATOM     20  C   UNL     1     -12.810  -9.497  17.607  0.00  0.00    +0.165 C 
BRANCH  20   3
ATOM      3  O   UNL     1     -14.153  -9.911  17.722  0.00  0.00    -0.394 OA
ATOM     38  H   UNL     1     -14.715  -9.118  17.709  0.00  0.00    +0.209 HD
ENDBRANCH  20   3
ENDBRANCH  12  20
BRANCH  13  23
ATOM     23  C   UNL     1      -6.836  -9.402  16.890  0.00  0.00    +0.106 C 
BRANCH  23  24
ATOM      4  O   UNL     1      -5.351 -11.023  17.874  0.00  0.00    -0.275 OA
ATOM      8  N   UNL     1      -4.868 -10.124  15.759  0.00  0.00    -0.285 N 
ATOM     24  C   UNL     1      -5.608 -10.287  16.927  0.00  0.00    +0.218 C 
ATOM     39  H   UNL     1      -5.214  -9.462  15.067  0.00  0.00    +0.155 HD
BRANCH   8  27
ATOM     27  C   UNL     1      -3.659 -10.768  15.405  0.00  0.00    +0.037 A 
ATOM     29  C   UNL     1      -2.456 -10.242  15.847  0.00  0.00    +0.068 A 
ATOM     30  C   UNL     1      -3.704 -11.912  14.626  0.00  0.00    +0.023 A 
ATOM     34  C   UNL     1      -1.265 -10.877  15.499  0.00  0.00    +0.119 A 
ATOM     35  C   UNL     1      -2.512 -12.547  14.278  0.00  0.00    +0.005 A 
ATOM     36  C   UNL     1      -1.293 -12.031  14.714  0.00  0.00    +0.045 A 
BRANCH  34   6
ATOM      6  O   UNL     1      -0.075 -10.373  15.925  0.00  0.00    -0.507 OA
ATOM     41  H   UNL     1       0.487 -10.194  15.151  0.00  0.00    +0.292 HD
ENDBRANCH  34   6
ENDBRANCH   8  27
ENDBRANCH  23  24
ENDBRANCH  13  23
TORSDOF 8
ENDMDL
MODEL 6
REMARK VINA RESULT:      -6.7     14.698     18.699
REMARK  Name = 11883016
REMARK  13 active torsions:
REMARK  status: ('A' for Active; 'I' for Inactive)
REMARK    1  A    between atoms: O_2  and  C_15
REMARK    2  A    between atoms: O_3  and  C_20
REMARK    3  A    between atoms: O_6  and  C_34
REMARK    4  A    between atoms: N_8  and  C_27
REMARK    5  A    between atoms: C_10  and  C_18
REMARK    6  A    between atoms: C_12  and  C_20
REMARK    7  A    between atoms: C_12  and  C_21
REMARK    8  A    between atoms: C_13  and  C_23
REMARK    9  A    between atoms: C_23  and  C_24
REMARK   10  A    between atoms: C_26  and  C_28
REMARK   11  A    between atoms: C_28  and  C_31
REMARK   12  A    between atoms: C_28  and  C_32
REMARK   13  A    between atoms: C_28  and  C_33
REMARK                            x       y       z     vdW  Elec       q    Type
REMARK                         _______ _______ _______ _____ _____    ______ ____
ROOT
ATOM      1  S   UNL     1      12.974  13.621  19.903  0.00  0.00    -0.057 S 
ATOM      5  O   UNL     1      12.843  11.015  23.740  0.00  0.00    -0.275 OA
ATOM      7  N   UNL     1      13.307  11.235  20.844  0.00  0.00    -0.229 NA
ATOM      9  N   UNL     1      12.669  12.945  22.418  0.00  0.00    -0.264 N 
ATOM     10  C   UNL     1      13.786  10.011  17.218  0.00  0.00    -0.019 C 
ATOM     11  C   UNL     1      14.416  11.396  16.751  0.00  0.00    +0.011 C 
ATOM     12  C   UNL     1      14.734  11.556  15.214  0.00  0.00    +0.021 C 
ATOM     13  C   UNL     1      13.957   9.902  18.804  0.00  0.00    +0.054 C 
ATOM     14  C   UNL     1      14.563   8.842  16.561  0.00  0.00    +0.010 C 
ATOM     15  C   UNL     1      15.471  10.283  14.709  0.00  0.00    +0.123 C 
ATOM     16  C   UNL     1      13.648  12.605  17.362  0.00  0.00    +0.049 C 
ATOM     17  C   UNL     1      14.743   8.990  15.057  0.00  0.00    +0.032 C 
ATOM     18  C   UNL     1      12.287   9.878  16.853  0.00  0.00    +0.012 C 
ATOM     19  C   UNL     1      13.546  11.182  19.483  0.00  0.00    +0.058 A 
ATOM     21  C   UNL     1      15.700  12.758  15.019  0.00  0.00    +0.016 C 
ATOM     22  C   UNL     1      13.432  12.388  18.821  0.00  0.00    +0.015 A 
ATOM     25  C   UNL     1      12.989  12.468  21.174  0.00  0.00    +0.165 A 
ATOM     26  C   UNL     1      12.611  12.216  23.621  0.00  0.00    +0.224 C 
ATOM     40  H   UNL     1      12.458  13.938  22.440  0.00  0.00    +0.157 HD
ENDROOT
BRANCH  26  28
ATOM     28  C   UNL     1      12.213  13.070  24.852  0.00  0.00    +0.039 C 
ATOM     31  C   UNL     1      13.252  12.902  25.972  0.00  0.00    +0.020 C 
ATOM     32  C   UNL     1      10.819  12.663  25.354  0.00  0.00    +0.020 C 
ATOM     33  C   UNL     1      12.168  14.557  24.450  0.00  0.00    +0.020 C 
ENDBRANCH  26  28
BRANCH  15   2
ATOM      2  O   UNL     1      15.658  10.339  13.295  0.00  0.00    -0.391 OA
ATOM     37  H   UNL     1      14.832  10.653  12.894  0.00  0.00    +0.210 HD
ENDBRANCH  15   2
BRANCH  12  20
ATOM     20  C   UNL     1      13.502  11.865  14.334  0.00  0.00    +0.165 C 
BRANCH  20   3
ATOM      3  O   UNL     1      13.959  12.507  13.165  0.00  0.00    -0.394 OA
ATOM     38  H   UNL     1      13.251  12.463  12.500  0.00  0.00    +0.209 HD
ENDBRANCH  20   3
ENDBRANCH  12  20
BRANCH  13  23
ATOM     23  C   UNL     1      13.269   8.684  19.438  0.00  0.00    +0.106 C 
BRANCH  23  24
ATOM      4  O   UNL     1      13.930   6.584  20.413  0.00  0.00    -0.275 OA
ATOM      8  N   UNL     1      15.558   8.189  19.876  0.00  0.00    -0.285 N 
ATOM     24  C   UNL     1      14.266   7.678  19.972  0.00  0.00    +0.218 C 
ATOM     39  H   UNL     1      15.669   9.125  19.491  0.00  0.00    +0.155 HD
BRANCH   8  27
ATOM     27  C   UNL     1      16.765   7.563  20.264  0.00  0.00    +0.037 A 
ATOM     29  C   UNL     1      17.202   6.444  19.573  0.00  0.00    +0.068 A 
ATOM     30  C   UNL     1      17.486   8.081  21.327  0.00  0.00    +0.023 A 
ATOM     34  C   UNL     1      18.392   5.827  19.956  0.00  0.00    +0.119 A 
ATOM     35  C   UNL     1      18.676   7.464  21.710  0.00  0.00    +0.005 A 
ATOM     36  C   UNL     1      19.130   6.337  21.025  0.00  0.00    +0.045 A 
BRANCH  34   6
ATOM      6  O   UNL     1      18.835   4.728  19.287  0.00  0.00    -0.507 OA
ATOM     41  H   UNL     1      19.653   4.956  18.812  0.00  0.00    +0.292 HD
ENDBRANCH  34   6
ENDBRANCH   8  27
ENDBRANCH  23  24
ENDBRANCH  13  23
TORSDOF 8
ENDMDL
MODEL 7
REMARK VINA RESULT:      -6.6      4.534      8.820
REMARK  Name = 11883016
REMARK  13 active torsions:
REMARK  status: ('A' for Active; 'I' for Inactive)
REMARK    1  A    between atoms: O_2  and  C_15
REMARK    2  A    between atoms: O_3  and  C_20
REMARK    3  A    between atoms: O_6  and  C_34
REMARK    4  A    between atoms: N_8  and  C_27
REMARK    5  A    between atoms: C_10  and  C_18
REMARK    6  A    between atoms: C_12  and  C_20
REMARK    7  A    between atoms: C_12  and  C_21
REMARK    8  A    between atoms: C_13  and  C_23
REMARK    9  A    between atoms: C_23  and  C_24
REMARK   10  A    between atoms: C_26  and  C_28
REMARK   11  A    between atoms: C_28  and  C_31
REMARK   12  A    between atoms: C_28  and  C_32
REMARK   13  A    between atoms: C_28  and  C_33
REMARK                            x       y       z     vdW  Elec       q    Type
REMARK                         _______ _______ _______ _____ _____    ______ ____
ROOT
ATOM      1  S   UNL     1      12.660   5.839   0.942  0.00  0.00    -0.057 S 
ATOM      5  O   UNL     1      17.153   6.973   0.688  0.00  0.00    -0.275 OA
ATOM      7  N   UNL     1      14.662   6.831   2.246  0.00  0.00    -0.229 NA
ATOM      9  N   UNL     1      15.072   6.163  -0.033  0.00  0.00    -0.264 N 
ATOM     10  C   UNL     1      12.231   7.601   5.138  0.00  0.00    -0.019 C 
ATOM     11  C   UNL     1      11.306   6.351   4.798  0.00  0.00    +0.011 C 
ATOM     12  C   UNL     1       9.979   6.193   5.635  0.00  0.00    +0.021 C 
ATOM     13  C   UNL     1      13.677   7.329   4.514  0.00  0.00    +0.054 C 
ATOM     14  C   UNL     1      12.380   7.730   6.676  0.00  0.00    +0.010 C 
ATOM     15  C   UNL     1      10.298   6.396   7.143  0.00  0.00    +0.123 C 
ATOM     16  C   UNL     1      11.101   6.197   3.261  0.00  0.00    +0.049 C 
ATOM     17  C   UNL     1      11.057   7.686   7.429  0.00  0.00    +0.032 C 
ATOM     18  C   UNL     1      11.672   8.933   4.579  0.00  0.00    +0.012 C 
ATOM     19  C   UNL     1      13.570   6.837   3.093  0.00  0.00    +0.058 A 
ATOM     21  C   UNL     1       9.442   4.743   5.466  0.00  0.00    +0.016 C 
ATOM     22  C   UNL     1      12.409   6.316   2.558  0.00  0.00    +0.015 A 
ATOM     25  C   UNL     1      14.298   6.335   1.083  0.00  0.00    +0.165 A 
ATOM     26  C   UNL     1      16.436   6.482  -0.181  0.00  0.00    +0.224 C 
ATOM     40  H   UNL     1      14.579   5.758  -0.823  0.00  0.00    +0.157 HD
ENDROOT
BRANCH  26  28
ATOM     28  C   UNL     1      17.006   6.157  -1.586  0.00  0.00    +0.039 C 
ATOM     31  C   UNL     1      16.421   7.121  -2.631  0.00  0.00    +0.020 C 
ATOM     32  C   UNL     1      16.686   4.703  -1.967  0.00  0.00    +0.020 C 
ATOM     33  C   UNL     1      18.537   6.329  -1.569  0.00  0.00    +0.020 C 
ENDBRANCH  26  28
BRANCH  15   2
ATOM      2  O   UNL     1       9.098   6.387   7.917  0.00  0.00    -0.391 OA
ATOM     37  H   UNL     1       8.729   5.490   7.890  0.00  0.00    +0.210 HD
ENDBRANCH  15   2
BRANCH  12  20
ATOM     20  C   UNL     1       8.825   7.118   5.187  0.00  0.00    +0.165 C 
BRANCH  20   3
ATOM      3  O   UNL     1       7.611   6.456   5.464  0.00  0.00    -0.394 OA
ATOM     38  H   UNL     1       7.341   5.975   4.663  0.00  0.00    +0.209 HD
ENDBRANCH  20   3
ENDBRANCH  12  20
BRANCH  13  23
ATOM     23  C   UNL     1      14.653   8.508   4.627  0.00  0.00    +0.106 C 
BRANCH  23  24
ATOM      4  O   UNL     1      15.796   7.703   6.588  0.00  0.00    -0.275 OA
ATOM      8  N   UNL     1      17.032   8.442   4.733  0.00  0.00    -0.285 N 
ATOM     24  C   UNL     1      15.874   8.162   5.453  0.00  0.00    +0.218 C 
ATOM     39  H   UNL     1      16.926   8.831   3.798  0.00  0.00    +0.155 HD
BRANCH   8  27
ATOM     27  C   UNL     1      18.372   8.260   5.147  0.00  0.00    +0.037 A 
ATOM     29  C   UNL     1      18.743   8.643   6.427  0.00  0.00    +0.068 A 
ATOM     30  C   UNL     1      19.284   7.703   4.267  0.00  0.00    +0.023 A 
ATOM     34  C   UNL     1      20.064   8.463   6.835  0.00  0.00    +0.119 A 
ATOM     35  C   UNL     1      20.606   7.525   4.676  0.00  0.00    +0.005 A 
ATOM     36  C   UNL     1      20.996   7.904   5.960  0.00  0.00    +0.045 A 
BRANCH  34   6
ATOM      6  O   UNL     1      20.445   8.834   8.088  0.00  0.00    -0.507 OA
ATOM     41  H   UNL     1      19.650   9.004   8.622  0.00  0.00    +0.292 HD
ENDBRANCH  34   6
ENDBRANCH   8  27
ENDBRANCH  23  24
ENDBRANCH  13  23
TORSDOF 8
ENDMDL
MODEL 8
REMARK VINA RESULT:      -6.5      5.336      8.088
REMARK  Name = 11883016
REMARK  13 active torsions:
REMARK  status: ('A' for Active; 'I' for Inactive)
REMARK    1  A    between atoms: O_2  and  C_15
REMARK    2  A    between atoms: O_3  and  C_20
REMARK    3  A    between atoms: O_6  and  C_34
REMARK    4  A    between atoms: N_8  and  C_27
REMARK    5  A    between atoms: C_10  and  C_18
REMARK    6  A    between atoms: C_12  and  C_20
REMARK    7  A    between atoms: C_12  and  C_21
REMARK    8  A    between atoms: C_13  and  C_23
REMARK    9  A    between atoms: C_23  and  C_24
REMARK   10  A    between atoms: C_26  and  C_28
REMARK   11  A    between atoms: C_28  and  C_31
REMARK   12  A    between atoms: C_28  and  C_32
REMARK   13  A    between atoms: C_28  and  C_33
REMARK                            x       y       z     vdW  Elec       q    Type
REMARK                         _______ _______ _______ _____ _____    ______ ____
ROOT
ATOM      1  S   UNL     1      14.748   7.975   6.548  0.00  0.00    -0.057 S 
ATOM      5  O   UNL     1      11.970   6.295   3.231  0.00  0.00    -0.275 OA
ATOM      7  N   UNL     1      14.590   7.361   4.040  0.00  0.00    -0.229 NA
ATOM      9  N   UNL     1      12.617   6.996   5.375  0.00  0.00    -0.264 N 
ATOM     10  C   UNL     1      18.106   8.877   3.580  0.00  0.00    -0.019 C 
ATOM     11  C   UNL     1      18.553   8.487   5.057  0.00  0.00    +0.011 C 
ATOM     12  C   UNL     1      19.971   8.988   5.532  0.00  0.00    +0.021 C 
ATOM     13  C   UNL     1      16.887   7.928   3.167  0.00  0.00    +0.054 C 
ATOM     14  C   UNL     1      19.279   8.619   2.600  0.00  0.00    +0.010 C 
ATOM     15  C   UNL     1      21.016   8.694   4.419  0.00  0.00    +0.123 C 
ATOM     16  C   UNL     1      17.415   8.757   6.086  0.00  0.00    +0.049 C 
ATOM     17  C   UNL     1      20.602   9.223   3.051  0.00  0.00    +0.032 C 
ATOM     18  C   UNL     1      17.669  10.357   3.455  0.00  0.00    +0.012 C 
ATOM     19  C   UNL     1      15.861   7.852   4.268  0.00  0.00    +0.058 A 
ATOM     21  C   UNL     1      20.397   8.182   6.792  0.00  0.00    +0.016 C 
ATOM     22  C   UNL     1      16.125   8.212   5.575  0.00  0.00    +0.015 A 
ATOM     25  C   UNL     1      13.913   7.387   5.168  0.00  0.00    +0.165 A 
ATOM     26  C   UNL     1      11.720   6.479   4.421  0.00  0.00    +0.224 C 
ATOM     40  H   UNL     1      12.298   7.103   6.334  0.00  0.00    +0.157 HD
ENDROOT
BRANCH  26  28
ATOM     28  C   UNL     1      10.321   6.138   4.996  0.00  0.00    +0.039 C 
ATOM     31  C   UNL     1      10.092   4.618   4.966  0.00  0.00    +0.020 C 
ATOM     32  C   UNL     1       9.226   6.856   4.192  0.00  0.00    +0.020 C 
ATOM     33  C   UNL     1      10.240   6.613   6.459  0.00  0.00    +0.020 C 
ENDBRANCH  26  28
BRANCH  15   2
ATOM      2  O   UNL     1      22.285   9.251   4.762  0.00  0.00    -0.391 OA
ATOM     37  H   UNL     1      22.166   9.812   5.546  0.00  0.00    +0.210 HD
ENDBRANCH  15   2
BRANCH  12  20
ATOM     20  C   UNL     1      20.017  10.473   5.954  0.00  0.00    +0.165 C 
BRANCH  20   3
ATOM      3  O   UNL     1      20.934  10.591   7.018  0.00  0.00    -0.394 OA
ATOM     38  H   UNL     1      20.659  11.340   7.572  0.00  0.00    +0.209 HD
ENDBRANCH  20   3
ENDBRANCH  12  20
BRANCH  13  23
ATOM     23  C   UNL     1      16.239   8.272   1.819  0.00  0.00    +0.106 C 
BRANCH  23  24
ATOM      4  O   UNL     1      16.817   6.567   0.219  0.00  0.00    -0.275 OA
ATOM      8  N   UNL     1      14.689   6.568   1.212  0.00  0.00    -0.285 N 
ATOM     24  C   UNL     1      15.978   7.039   0.979  0.00  0.00    +0.218 C 
ATOM     39  H   UNL     1      14.109   7.082   1.871  0.00  0.00    +0.155 HD
BRANCH   8  27
ATOM     27  C   UNL     1      14.062   5.443   0.627  0.00  0.00    +0.037 A 
ATOM     29  C   UNL     1      13.555   5.542  -0.658  0.00  0.00    +0.068 A 
ATOM     30  C   UNL     1      13.970   4.266   1.352  0.00  0.00    +0.023 A 
ATOM     34  C   UNL     1      12.937   4.432  -1.235  0.00  0.00    +0.119 A 
ATOM     35  C   UNL     1      13.352   3.157   0.774  0.00  0.00    +0.005 A 
ATOM     36  C   UNL     1      12.836   3.239  -0.518  0.00  0.00    +0.045 A 
BRANCH  34   6
ATOM      6  O   UNL     1      12.433   4.513  -2.497  0.00  0.00    -0.507 OA
ATOM     41  H   UNL     1      12.602   5.405  -2.847  0.00  0.00    +0.292 HD
ENDBRANCH  34   6
ENDBRANCH   8  27
ENDBRANCH  23  24
ENDBRANCH  13  23
TORSDOF 8
ENDMDL
MODEL 9
REMARK VINA RESULT:      -6.4      3.622      6.043
REMARK  Name = 11883016
REMARK  13 active torsions:
REMARK  status: ('A' for Active; 'I' for Inactive)
REMARK    1  A    between atoms: O_2  and  C_15
REMARK    2  A    between atoms: O_3  and  C_20
REMARK    3  A    between atoms: O_6  and  C_34
REMARK    4  A    between atoms: N_8  and  C_27
REMARK    5  A    between atoms: C_10  and  C_18
REMARK    6  A    between atoms: C_12  and  C_20
REMARK    7  A    between atoms: C_12  and  C_21
REMARK    8  A    between atoms: C_13  and  C_23
REMARK    9  A    between atoms: C_23  and  C_24
REMARK   10  A    between atoms: C_26  and  C_28
REMARK   11  A    between atoms: C_28  and  C_31
REMARK   12  A    between atoms: C_28  and  C_32
REMARK   13  A    between atoms: C_28  and  C_33
REMARK                            x       y       z     vdW  Elec       q    Type
REMARK                         _______ _______ _______ _____ _____    ______ ____
ROOT
ATOM      1  S   UNL     1      16.294   7.028   0.488  0.00  0.00    -0.057 S 
ATOM      5  O   UNL     1      16.137   7.984   5.027  0.00  0.00    -0.275 OA
ATOM      7  N   UNL     1      14.782   7.057   2.587  0.00  0.00    -0.229 NA
ATOM      9  N   UNL     1      17.062   7.779   2.880  0.00  0.00    -0.264 N 
ATOM     10  C   UNL     1      11.816   6.127   0.304  0.00  0.00    -0.019 C 
ATOM     11  C   UNL     1      12.744   5.313  -0.701  0.00  0.00    +0.011 C 
ATOM     12  C   UNL     1      12.061   4.746  -2.006  0.00  0.00    +0.021 C 
ATOM     13  C   UNL     1      12.572   6.215   1.710  0.00  0.00    +0.054 C 
ATOM     14  C   UNL     1      10.484   5.361   0.513  0.00  0.00    +0.010 C 
ATOM     15  C   UNL     1      10.723   4.054  -1.624  0.00  0.00    +0.123 C 
ATOM     16  C   UNL     1      14.085   6.058  -0.968  0.00  0.00    +0.049 C 
ATOM     17  C   UNL     1       9.808   4.937  -0.783  0.00  0.00    +0.032 C 
ATOM     18  C   UNL     1      11.495   7.556  -0.197  0.00  0.00    +0.012 C 
ATOM     19  C   UNL     1      14.013   6.613   1.527  0.00  0.00    +0.058 A 
ATOM     21  C   UNL     1      12.983   3.660  -2.629  0.00  0.00    +0.016 C 
ATOM     22  C   UNL     1      14.678   6.517   0.320  0.00  0.00    +0.015 A 
ATOM     25  C   UNL     1      15.998   7.313   2.155  0.00  0.00    +0.165 A 
ATOM     26  C   UNL     1      17.087   8.089   4.253  0.00  0.00    +0.224 C 
ATOM     40  H   UNL     1      17.912   7.904   2.338  0.00  0.00    +0.157 HD
ENDROOT
BRANCH  26  28
ATOM     28  C   UNL     1      18.463   8.597   4.755  0.00  0.00    +0.039 C 
ATOM     31  C   UNL     1      19.577   7.634   4.316  0.00  0.00    +0.020 C 
ATOM     32  C   UNL     1      18.453   8.736   6.285  0.00  0.00    +0.020 C 
ATOM     33  C   UNL     1      18.750   9.982   4.145  0.00  0.00    +0.020 C 
ENDBRANCH  26  28
BRANCH  15   2
ATOM      2  O   UNL     1      10.017   3.644  -2.795  0.00  0.00    -0.391 OA
ATOM     37  H   UNL     1      10.668   3.337  -3.447  0.00  0.00    +0.210 HD
ENDBRANCH  15   2
BRANCH  12  20
ATOM     20  C   UNL     1      11.842   5.794  -3.120  0.00  0.00    +0.165 C 
BRANCH  20   3
ATOM      3  O   UNL     1      11.855   5.116  -4.356  0.00  0.00    -0.394 OA
ATOM     38  H   UNL     1      10.969   5.190  -4.750  0.00  0.00    +0.209 HD
ENDBRANCH  20   3
ENDBRANCH  12  20
BRANCH  13  23
ATOM     23  C   UNL     1      11.874   7.097   2.755  0.00  0.00    +0.106 C 
BRANCH  23  24
ATOM      4  O   UNL     1      11.169   5.063   3.836  0.00  0.00    -0.275 OA
ATOM      8  N   UNL     1      10.915   7.123   4.935  0.00  0.00    -0.285 N 
ATOM     24  C   UNL     1      11.283   6.283   3.887  0.00  0.00    +0.218 C 
ATOM     39  H   UNL     1      11.068   8.122   4.818  0.00  0.00    +0.155 HD
BRANCH   8  27
ATOM     27  C   UNL     1      10.329   6.757   6.170  0.00  0.00    +0.037 A 
ATOM     29  C   UNL     1      10.618   5.516   6.715  0.00  0.00    +0.068 A 
ATOM     30  C   UNL     1       9.482   7.647   6.808  0.00  0.00    +0.023 A 
ATOM     34  C   UNL     1      10.040   5.155   7.932  0.00  0.00    +0.119 A 
ATOM     35  C   UNL     1       8.905   7.285   8.025  0.00  0.00    +0.005 A 
ATOM     36  C   UNL     1       9.184   6.041   8.588  0.00  0.00    +0.045 A 
BRANCH  34   6
ATOM      6  O   UNL     1      10.313   3.940   8.481  0.00  0.00    -0.507 OA
ATOM     41  H   UNL     1      10.526   4.060   9.422  0.00  0.00    +0.292 HD
ENDBRANCH  34   6
ENDBRANCH   8  27
ENDBRANCH  23  24
ENDBRANCH  13  23
TORSDOF 8
ENDMDL
MODEL 10
REMARK VINA RESULT:      -6.3     25.001     28.683
REMARK  Name = 11883016
REMARK  13 active torsions:
REMARK  status: ('A' for Active; 'I' for Inactive)
REMARK    1  A    between atoms: O_2  and  C_15
REMARK    2  A    between atoms: O_3  and  C_20
REMARK    3  A    between atoms: O_6  and  C_34
REMARK    4  A    between atoms: N_8  and  C_27
REMARK    5  A    between atoms: C_10  and  C_18
REMARK    6  A    between atoms: C_12  and  C_20
REMARK    7  A    between atoms: C_12  and  C_21
REMARK    8  A    between atoms: C_13  and  C_23
REMARK    9  A    between atoms: C_23  and  C_24
REMARK   10  A    between atoms: C_26  and  C_28
REMARK   11  A    between atoms: C_28  and  C_31
REMARK   12  A    between atoms: C_28  and  C_32
REMARK   13  A    between atoms: C_28  and  C_33
REMARK                            x       y       z     vdW  Elec       q    Type
REMARK                         _______ _______ _______ _____ _____    ______ ____
ROOT
ATOM      1  S   UNL     1      -5.731 -10.927  12.596  0.00  0.00    -0.057 S 
ATOM      5  O   UNL     1      -8.965  -8.504  10.315  0.00  0.00    -0.275 OA
ATOM      7  N   UNL     1      -7.943  -9.610  12.841  0.00  0.00    -0.229 NA
ATOM      9  N   UNL     1      -7.013  -9.768  10.624  0.00  0.00    -0.264 N 
ATOM     10  C   UNL     1      -8.044 -10.720  16.533  0.00  0.00    -0.019 C 
ATOM     11  C   UNL     1      -6.456 -10.759  16.646  0.00  0.00    +0.011 C 
ATOM     12  C   UNL     1      -5.848 -11.297  17.999  0.00  0.00    +0.021 C 
ATOM     13  C   UNL     1      -8.427  -9.762  15.312  0.00  0.00    +0.054 C 
ATOM     14  C   UNL     1      -8.640 -10.118  17.832  0.00  0.00    +0.010 C 
ATOM     15  C   UNL     1      -6.585 -10.629  19.193  0.00  0.00    +0.123 C 
ATOM     16  C   UNL     1      -5.811 -11.385  15.375  0.00  0.00    +0.049 C 
ATOM     17  C   UNL     1      -8.103 -10.752  19.107  0.00  0.00    +0.032 C 
ATOM     18  C   UNL     1      -8.665 -12.120  16.303  0.00  0.00    +0.012 C 
ATOM     19  C   UNL     1      -7.594 -10.074  14.096  0.00  0.00    +0.058 A 
ATOM     21  C   UNL     1      -4.353 -10.876  18.084  0.00  0.00    +0.016 C 
ATOM     22  C   UNL     1      -6.414 -10.788  14.150  0.00  0.00    +0.015 A 
ATOM     25  C   UNL     1      -7.039 -10.006  11.972  0.00  0.00    +0.165 A 
ATOM     26  C   UNL     1      -7.955  -9.044   9.869  0.00  0.00    +0.224 C 
ATOM     40  H   UNL     1      -6.213 -10.172  10.146  0.00  0.00    +0.157 HD
ENDROOT
BRANCH  26  28
ATOM     28  C   UNL     1      -7.621  -8.969   8.357  0.00  0.00    +0.039 C 
ATOM     31  C   UNL     1      -7.906  -7.556   7.821  0.00  0.00    +0.020 C 
ATOM     32  C   UNL     1      -8.441 -10.008   7.578  0.00  0.00    +0.020 C 
ATOM     33  C   UNL     1      -6.125  -9.275   8.147  0.00  0.00    +0.020 C 
ENDBRANCH  26  28
BRANCH  15   2
ATOM      2  O   UNL     1      -6.148 -11.188  20.431  0.00  0.00    -0.391 OA
ATOM     37  H   UNL     1      -5.620 -10.518  20.895  0.00  0.00    +0.210 HD
ENDBRANCH  15   2
BRANCH  12  20
ATOM     20  C   UNL     1      -5.855 -12.835  18.137  0.00  0.00    +0.165 C 
BRANCH  20   3
ATOM      3  O   UNL     1      -4.570 -13.236  18.556  0.00  0.00    -0.394 OA
ATOM     38  H   UNL     1      -4.669 -13.774  19.360  0.00  0.00    +0.209 HD
ENDBRANCH  20   3
ENDBRANCH  12  20
BRANCH  13  23
ATOM     23  C   UNL     1      -9.924  -9.729  14.974  0.00  0.00    +0.106 C 
BRANCH  23  24
ATOM      4  O   UNL     1     -10.077  -7.511  15.901  0.00  0.00    -0.275 OA
ATOM      8  N   UNL     1     -11.564  -8.179  14.211  0.00  0.00    -0.285 N 
ATOM     24  C   UNL     1     -10.510  -8.339  15.105  0.00  0.00    +0.218 C 
ATOM     39  H   UNL     1     -11.808  -8.971  13.619  0.00  0.00    +0.155 HD
BRANCH   8  27
ATOM     27  C   UNL     1     -12.370  -7.032  14.021  0.00  0.00    +0.037 A 
ATOM     29  C   UNL     1     -11.777  -5.848  13.611  0.00  0.00    +0.068 A 
ATOM     30  C   UNL     1     -13.733  -7.116  14.249  0.00  0.00    +0.023 A 
ATOM     34  C   UNL     1     -12.572  -4.717  13.424  0.00  0.00    +0.119 A 
ATOM     35  C   UNL     1     -14.527  -5.985  14.062  0.00  0.00    +0.005 A 
ATOM     36  C   UNL     1     -13.947  -4.786  13.649  0.00  0.00    +0.045 A 
BRANCH  34   6
ATOM      6  O   UNL     1     -12.006  -3.547  13.021  0.00  0.00    -0.507 OA
ATOM     41  H   UNL     1     -11.740  -3.039  13.807  0.00  0.00    +0.292 HD
ENDBRANCH  34   6
ENDBRANCH   8  27
ENDBRANCH  23  24
ENDBRANCH  13  23
TORSDOF 8
ENDMDL
