MODEL 1
REMARK VINA RESULT:      -7.1      0.000      0.000
REMARK  Name = 11867224
REMARK  5 active torsions:
REMARK  status: ('A' for Active; 'I' for Inactive)
REMARK    1  A    between atoms: S_1  and  N_9
REMARK    2  A    between atoms: S_1  and  C_25
REMARK    3  A    between atoms: N_9  and  C_20
REMARK    4  A    between atoms: C_19  and  C_22
REMARK    5  A    between atoms: C_22  and  C_23
REMARK                            x       y       z     vdW  Elec       q    Type
REMARK                         _______ _______ _______ _____ _____    ______ ____
ROOT
ATOM      3  O   UNL     1      -4.630 -14.121  15.614  0.00  0.00    -0.266 OA
ATOM      4  O   UNL     1      -9.401 -11.707  15.967  0.00  0.00    -0.275 OA
ATOM      7  N   UNL     1      -7.927 -10.848  17.544  0.00  0.00    -0.300 N 
ATOM      8  N   UNL     1      -5.139 -12.328  17.034  0.00  0.00    -0.310 N 
ATOM     10  C   UNL     1      -6.770 -12.520  18.996  0.00  0.00    +0.027 C 
ATOM     11  C   UNL     1      -5.687 -10.365  18.517  0.00  0.00    +0.054 C 
ATOM     12  C   UNL     1      -5.944 -11.397  19.612  0.00  0.00    +0.018 C 
ATOM     13  C   UNL     1      -8.105 -11.976  18.461  0.00  0.00    +0.113 C 
ATOM     14  C   UNL     1      -5.943 -13.201  17.898  0.00  0.00    +0.130 C 
ATOM     15  C   UNL     1      -7.030  -9.787  18.027  0.00  0.00    +0.117 C 
ATOM     16  C   UNL     1      -4.935 -10.978  17.351  0.00  0.00    +0.027 A 
ATOM     17  C   UNL     1      -4.101 -10.224  16.611  0.00  0.00    +0.024 A 
ATOM     18  C   UNL     1      -4.502 -12.940  15.933  0.00  0.00    +0.274 A 
ATOM     19  C   UNL     1      -8.654 -10.806  16.354  0.00  0.00    +0.220 C 
ATOM     20  C   UNL     1      -3.614 -12.050  15.143  0.00  0.00    +0.112 A 
ATOM     21  C   UNL     1      -3.419 -10.772  15.471  0.00  0.00    +0.031 A 
ENDROOT
BRANCH  20   9
ATOM      9  N   UNL     1      -2.935 -12.547  14.018  0.00  0.00    -0.211 N 
ATOM     33  H   UNL     1      -1.959 -12.222  13.964  0.00  0.00    +0.174 HD
BRANCH   9   1
ATOM      1  S   UNL     1      -3.767 -12.525  12.543  0.00  0.00    +0.072 S 
ATOM      5  O   UNL     1      -3.397 -13.685  11.756  0.00  0.00    -0.150 OA
ATOM      6  O   UNL     1      -5.164 -12.216  12.776  0.00  0.00    -0.150 OA
BRANCH   1  25
ATOM     25  C   UNL     1      -3.034 -11.111  11.774  0.00  0.00    +0.108 A 
ATOM     28  C   UNL     1      -1.760 -10.723  12.148  0.00  0.00    +0.029 A 
ATOM     29  C   UNL     1      -3.750 -10.419  10.812  0.00  0.00    +0.029 A 
ATOM     30  C   UNL     1      -1.182  -9.607  11.542  0.00  0.00    +0.002 A 
ATOM     31  C   UNL     1      -3.172  -9.304  10.206  0.00  0.00    +0.002 A 
ATOM     32  C   UNL     1      -1.888  -8.898  10.571  0.00  0.00    +0.000 A 
ENDBRANCH   1  25
ENDBRANCH   9   1
ENDBRANCH  20   9
BRANCH  19  22
ATOM     22  C   UNL     1      -8.488  -9.571  15.505  0.00  0.00    +0.138 C 
BRANCH  22  23
ATOM      2  S   UNL     1     -10.927  -8.685  14.568  0.00  0.00    -0.101 S 
ATOM     23  C   UNL     1      -9.678  -8.693  15.727  0.00  0.00    -0.001 A 
ATOM     24  C   UNL     1      -9.919  -7.854  16.780  0.00  0.00    +0.011 A 
ATOM     26  C   UNL     1     -11.167  -7.182  16.638  0.00  0.00    +0.008 A 
ATOM     27  C   UNL     1     -11.819  -7.542  15.477  0.00  0.00    +0.045 A 
ENDBRANCH  22  23
ENDBRANCH  19  22
TORSDOF 5
ENDMDL
MODEL 2
REMARK VINA RESULT:      -6.9      3.389      5.944
REMARK  Name = 11867224
REMARK  5 active torsions:
REMARK  status: ('A' for Active; 'I' for Inactive)
REMARK    1  A    between atoms: S_1  and  N_9
REMARK    2  A    between atoms: S_1  and  C_25
REMARK    3  A    between atoms: N_9  and  C_20
REMARK    4  A    between atoms: C_19  and  C_22
REMARK    5  A    between atoms: C_22  and  C_23
REMARK                            x       y       z     vdW  Elec       q    Type
REMARK                         _______ _______ _______ _____ _____    ______ ____
ROOT
ATOM      3  O   UNL     1      -4.456 -12.748   9.848  0.00  0.00    -0.266 OA
ATOM      4  O   UNL     1      -5.955 -12.886  14.991  0.00  0.00    -0.275 OA
ATOM      7  N   UNL     1      -3.645 -12.707  14.812  0.00  0.00    -0.300 N 
ATOM      8  N   UNL     1      -3.022 -12.492  11.684  0.00  0.00    -0.310 N 
ATOM     10  C   UNL     1      -2.521 -14.380  13.337  0.00  0.00    +0.027 C 
ATOM     11  C   UNL     1      -1.502 -12.166  13.668  0.00  0.00    +0.054 C 
ATOM     12  C   UNL     1      -1.196 -13.656  13.545  0.00  0.00    +0.018 C 
ATOM     13  C   UNL     1      -3.464 -14.131  14.526  0.00  0.00    +0.113 C 
ATOM     14  C   UNL     1      -3.134 -13.920  12.009  0.00  0.00    +0.130 C 
ATOM     15  C   UNL     1      -2.403 -11.923  14.894  0.00  0.00    +0.117 C 
ATOM     16  C   UNL     1      -2.184 -11.642  12.417  0.00  0.00    +0.027 A 
ATOM     17  C   UNL     1      -2.005 -10.365  12.033  0.00  0.00    +0.024 A 
ATOM     18  C   UNL     1      -3.719 -12.047  10.540  0.00  0.00    +0.274 A 
ATOM     19  C   UNL     1      -4.925 -12.212  15.065  0.00  0.00    +0.220 C 
ATOM     20  C   UNL     1      -3.498 -10.623  10.181  0.00  0.00    +0.112 A 
ATOM     21  C   UNL     1      -2.682  -9.835  10.881  0.00  0.00    +0.031 A 
ENDROOT
BRANCH  20   9
ATOM      9  N   UNL     1      -4.148 -10.066   9.066  0.00  0.00    -0.211 N 
ATOM     33  H   UNL     1      -3.504  -9.565   8.438  0.00  0.00    +0.174 HD
BRANCH   9   1
ATOM      1  S   UNL     1      -5.618  -9.273   9.347  0.00  0.00    +0.072 S 
ATOM      5  O   UNL     1      -6.440 -10.068  10.237  0.00  0.00    -0.150 OA
ATOM      6  O   UNL     1      -5.369  -7.873   9.636  0.00  0.00    -0.150 OA
BRANCH   1  25
ATOM     25  C   UNL     1      -6.348  -9.358   7.738  0.00  0.00    +0.108 A 
ATOM     28  C   UNL     1      -7.504  -8.642   7.482  0.00  0.00    +0.029 A 
ATOM     29  C   UNL     1      -5.750 -10.141   6.766  0.00  0.00    +0.029 A 
ATOM     30  C   UNL     1      -8.080  -8.709   6.214  0.00  0.00    +0.002 A 
ATOM     31  C   UNL     1      -6.327 -10.209   5.498  0.00  0.00    +0.002 A 
ATOM     32  C   UNL     1      -7.492  -9.493   5.222  0.00  0.00    +0.000 A 
ENDBRANCH   1  25
ENDBRANCH   9   1
ENDBRANCH  20   9
BRANCH  19  22
ATOM     22  C   UNL     1      -5.024 -10.755  15.443  0.00  0.00    +0.138 C 
BRANCH  22  23
ATOM      2  S   UNL     1      -7.043 -10.022  17.174  0.00  0.00    -0.101 S 
ATOM     23  C   UNL     1      -5.501 -10.676  16.858  0.00  0.00    -0.001 A 
ATOM     24  C   UNL     1      -4.845 -11.072  17.991  0.00  0.00    +0.011 A 
ATOM     26  C   UNL     1      -5.627 -10.836  19.158  0.00  0.00    +0.008 A 
ATOM     27  C   UNL     1      -6.847 -10.268  18.857  0.00  0.00    +0.045 A 
ENDBRANCH  22  23
ENDBRANCH  19  22
TORSDOF 5
ENDMDL
MODEL 3
REMARK VINA RESULT:      -6.6     24.725     28.475
REMARK  Name = 11867224
REMARK  5 active torsions:
REMARK  status: ('A' for Active; 'I' for Inactive)
REMARK    1  A    between atoms: S_1  and  N_9
REMARK    2  A    between atoms: S_1  and  C_25
REMARK    3  A    between atoms: N_9  and  C_20
REMARK    4  A    between atoms: C_19  and  C_22
REMARK    5  A    between atoms: C_22  and  C_23
REMARK                            x       y       z     vdW  Elec       q    Type
REMARK                         _______ _______ _______ _____ _____    ______ ____
ROOT
ATOM      3  O   UNL     1      14.026   6.552   7.332  0.00  0.00    -0.266 OA
ATOM      4  O   UNL     1      10.467   4.411   3.945  0.00  0.00    -0.275 OA
ATOM      7  N   UNL     1       9.489   6.100   5.207  0.00  0.00    -0.300 N 
ATOM      8  N   UNL     1      11.829   7.305   7.021  0.00  0.00    -0.310 N 
ATOM     10  C   UNL     1       9.774   5.931   7.682  0.00  0.00    +0.027 C 
ATOM     11  C   UNL     1       9.481   8.137   6.636  0.00  0.00    +0.054 C 
ATOM     12  C   UNL     1       9.094   7.285   7.842  0.00  0.00    +0.018 C 
ATOM     13  C   UNL     1       9.316   5.247   6.384  0.00  0.00    +0.113 C 
ATOM     14  C   UNL     1      11.295   6.132   7.723  0.00  0.00    +0.130 C 
ATOM     15  C   UNL     1       8.969   7.469   5.345  0.00  0.00    +0.117 C 
ATOM     16  C   UNL     1      10.985   8.323   6.558  0.00  0.00    +0.027 A 
ATOM     17  C   UNL     1      11.501   9.445   6.021  0.00  0.00    +0.024 A 
ATOM     18  C   UNL     1      13.234   7.403   6.930  0.00  0.00    +0.274 A 
ATOM     19  C   UNL     1      10.036   5.563   4.041  0.00  0.00    +0.220 C 
ATOM     20  C   UNL     1      13.741   8.653   6.308  0.00  0.00    +0.112 A 
ATOM     21  C   UNL     1      12.922   9.618   5.889  0.00  0.00    +0.031 A 
ENDROOT
BRANCH  20   9
ATOM      9  N   UNL     1      15.123   8.857   6.156  0.00  0.00    -0.211 N 
ATOM     33  H   UNL     1      15.451   9.723   6.605  0.00  0.00    +0.174 HD
BRANCH   9   1
ATOM      1  S   UNL     1      15.781   8.566   4.622  0.00  0.00    +0.072 S 
ATOM      5  O   UNL     1      15.341   7.271   4.140  0.00  0.00    -0.150 OA
ATOM      6  O   UNL     1      15.625   9.746   3.793  0.00  0.00    -0.150 OA
BRANCH   1  25
ATOM     25  C   UNL     1      17.497   8.424   5.023  0.00  0.00    +0.108 A 
ATOM     28  C   UNL     1      18.385   8.001   4.050  0.00  0.00    +0.029 A 
ATOM     29  C   UNL     1      17.920   8.739   6.303  0.00  0.00    +0.029 A 
ATOM     30  C   UNL     1      19.740   7.889   4.366  0.00  0.00    +0.002 A 
ATOM     31  C   UNL     1      19.274   8.627   6.619  0.00  0.00    +0.002 A 
ATOM     32  C   UNL     1      20.184   8.202   5.651  0.00  0.00    +0.000 A 
ENDBRANCH   1  25
ENDBRANCH   9   1
ENDBRANCH  20   9
BRANCH  19  22
ATOM     22  C   UNL     1      10.098   6.475   2.841  0.00  0.00    +0.138 C 
BRANCH  22  23
ATOM      2  S   UNL     1      12.384   5.698   1.507  0.00  0.00    -0.101 S 
ATOM     23  C   UNL     1      10.691   5.705   1.705  0.00  0.00    -0.001 A 
ATOM     24  C   UNL     1      10.038   4.970   0.755  0.00  0.00    +0.011 A 
ATOM     26  C   UNL     1      10.948   4.378  -0.166  0.00  0.00    +0.008 A 
ATOM     27  C   UNL     1      12.258   4.693   0.126  0.00  0.00    +0.045 A 
ENDBRANCH  22  23
ENDBRANCH  19  22
TORSDOF 5
ENDMDL
MODEL 4
REMARK VINA RESULT:      -6.6     25.540     29.562
REMARK  Name = 11867224
REMARK  5 active torsions:
REMARK  status: ('A' for Active; 'I' for Inactive)
REMARK    1  A    between atoms: S_1  and  N_9
REMARK    2  A    between atoms: S_1  and  C_25
REMARK    3  A    between atoms: N_9  and  C_20
REMARK    4  A    between atoms: C_19  and  C_22
REMARK    5  A    between atoms: C_22  and  C_23
REMARK                            x       y       z     vdW  Elec       q    Type
REMARK                         _______ _______ _______ _____ _____    ______ ____
ROOT
ATOM      3  O   UNL     1      14.600   6.955   6.439  0.00  0.00    -0.266 OA
ATOM      4  O   UNL     1      10.790   3.959   4.155  0.00  0.00    -0.275 OA
ATOM      7  N   UNL     1      10.159   6.194   4.203  0.00  0.00    -0.300 N 
ATOM      8  N   UNL     1      12.636   7.776   5.461  0.00  0.00    -0.310 N 
ATOM     10  C   UNL     1      10.306   7.332   6.422  0.00  0.00    +0.027 C 
ATOM     11  C   UNL     1      10.544   8.648   4.358  0.00  0.00    +0.054 C 
ATOM     12  C   UNL     1       9.934   8.652   5.757  0.00  0.00    +0.018 C 
ATOM     13  C   UNL     1       9.758   6.146   5.611  0.00  0.00    +0.113 C 
ATOM     14  C   UNL     1      11.831   7.268   6.579  0.00  0.00    +0.130 C 
ATOM     15  C   UNL     1       9.947   7.488   3.537  0.00  0.00    +0.117 C 
ATOM     16  C   UNL     1      12.054   8.511   4.419  0.00  0.00    +0.027 A 
ATOM     17  C   UNL     1      12.823   9.067   3.465  0.00  0.00    +0.024 A 
ATOM     18  C   UNL     1      14.030   7.576   5.543  0.00  0.00    +0.274 A 
ATOM     19  C   UNL     1      10.618   5.035   3.577  0.00  0.00    +0.220 C 
ATOM     20  C   UNL     1      14.822   8.194   4.450  0.00  0.00    +0.112 A 
ATOM     21  C   UNL     1      14.252   8.905   3.476  0.00  0.00    +0.031 A 
ENDROOT
BRANCH  20   9
ATOM      9  N   UNL     1      16.220   8.052   4.421  0.00  0.00    -0.211 N 
ATOM     33  H   UNL     1      16.537   7.143   4.785  0.00  0.00    +0.174 HD
BRANCH   9   1
ATOM      1  S   UNL     1      17.140   9.377   4.938  0.00  0.00    +0.072 S 
ATOM      5  O   UNL     1      17.350  10.288   3.830  0.00  0.00    -0.150 OA
ATOM      6  O   UNL     1      16.621   9.868   6.200  0.00  0.00    -0.150 OA
BRANCH   1  25
ATOM     25  C   UNL     1      18.688   8.591   5.273  0.00  0.00    +0.108 A 
ATOM     28  C   UNL     1      19.295   7.843   4.280  0.00  0.00    +0.029 A 
ATOM     29  C   UNL     1      19.263   8.738   6.524  0.00  0.00    +0.029 A 
ATOM     30  C   UNL     1      20.516   7.223   4.544  0.00  0.00    +0.002 A 
ATOM     31  C   UNL     1      20.484   8.117   6.788  0.00  0.00    +0.002 A 
ATOM     32  C   UNL     1      21.111   7.360   5.798  0.00  0.00    +0.000 A 
ENDBRANCH   1  25
ENDBRANCH   9   1
ENDBRANCH  20   9
BRANCH  19  22
ATOM     22  C   UNL     1      10.924   5.138   2.104  0.00  0.00    +0.138 C 
BRANCH  22  23
ATOM      2  S   UNL     1      12.841   3.271   1.434  0.00  0.00    -0.101 S 
ATOM     23  C   UNL     1      12.376   4.839   1.911  0.00  0.00    -0.001 A 
ATOM     24  C   UNL     1      13.438   5.687   2.072  0.00  0.00    +0.011 A 
ATOM     26  C   UNL     1      14.674   5.035   1.794  0.00  0.00    +0.008 A 
ATOM     27  C   UNL     1      14.494   3.716   1.435  0.00  0.00    +0.045 A 
ENDBRANCH  22  23
ENDBRANCH  19  22
TORSDOF 5
ENDMDL
MODEL 5
REMARK VINA RESULT:      -6.5      1.814      2.633
REMARK  Name = 11867224
REMARK  5 active torsions:
REMARK  status: ('A' for Active; 'I' for Inactive)
REMARK    1  A    between atoms: S_1  and  N_9
REMARK    2  A    between atoms: S_1  and  C_25
REMARK    3  A    between atoms: N_9  and  C_20
REMARK    4  A    between atoms: C_19  and  C_22
REMARK    5  A    between atoms: C_22  and  C_23
REMARK                            x       y       z     vdW  Elec       q    Type
REMARK                         _______ _______ _______ _____ _____    ______ ____
ROOT
ATOM      3  O   UNL     1      -4.834 -14.220  16.638  0.00  0.00    -0.266 OA
ATOM      4  O   UNL     1      -9.896 -12.463  16.738  0.00  0.00    -0.275 OA
ATOM      7  N   UNL     1      -8.475 -10.936  17.763  0.00  0.00    -0.300 N 
ATOM      8  N   UNL     1      -5.527 -12.131  17.442  0.00  0.00    -0.310 N 
ATOM     10  C   UNL     1      -6.971 -11.850  19.536  0.00  0.00    +0.027 C 
ATOM     11  C   UNL     1      -6.282  -9.867  18.254  0.00  0.00    +0.054 C 
ATOM     12  C   UNL     1      -6.296 -10.489  19.648  0.00  0.00    +0.018 C 
ATOM     13  C   UNL     1      -8.409 -11.697  19.012  0.00  0.00    +0.113 C 
ATOM     14  C   UNL     1      -6.122 -12.752  18.632  0.00  0.00    +0.130 C 
ATOM     15  C   UNL     1      -7.729  -9.669  17.763  0.00  0.00    +0.117 C 
ATOM     16  C   UNL     1      -5.521 -10.740  17.273  0.00  0.00    +0.027 A 
ATOM     17  C   UNL     1      -4.870 -10.183  16.236  0.00  0.00    +0.024 A 
ATOM     18  C   UNL     1      -4.877 -12.995  16.535  0.00  0.00    +0.274 A 
ATOM     19  C   UNL     1      -9.278 -11.395  16.718  0.00  0.00    +0.220 C 
ATOM     20  C   UNL     1      -4.197 -12.322  15.399  0.00  0.00    +0.112 A 
ATOM     21  C   UNL     1      -4.187 -10.995  15.266  0.00  0.00    +0.031 A 
ENDROOT
BRANCH  20   9
ATOM      9  N   UNL     1      -3.524 -13.081  14.427  0.00  0.00    -0.211 N 
ATOM     33  H   UNL     1      -3.586 -14.095  14.599  0.00  0.00    +0.174 HD
BRANCH   9   1
ATOM      1  S   UNL     1      -1.992 -12.539  13.949  0.00  0.00    +0.072 S 
ATOM      5  O   UNL     1      -1.468 -11.621  14.941  0.00  0.00    -0.150 OA
ATOM      6  O   UNL     1      -1.195 -13.665  13.502  0.00  0.00    -0.150 OA
BRANCH   1  25
ATOM     25  C   UNL     1      -2.412 -11.587  12.519  0.00  0.00    +0.108 A 
ATOM     28  C   UNL     1      -1.791 -10.368  12.313  0.00  0.00    +0.029 A 
ATOM     29  C   UNL     1      -3.356 -12.080  11.634  0.00  0.00    +0.029 A 
ATOM     30  C   UNL     1      -2.123  -9.617  11.185  0.00  0.00    +0.002 A 
ATOM     31  C   UNL     1      -3.687 -11.329  10.506  0.00  0.00    +0.002 A 
ATOM     32  C   UNL     1      -3.071 -10.097  10.282  0.00  0.00    +0.000 A 
ENDBRANCH   1  25
ENDBRANCH   9   1
ENDBRANCH  20   9
BRANCH  19  22
ATOM     22  C   UNL     1      -9.369 -10.513  15.498  0.00  0.00    +0.138 C 
BRANCH  22  23
ATOM      2  S   UNL     1      -7.832  -9.965  13.274  0.00  0.00    -0.101 S 
ATOM     23  C   UNL     1      -8.397 -11.024  14.484  0.00  0.00    -0.001 A 
ATOM     24  C   UNL     1      -7.870 -12.283  14.383  0.00  0.00    +0.011 A 
ATOM     26  C   UNL     1      -6.973 -12.387  13.281  0.00  0.00    +0.008 A 
ATOM     27  C   UNL     1      -6.859 -11.198  12.592  0.00  0.00    +0.045 A 
ENDBRANCH  22  23
ENDBRANCH  19  22
TORSDOF 5
ENDMDL
MODEL 6
REMARK VINA RESULT:      -6.4     25.678     28.391
REMARK  Name = 11867224
REMARK  5 active torsions:
REMARK  status: ('A' for Active; 'I' for Inactive)
REMARK    1  A    between atoms: S_1  and  N_9
REMARK    2  A    between atoms: S_1  and  C_25
REMARK    3  A    between atoms: N_9  and  C_20
REMARK    4  A    between atoms: C_19  and  C_22
REMARK    5  A    between atoms: C_22  and  C_23
REMARK                            x       y       z     vdW  Elec       q    Type
REMARK                         _______ _______ _______ _____ _____    ______ ____
ROOT
ATOM      3  O   UNL     1      12.452   7.660   3.142  0.00  0.00    -0.266 OA
ATOM      4  O   UNL     1      11.930   6.355  -2.029  0.00  0.00    -0.275 OA
ATOM      7  N   UNL     1      12.727   4.550  -0.802  0.00  0.00    -0.300 N 
ATOM      8  N   UNL     1      12.806   5.526   2.241  0.00  0.00    -0.310 N 
ATOM     10  C   UNL     1      14.723   4.990   0.634  0.00  0.00    +0.027 C 
ATOM     11  C   UNL     1      13.131   3.225   1.266  0.00  0.00    +0.054 C 
ATOM     12  C   UNL     1      14.615   3.578   1.197  0.00  0.00    +0.018 C 
ATOM     13  C   UNL     1      14.099   5.060  -0.770  0.00  0.00    +0.113 C 
ATOM     14  C   UNL     1      14.056   5.967   1.610  0.00  0.00    +0.130 C 
ATOM     15  C   UNL     1      12.530   3.245  -0.153  0.00  0.00    +0.117 C 
ATOM     16  C   UNL     1      12.378   4.195   2.157  0.00  0.00    +0.027 A 
ATOM     17  C   UNL     1      11.293   3.784   2.839  0.00  0.00    +0.024 A 
ATOM     18  C   UNL     1      12.117   6.483   3.017  0.00  0.00    +0.274 A 
ATOM     19  C   UNL     1      11.744   5.260  -1.491  0.00  0.00    +0.220 C 
ATOM     20  C   UNL     1      10.916   5.974   3.725  0.00  0.00    +0.112 A 
ATOM     21  C   UNL     1      10.534   4.699   3.647  0.00  0.00    +0.031 A 
ENDROOT
BRANCH  20   9
ATOM      9  N   UNL     1      10.144   6.839   4.521  0.00  0.00    -0.211 N 
ATOM     33  H   UNL     1      10.145   7.809   4.174  0.00  0.00    +0.174 HD
BRANCH   9   1
ATOM      1  S   UNL     1      10.305   6.692   6.200  0.00  0.00    +0.072 S 
ATOM      5  O   UNL     1       9.245   5.850   6.720  0.00  0.00    -0.150 OA
ATOM      6  O   UNL     1      11.689   6.415   6.535  0.00  0.00    -0.150 OA
BRANCH   1  25
ATOM     25  C   UNL     1       9.959   8.350   6.710  0.00  0.00    +0.108 A 
ATOM     28  C   UNL     1       9.749   8.614   8.051  0.00  0.00    +0.029 A 
ATOM     29  C   UNL     1       9.905   9.351   5.756  0.00  0.00    +0.029 A 
ATOM     30  C   UNL     1       9.476   9.921   8.453  0.00  0.00    +0.002 A 
ATOM     31  C   UNL     1       9.632  10.659   6.158  0.00  0.00    +0.002 A 
ATOM     32  C   UNL     1       9.418  10.944   7.507  0.00  0.00    +0.000 A 
ENDBRANCH   1  25
ENDBRANCH   9   1
ENDBRANCH  20   9
BRANCH  19  22
ATOM     22  C   UNL     1      10.376   4.629  -1.560  0.00  0.00    +0.138 C 
BRANCH  22  23
ATOM      2  S   UNL     1       9.120   4.932  -3.997  0.00  0.00    -0.101 S 
ATOM     23  C   UNL     1      10.177   4.106  -2.946  0.00  0.00    -0.001 A 
ATOM     24  C   UNL     1      10.750   3.004  -3.520  0.00  0.00    +0.011 A 
ATOM     26  C   UNL     1      10.313   2.828  -4.864  0.00  0.00    +0.008 A 
ATOM     27  C   UNL     1       9.423   3.807  -5.252  0.00  0.00    +0.045 A 
ENDBRANCH  22  23
ENDBRANCH  19  22
TORSDOF 5
ENDMDL
MODEL 7
REMARK VINA RESULT:      -6.3      2.682      7.730
REMARK  Name = 11867224
REMARK  5 active torsions:
REMARK  status: ('A' for Active; 'I' for Inactive)
REMARK    1  A    between atoms: S_1  and  N_9
REMARK    2  A    between atoms: S_1  and  C_25
REMARK    3  A    between atoms: N_9  and  C_20
REMARK    4  A    between atoms: C_19  and  C_22
REMARK    5  A    between atoms: C_22  and  C_23
REMARK                            x       y       z     vdW  Elec       q    Type
REMARK                         _______ _______ _______ _____ _____    ______ ____
ROOT
ATOM      3  O   UNL     1      -6.633  -9.955  14.174  0.00  0.00    -0.266 OA
ATOM      4  O   UNL     1      -4.600 -14.682  12.678  0.00  0.00    -0.275 OA
ATOM      7  N   UNL     1      -2.901 -13.158  13.115  0.00  0.00    -0.300 N 
ATOM      8  N   UNL     1      -4.353 -10.494  14.123  0.00  0.00    -0.310 N 
ATOM     10  C   UNL     1      -3.075 -10.953  11.955  0.00  0.00    +0.027 C 
ATOM     11  C   UNL     1      -1.908 -11.106  14.114  0.00  0.00    +0.054 C 
ATOM     12  C   UNL     1      -1.859 -10.461  12.732  0.00  0.00    +0.018 C 
ATOM     13  C   UNL     1      -3.047 -12.485  11.823  0.00  0.00    +0.113 C 
ATOM     14  C   UNL     1      -4.346 -10.457  12.656  0.00  0.00    +0.130 C 
ATOM     15  C   UNL     1      -1.825 -12.639  13.972  0.00  0.00    +0.117 C 
ATOM     16  C   UNL     1      -3.179 -10.726  14.852  0.00  0.00    +0.027 A 
ATOM     17  C   UNL     1      -3.182 -10.641  16.195  0.00  0.00    +0.024 A 
ATOM     18  C   UNL     1      -5.575 -10.183  14.758  0.00  0.00    +0.274 A 
ATOM     19  C   UNL     1      -3.701 -14.262  13.411  0.00  0.00    +0.220 C 
ATOM     20  C   UNL     1      -5.519 -10.127  16.241  0.00  0.00    +0.112 A 
ATOM     21  C   UNL     1      -4.388 -10.334  16.915  0.00  0.00    +0.031 A 
ENDROOT
BRANCH  20   9
ATOM      9  N   UNL     1      -6.678  -9.837  16.982  0.00  0.00    -0.211 N 
ATOM     33  H   UNL     1      -6.812  -8.827  17.133  0.00  0.00    +0.174 HD
BRANCH   9   1
ATOM      1  S   UNL     1      -6.986 -10.800  18.340  0.00  0.00    +0.072 S 
ATOM      5  O   UNL     1      -6.898 -12.201  17.975  0.00  0.00    -0.150 OA
ATOM      6  O   UNL     1      -6.243 -10.293  19.477  0.00  0.00    -0.150 OA
BRANCH   1  25
ATOM     25  C   UNL     1      -8.694 -10.436  18.619  0.00  0.00    +0.108 A 
ATOM     28  C   UNL     1      -9.340 -11.010  19.700  0.00  0.00    +0.029 A 
ATOM     29  C   UNL     1      -9.353  -9.582  17.751  0.00  0.00    +0.029 A 
ATOM     30  C   UNL     1     -10.687 -10.723  19.920  0.00  0.00    +0.002 A 
ATOM     31  C   UNL     1     -10.700  -9.295  17.971  0.00  0.00    +0.002 A 
ATOM     32  C   UNL     1     -11.367  -9.865  19.056  0.00  0.00    +0.000 A 
ENDBRANCH   1  25
ENDBRANCH   9   1
ENDBRANCH  20   9
BRANCH  19  22
ATOM     22  C   UNL     1      -3.431 -14.961  14.720  0.00  0.00    +0.138 C 
BRANCH  22  23
ATOM      2  S   UNL     1      -5.145 -17.017  15.387  0.00  0.00    -0.101 S 
ATOM     23  C   UNL     1      -4.745 -15.362  15.309  0.00  0.00    -0.001 A 
ATOM     24  C   UNL     1      -5.721 -14.551  15.820  0.00  0.00    +0.011 A 
ATOM     26  C   UNL     1      -6.833 -15.305  16.293  0.00  0.00    +0.008 A 
ATOM     27  C   UNL     1      -6.652 -16.660  16.118  0.00  0.00    +0.045 A 
ENDBRANCH  22  23
ENDBRANCH  19  22
TORSDOF 5
ENDMDL
MODEL 8
REMARK VINA RESULT:      -6.2     22.947     25.736
REMARK  Name = 11867224
REMARK  5 active torsions:
REMARK  status: ('A' for Active; 'I' for Inactive)
REMARK    1  A    between atoms: S_1  and  N_9
REMARK    2  A    between atoms: S_1  and  C_25
REMARK    3  A    between atoms: N_9  and  C_20
REMARK    4  A    between atoms: C_19  and  C_22
REMARK    5  A    between atoms: C_22  and  C_23
REMARK                            x       y       z     vdW  Elec       q    Type
REMARK                         _______ _______ _______ _____ _____    ______ ____
ROOT
ATOM      3  O   UNL     1      -3.996  10.540   1.557  0.00  0.00    -0.266 OA
ATOM      4  O   UNL     1      -3.808  12.931   6.348  0.00  0.00    -0.275 OA
ATOM      7  N   UNL     1      -2.825  10.828   6.440  0.00  0.00    -0.300 N 
ATOM      8  N   UNL     1      -2.926   9.683   3.457  0.00  0.00    -0.310 N 
ATOM     10  C   UNL     1      -4.190   8.934   5.552  0.00  0.00    +0.027 C 
ATOM     11  C   UNL     1      -1.735   8.799   5.495  0.00  0.00    +0.054 C 
ATOM     12  C   UNL     1      -3.007   7.997   5.761  0.00  0.00    +0.018 C 
ATOM     13  C   UNL     1      -4.109  10.129   6.517  0.00  0.00    +0.113 C 
ATOM     14  C   UNL     1      -4.218   9.379   4.085  0.00  0.00    +0.130 C 
ATOM     15  C   UNL     1      -1.638   9.962   6.503  0.00  0.00    +0.117 C 
ATOM     16  C   UNL     1      -1.717   9.343   4.079  0.00  0.00    +0.027 A 
ATOM     17  C   UNL     1      -0.548   9.523   3.438  0.00  0.00    +0.024 A 
ATOM     18  C   UNL     1      -2.968  10.236   2.159  0.00  0.00    +0.274 A 
ATOM     19  C   UNL     1      -2.800  12.222   6.401  0.00  0.00    +0.220 C 
ATOM     20  C   UNL     1      -1.645  10.432   1.515  0.00  0.00    +0.112 A 
ATOM     21  C   UNL     1      -0.506  10.086   2.116  0.00  0.00    +0.031 A 
ENDROOT
BRANCH  20   9
ATOM      9  N   UNL     1      -1.561  10.986   0.226  0.00  0.00    -0.211 N 
ATOM     33  H   UNL     1      -2.302  11.676   0.038  0.00  0.00    +0.174 HD
BRANCH   9   1
ATOM      1  S   UNL     1      -1.252   9.919  -1.053  0.00  0.00    +0.072 S 
ATOM      5  O   UNL     1      -0.017  10.293  -1.713  0.00  0.00    -0.150 OA
ATOM      6  O   UNL     1      -1.459   8.554  -0.610  0.00  0.00    -0.150 OA
BRANCH   1  25
ATOM     25  C   UNL     1      -2.580  10.326  -2.148  0.00  0.00    +0.108 A 
ATOM     28  C   UNL     1      -2.298  10.964  -3.343  0.00  0.00    +0.029 A 
ATOM     29  C   UNL     1      -3.876   9.999  -1.788  0.00  0.00    +0.029 A 
ATOM     30  C   UNL     1      -3.345  11.286  -4.207  0.00  0.00    +0.002 A 
ATOM     31  C   UNL     1      -4.923  10.321  -2.652  0.00  0.00    +0.002 A 
ATOM     32  C   UNL     1      -4.657  10.964  -3.861  0.00  0.00    +0.000 A 
ENDBRANCH   1  25
ENDBRANCH   9   1
ENDBRANCH  20   9
BRANCH  19  22
ATOM     22  C   UNL     1      -1.440  12.875   6.416  0.00  0.00    +0.138 C 
BRANCH  22  23
ATOM      2  S   UNL     1       0.588  13.105   4.560  0.00  0.00    -0.101 S 
ATOM     23  C   UNL     1      -1.056  13.178   5.004  0.00  0.00    -0.001 A 
ATOM     24  C   UNL     1      -1.876  13.523   3.965  0.00  0.00    +0.011 A 
ATOM     26  C   UNL     1      -1.139  13.733   2.764  0.00  0.00    +0.008 A 
ATOM     27  C   UNL     1       0.214  13.540   2.947  0.00  0.00    +0.045 A 
ENDBRANCH  22  23
ENDBRANCH  19  22
TORSDOF 5
ENDMDL
MODEL 9
REMARK VINA RESULT:      -6.2     22.758     25.407
REMARK  Name = 11867224
REMARK  5 active torsions:
REMARK  status: ('A' for Active; 'I' for Inactive)
REMARK    1  A    between atoms: S_1  and  N_9
REMARK    2  A    between atoms: S_1  and  C_25
REMARK    3  A    between atoms: N_9  and  C_20
REMARK    4  A    between atoms: C_19  and  C_22
REMARK    5  A    between atoms: C_22  and  C_23
REMARK                            x       y       z     vdW  Elec       q    Type
REMARK                         _______ _______ _______ _____ _____    ______ ____
ROOT
ATOM      3  O   UNL     1      -4.049  10.428   1.452  0.00  0.00    -0.266 OA
ATOM      4  O   UNL     1      -4.063  12.838   6.238  0.00  0.00    -0.275 OA
ATOM      7  N   UNL     1      -2.991  10.780   6.358  0.00  0.00    -0.300 N 
ATOM      8  N   UNL     1      -2.982   9.624   3.377  0.00  0.00    -0.310 N 
ATOM     10  C   UNL     1      -4.254   8.826   5.449  0.00  0.00    +0.027 C 
ATOM     11  C   UNL     1      -1.795   8.799   5.442  0.00  0.00    +0.054 C 
ATOM     12  C   UNL     1      -3.035   7.942   5.685  0.00  0.00    +0.018 C 
ATOM     13  C   UNL     1      -4.245  10.026   6.411  0.00  0.00    +0.113 C 
ATOM     14  C   UNL     1      -4.272   9.265   3.979  0.00  0.00    +0.130 C 
ATOM     15  C   UNL     1      -1.769   9.967   6.447  0.00  0.00    +0.117 C 
ATOM     16  C   UNL     1      -1.772   9.339   4.024  0.00  0.00    +0.027 A 
ATOM     17  C   UNL     1      -0.599   9.569   3.406  0.00  0.00    +0.024 A 
ATOM     18  C   UNL     1      -3.021  10.171   2.077  0.00  0.00    +0.274 A 
ATOM     19  C   UNL     1      -3.026  12.174   6.314  0.00  0.00    +0.220 C 
ATOM     20  C   UNL     1      -1.695  10.424   1.458  0.00  0.00    +0.112 A 
ATOM     21  C   UNL     1      -0.554  10.130   2.083  0.00  0.00    +0.031 A 
ENDROOT
BRANCH  20   9
ATOM      9  N   UNL     1      -1.609  10.977   0.169  0.00  0.00    -0.211 N 
ATOM     33  H   UNL     1      -2.353  11.663  -0.021  0.00  0.00    +0.174 HD
BRANCH   9   1
ATOM      1  S   UNL     1      -1.291   9.911  -1.108  0.00  0.00    +0.072 S 
ATOM      5  O   UNL     1      -0.029  10.260  -1.732  0.00  0.00    -0.150 OA
ATOM      6  O   UNL     1      -1.542   8.548  -0.680  0.00  0.00    -0.150 OA
BRANCH   1  25
ATOM     25  C   UNL     1      -2.578  10.356  -2.236  0.00  0.00    +0.108 A 
ATOM     28  C   UNL     1      -3.888  10.038  -1.926  0.00  0.00    +0.029 A 
ATOM     29  C   UNL     1      -2.249  11.016  -3.408  0.00  0.00    +0.029 A 
ATOM     30  C   UNL     1      -4.903  10.389  -2.816  0.00  0.00    +0.002 A 
ATOM     31  C   UNL     1      -3.265  11.367  -4.298  0.00  0.00    +0.002 A 
ATOM     32  C   UNL     1      -4.592  11.054  -4.002  0.00  0.00    +0.000 A 
ENDBRANCH   1  25
ENDBRANCH   9   1
ENDBRANCH  20   9
BRANCH  19  22
ATOM     22  C   UNL     1      -1.697  12.885   6.355  0.00  0.00    +0.138 C 
BRANCH  22  23
ATOM      2  S   UNL     1       0.312  12.825   8.244  0.00  0.00    -0.101 S 
ATOM     23  C   UNL     1      -1.312  13.066   7.788  0.00  0.00    -0.001 A 
ATOM     24  C   UNL     1      -2.117  13.413   8.838  0.00  0.00    +0.011 A 
ATOM     26  C   UNL     1      -1.384  13.488  10.057  0.00  0.00    +0.008 A 
ATOM     27  C   UNL     1      -0.050  13.191   9.877  0.00  0.00    +0.045 A 
ENDBRANCH  22  23
ENDBRANCH  19  22
TORSDOF 5
ENDMDL
MODEL 10
REMARK VINA RESULT:      -6.1     29.415     31.330
REMARK  Name = 11867224
REMARK  5 active torsions:
REMARK  status: ('A' for Active; 'I' for Inactive)
REMARK    1  A    between atoms: S_1  and  N_9
REMARK    2  A    between atoms: S_1  and  C_25
REMARK    3  A    between atoms: N_9  and  C_20
REMARK    4  A    between atoms: C_19  and  C_22
REMARK    5  A    between atoms: C_22  and  C_23
REMARK                            x       y       z     vdW  Elec       q    Type
REMARK                         _______ _______ _______ _____ _____    ______ ____
ROOT
ATOM      3  O   UNL     1      -1.082  12.254  38.857  0.00  0.00    -0.266 OA
ATOM      4  O   UNL     1      -4.565  14.274  35.321  0.00  0.00    -0.275 OA
ATOM      7  N   UNL     1      -2.412  14.276  34.447  0.00  0.00    -0.300 N 
ATOM      8  N   UNL     1      -0.566  12.899  36.664  0.00  0.00    -0.310 N 
ATOM     10  C   UNL     1      -0.648  15.330  35.867  0.00  0.00    +0.027 C 
ATOM     11  C   UNL     1      -0.038  13.548  34.286  0.00  0.00    +0.054 C 
ATOM     12  C   UNL     1       0.409  14.889  34.861  0.00  0.00    +0.018 C 
ATOM     13  C   UNL     1      -2.017  15.479  35.181  0.00  0.00    +0.113 C 
ATOM     14  C   UNL     1      -0.689  14.318  37.020  0.00  0.00    +0.130 C 
ATOM     15  C   UNL     1      -1.383  13.722  33.554  0.00  0.00    +0.117 C 
ATOM     16  C   UNL     1      -0.178  12.503  35.377  0.00  0.00    +0.027 A 
ATOM     17  C   UNL     1       0.043  11.204  35.102  0.00  0.00    +0.024 A 
ATOM     18  C   UNL     1      -0.757  11.967  37.706  0.00  0.00    +0.274 A 
ATOM     19  C   UNL     1      -3.716  13.795  34.565  0.00  0.00    +0.220 C 
ATOM     20  C   UNL     1      -0.521  10.548  37.334  0.00  0.00    +0.112 A 
ATOM     21  C   UNL     1      -0.135  10.192  36.108  0.00  0.00    +0.031 A 
ENDROOT
BRANCH  20   9
ATOM      9  N   UNL     1      -0.691   9.530  38.287  0.00  0.00    -0.211 N 
ATOM     33  H   UNL     1       0.121   8.900  38.347  0.00  0.00    +0.174 HD
BRANCH   9   1
ATOM      1  S   UNL     1      -2.193   8.749  38.322  0.00  0.00    +0.072 S 
ATOM      5  O   UNL     1      -3.069   9.418  39.264  0.00  0.00    -0.150 OA
ATOM      6  O   UNL     1      -2.638   8.487  36.967  0.00  0.00    -0.150 OA
BRANCH   1  25
ATOM     25  C   UNL     1      -1.739   7.196  39.038  0.00  0.00    +0.108 A 
ATOM     28  C   UNL     1      -0.549   6.600  38.659  0.00  0.00    +0.029 A 
ATOM     29  C   UNL     1      -2.583   6.607  39.964  0.00  0.00    +0.029 A 
ATOM     30  C   UNL     1      -0.191   5.375  39.223  0.00  0.00    +0.002 A 
ATOM     31  C   UNL     1      -2.224   5.383  40.528  0.00  0.00    +0.002 A 
ATOM     32  C   UNL     1      -1.028   4.767  40.157  0.00  0.00    +0.000 A 
ENDBRANCH   1  25
ENDBRANCH   9   1
ENDBRANCH  20   9
BRANCH  19  22
ATOM     22  C   UNL     1      -4.079  12.607  33.709  0.00  0.00    +0.138 C 
BRANCH  22  23
ATOM      2  S   UNL     1      -6.587  12.797  32.576  0.00  0.00    -0.101 S 
ATOM     23  C   UNL     1      -4.909  13.097  32.566  0.00  0.00    -0.001 A 
ATOM     24  C   UNL     1      -4.494  13.784  31.459  0.00  0.00    +0.011 A 
ATOM     26  C   UNL     1      -5.583  14.079  30.589  0.00  0.00    +0.008 A 
ATOM     27  C   UNL     1      -6.779  13.599  31.075  0.00  0.00    +0.045 A 
ENDBRANCH  22  23
ENDBRANCH  19  22
TORSDOF 5
ENDMDL
