MODEL 1
REMARK VINA RESULT:      -7.3      0.000      0.000
REMARK  Name = 11885997
REMARK  6 active torsions:
REMARK  status: ('A' for Active; 'I' for Inactive)
REMARK    1  A    between atoms: S_1  and  C_24
REMARK    2  A    between atoms: S_1  and  C_25
REMARK    3  A    between atoms: O_4  and  C_14
REMARK    4  A    between atoms: O_4  and  C_23
REMARK    5  A    between atoms: N_6  and  C_13
REMARK    6  A    between atoms: N_7  and  C_17
REMARK                            x       y       z     vdW  Elec       q    Type
REMARK                         _______ _______ _______ _____ _____    ______ ____
ROOT
ATOM      2  O   UNL     1      15.382   6.920  21.693  0.00  0.00    -0.368 OA
ATOM      3  O   UNL     1      16.432   9.633  20.647  0.00  0.00    -0.368 OA
ATOM     11  C   UNL     1      15.398   8.743  20.169  0.00  0.00    +0.177 C 
ATOM     12  C   UNL     1      15.890   7.330  20.414  0.00  0.00    +0.192 C 
ATOM     13  C   UNL     1      14.169   8.876  21.048  0.00  0.00    +0.168 C 
ATOM     14  C   UNL     1      17.391   7.499  20.438  0.00  0.00    +0.235 C 
ATOM     15  C   UNL     1      14.465   7.907  22.188  0.00  0.00    +0.190 C 
ATOM     16  C   UNL     1      17.547   8.851  21.095  0.00  0.00    +0.207 C 
ENDROOT
BRANCH  13   6
ATOM      6  N   UNL     1      12.926   8.623  20.314  0.00  0.00    -0.212 N 
ATOM      8  N   UNL     1      12.951   8.463  18.987  0.00  0.00    -0.043 NA
ATOM      9  N   UNL     1      10.865   8.285  19.754  0.00  0.00    -0.101 NA
ATOM     10  N   UNL     1      11.683   8.257  18.648  0.00  0.00    -0.022 NA
ATOM     24  C   UNL     1      11.657   8.513  20.776  0.00  0.00    +0.214 A 
BRANCH  24   1
ATOM      1  S   UNL     1      11.219   8.657  22.432  0.00  0.00    -0.049 S 
BRANCH   1  25
ATOM     25  C   UNL     1      11.157  10.445  22.570  0.00  0.00    +0.016 A 
ATOM     26  C   UNL     1      10.853  11.027  23.794  0.00  0.00    +0.015 A 
ATOM     27  C   UNL     1      11.414  11.229  21.452  0.00  0.00    +0.015 A 
ATOM     28  C   UNL     1      10.806  12.417  23.901  0.00  0.00    +0.001 A 
ATOM     29  C   UNL     1      11.367  12.618  21.560  0.00  0.00    +0.001 A 
ATOM     30  C   UNL     1      11.062  13.212  22.784  0.00  0.00    +0.000 A 
ENDBRANCH   1  25
ENDBRANCH  24   1
ENDBRANCH  13   6
BRANCH  14   4
ATOM      4  O   UNL     1      18.061   6.482  21.146  0.00  0.00    -0.442 OA
BRANCH   4  23
ATOM      5  O   UNL     1      18.642   5.050  19.447  0.00  0.00    -0.226 OA
ATOM      7  N   UNL     1      20.210   5.865  20.948  0.00  0.00    -0.278 N 
ATOM     23  C   UNL     1      18.944   5.733  20.420  0.00  0.00    +0.401 C 
ATOM     31  H   UNL     1      20.311   6.430  21.786  0.00  0.00    +0.152 HD
BRANCH   7  17
ATOM     17  C   UNL     1      21.378   5.201  20.412  0.00  0.00    +0.076 C 
ATOM     18  C   UNL     1      22.624   6.082  20.548  0.00  0.00    +0.022 C 
ATOM     19  C   UNL     1      21.587   3.835  21.075  0.00  0.00    +0.022 C 
ATOM     20  C   UNL     1      23.103   6.198  21.995  0.00  0.00    +0.002 C 
ATOM     21  C   UNL     1      22.068   3.956  22.521  0.00  0.00    +0.002 C 
ATOM     22  C   UNL     1      23.316   4.827  22.630  0.00  0.00    +0.000 C 
ENDBRANCH   7  17
ENDBRANCH   4  23
ENDBRANCH  14   4
TORSDOF 6
ENDMDL
MODEL 2
REMARK VINA RESULT:      -7.0     27.811     30.389
REMARK  Name = 11885997
REMARK  6 active torsions:
REMARK  status: ('A' for Active; 'I' for Inactive)
REMARK    1  A    between atoms: S_1  and  C_24
REMARK    2  A    between atoms: S_1  and  C_25
REMARK    3  A    between atoms: O_4  and  C_14
REMARK    4  A    between atoms: O_4  and  C_23
REMARK    5  A    between atoms: N_6  and  C_13
REMARK    6  A    between atoms: N_7  and  C_17
REMARK                            x       y       z     vdW  Elec       q    Type
REMARK                         _______ _______ _______ _____ _____    ______ ____
ROOT
ATOM      2  O   UNL     1      -4.949 -10.722  17.978  0.00  0.00    -0.368 OA
ATOM      3  O   UNL     1      -6.369 -12.355  15.770  0.00  0.00    -0.368 OA
ATOM     11  C   UNL     1      -5.396 -11.288  15.714  0.00  0.00    +0.177 C 
ATOM     12  C   UNL     1      -5.732 -10.330  16.840  0.00  0.00    +0.192 C 
ATOM     13  C   UNL     1      -4.026 -11.830  16.072  0.00  0.00    +0.168 C 
ATOM     14  C   UNL     1      -7.205 -10.581  17.062  0.00  0.00    +0.235 C 
ATOM     15  C   UNL     1      -4.019 -11.746  17.595  0.00  0.00    +0.190 C 
ATOM     16  C   UNL     1      -7.315 -12.067  16.808  0.00  0.00    +0.207 C 
ENDROOT
BRANCH  13   6
ATOM      6  N   UNL     1      -2.943 -11.109  15.398  0.00  0.00    -0.212 N 
ATOM      8  N   UNL     1      -2.104 -10.345  16.105  0.00  0.00    -0.043 NA
ATOM      9  N   UNL     1      -1.570 -10.292  13.941  0.00  0.00    -0.101 NA
ATOM     10  N   UNL     1      -1.264  -9.846  15.206  0.00  0.00    -0.022 NA
ATOM     24  C   UNL     1      -2.614 -11.074  14.084  0.00  0.00    +0.214 A 
BRANCH  24   1
ATOM      1  S   UNL     1      -3.460 -11.932  12.856  0.00  0.00    -0.049 S 
BRANCH   1  25
ATOM     25  C   UNL     1      -3.946 -10.556  11.812  0.00  0.00    +0.016 A 
ATOM     26  C   UNL     1      -3.147 -10.198  10.734  0.00  0.00    +0.015 A 
ATOM     27  C   UNL     1      -5.117  -9.863  12.092  0.00  0.00    +0.015 A 
ATOM     28  C   UNL     1      -3.525  -9.129   9.922  0.00  0.00    +0.001 A 
ATOM     29  C   UNL     1      -5.495  -8.794  11.280  0.00  0.00    +0.001 A 
ATOM     30  C   UNL     1      -4.700  -8.427  10.196  0.00  0.00    +0.000 A 
ENDBRANCH   1  25
ENDBRANCH  24   1
ENDBRANCH  13   6
BRANCH  14   4
ATOM      4  O   UNL     1      -7.649 -10.228  18.352  0.00  0.00    -0.442 OA
BRANCH   4  23
ATOM      5  O   UNL     1      -9.718 -10.644  19.258  0.00  0.00    -0.226 OA
ATOM      7  N   UNL     1      -9.401  -9.029  17.624  0.00  0.00    -0.278 N 
ATOM     23  C   UNL     1      -8.993 -10.025  18.485  0.00  0.00    +0.401 C 
ATOM     31  H   UNL     1      -8.701  -8.631  17.005  0.00  0.00    +0.152 HD
BRANCH   7  17
ATOM     17  C   UNL     1     -10.768  -8.569  17.516  0.00  0.00    +0.076 C 
ATOM     18  C   UNL     1     -10.826  -7.130  16.994  0.00  0.00    +0.022 C 
ATOM     19  C   UNL     1     -11.597  -9.513  16.638  0.00  0.00    +0.022 C 
ATOM     20  C   UNL     1     -10.460  -7.030  15.513  0.00  0.00    +0.002 C 
ATOM     21  C   UNL     1     -11.230  -9.408  15.157  0.00  0.00    +0.002 C 
ATOM     22  C   UNL     1     -11.306  -7.968  14.659  0.00  0.00    +0.000 C 
ENDBRANCH   7  17
ENDBRANCH   4  23
ENDBRANCH  14   4
TORSDOF 6
ENDMDL
MODEL 3
REMARK VINA RESULT:      -7.0     28.307     30.634
REMARK  Name = 11885997
REMARK  6 active torsions:
REMARK  status: ('A' for Active; 'I' for Inactive)
REMARK    1  A    between atoms: S_1  and  C_24
REMARK    2  A    between atoms: S_1  and  C_25
REMARK    3  A    between atoms: O_4  and  C_14
REMARK    4  A    between atoms: O_4  and  C_23
REMARK    5  A    between atoms: N_6  and  C_13
REMARK    6  A    between atoms: N_7  and  C_17
REMARK                            x       y       z     vdW  Elec       q    Type
REMARK                         _______ _______ _______ _____ _____    ______ ____
ROOT
ATOM      2  O   UNL     1      -6.227 -10.675  17.313  0.00  0.00    -0.368 OA
ATOM      3  O   UNL     1      -4.293 -12.095  19.263  0.00  0.00    -0.368 OA
ATOM     11  C   UNL     1      -4.913 -12.522  18.029  0.00  0.00    +0.177 C 
ATOM     12  C   UNL     1      -6.307 -11.928  18.012  0.00  0.00    +0.192 C 
ATOM     13  C   UNL     1      -4.207 -11.870  16.856  0.00  0.00    +0.168 C 
ATOM     14  C   UNL     1      -6.603 -11.728  19.481  0.00  0.00    +0.235 C 
ATOM     15  C   UNL     1      -4.919 -10.526  16.740  0.00  0.00    +0.190 C 
ATOM     16  C   UNL     1      -5.247 -11.345  20.027  0.00  0.00    +0.207 C 
ENDROOT
BRANCH  13   6
ATOM      6  N   UNL     1      -4.238 -12.703  15.651  0.00  0.00    -0.212 N 
ATOM      8  N   UNL     1      -5.095 -13.725  15.563  0.00  0.00    -0.043 NA
ATOM      9  N   UNL     1      -3.867 -13.579  13.708  0.00  0.00    -0.101 NA
ATOM     10  N   UNL     1      -4.864 -14.259  14.369  0.00  0.00    -0.022 NA
ATOM     24  C   UNL     1      -3.494 -12.617  14.522  0.00  0.00    +0.214 A 
BRANCH  24   1
ATOM      1  S   UNL     1      -2.281 -11.428  14.255  0.00  0.00    -0.049 S 
BRANCH   1  25
ATOM     25  C   UNL     1      -2.982 -10.601  12.825  0.00  0.00    +0.016 A 
ATOM     26  C   UNL     1      -2.156 -10.248  11.765  0.00  0.00    +0.015 A 
ATOM     27  C   UNL     1      -4.342 -10.324  12.792  0.00  0.00    +0.015 A 
ATOM     28  C   UNL     1      -2.701  -9.606  10.653  0.00  0.00    +0.001 A 
ATOM     29  C   UNL     1      -4.887  -9.682  11.680  0.00  0.00    +0.001 A 
ATOM     30  C   UNL     1      -4.067  -9.323  10.612  0.00  0.00    +0.000 A 
ENDBRANCH   1  25
ENDBRANCH  24   1
ENDBRANCH  13   6
BRANCH  14   4
ATOM      4  O   UNL     1      -7.576 -10.741  19.731  0.00  0.00    -0.442 OA
BRANCH   4  23
ATOM      5  O   UNL     1      -9.546 -11.909  19.556  0.00  0.00    -0.226 OA
ATOM      7  N   UNL     1      -9.116 -10.034  18.259  0.00  0.00    -0.278 N 
ATOM     23  C   UNL     1      -8.817 -10.983  19.214  0.00  0.00    +0.401 C 
ATOM     31  H   UNL     1      -8.400  -9.348  18.043  0.00  0.00    +0.152 HD
BRANCH   7  17
ATOM     17  C   UNL     1     -10.358 -10.003  17.518  0.00  0.00    +0.076 C 
ATOM     18  C   UNL     1     -11.098  -8.680  17.738  0.00  0.00    +0.022 C 
ATOM     19  C   UNL     1     -10.115 -10.264  16.028  0.00  0.00    +0.022 C 
ATOM     20  C   UNL     1     -10.414  -7.505  17.038  0.00  0.00    +0.002 C 
ATOM     21  C   UNL     1      -9.434  -9.086  15.331  0.00  0.00    +0.002 C 
ATOM     22  C   UNL     1     -10.195  -7.783  15.554  0.00  0.00    +0.000 C 
ENDBRANCH   7  17
ENDBRANCH   4  23
ENDBRANCH  14   4
TORSDOF 6
ENDMDL
MODEL 4
REMARK VINA RESULT:      -6.9     28.029     29.734
REMARK  Name = 11885997
REMARK  6 active torsions:
REMARK  status: ('A' for Active; 'I' for Inactive)
REMARK    1  A    between atoms: S_1  and  C_24
REMARK    2  A    between atoms: S_1  and  C_25
REMARK    3  A    between atoms: O_4  and  C_14
REMARK    4  A    between atoms: O_4  and  C_23
REMARK    5  A    between atoms: N_6  and  C_13
REMARK    6  A    between atoms: N_7  and  C_17
REMARK                            x       y       z     vdW  Elec       q    Type
REMARK                         _______ _______ _______ _____ _____    ______ ____
ROOT
ATOM      2  O   UNL     1      -4.981 -10.114  15.432  0.00  0.00    -0.368 OA
ATOM      3  O   UNL     1      -4.139 -13.062  15.835  0.00  0.00    -0.368 OA
ATOM     11  C   UNL     1      -4.467 -12.010  16.770  0.00  0.00    +0.177 C 
ATOM     12  C   UNL     1      -3.921 -10.721  16.188  0.00  0.00    +0.192 C 
ATOM     13  C   UNL     1      -5.969 -11.807  16.799  0.00  0.00    +0.168 C 
ATOM     14  C   UNL     1      -2.805 -11.207  15.293  0.00  0.00    +0.235 C 
ATOM     15  C   UNL     1      -6.201 -10.840  15.643  0.00  0.00    +0.190 C 
ATOM     16  C   UNL     1      -3.365 -12.506  14.763  0.00  0.00    +0.207 C 
ENDROOT
BRANCH  13   6
ATOM      6  N   UNL     1      -6.448 -11.349  18.106  0.00  0.00    -0.212 N 
ATOM      8  N   UNL     1      -5.580 -10.897  19.018  0.00  0.00    -0.043 NA
ATOM      9  N   UNL     1      -7.661 -10.817  19.816  0.00  0.00    -0.101 NA
ATOM     10  N   UNL     1      -6.330 -10.572  20.065  0.00  0.00    -0.022 NA
ATOM     24  C   UNL     1      -7.711 -11.298  18.595  0.00  0.00    +0.214 A 
BRANCH  24   1
ATOM      1  S   UNL     1      -9.104 -11.794  17.718  0.00  0.00    -0.049 S 
BRANCH   1  25
ATOM     25  C   UNL     1      -9.871 -10.194  17.446  0.00  0.00    +0.016 A 
ATOM     26  C   UNL     1     -11.240 -10.051  17.631  0.00  0.00    +0.015 A 
ATOM     27  C   UNL     1      -9.087  -9.116  17.055  0.00  0.00    +0.015 A 
ATOM     28  C   UNL     1     -11.836  -8.807  17.420  0.00  0.00    +0.001 A 
ATOM     29  C   UNL     1      -9.684  -7.873  16.844  0.00  0.00    +0.001 A 
ATOM     30  C   UNL     1     -11.057  -7.718  17.026  0.00  0.00    +0.000 A 
ENDBRANCH   1  25
ENDBRANCH  24   1
ENDBRANCH  13   6
BRANCH  14   4
ATOM      4  O   UNL     1      -2.479 -10.307  14.259  0.00  0.00    -0.442 OA
BRANCH   4  23
ATOM      5  O   UNL     1      -1.705 -11.470  12.436  0.00  0.00    -0.226 OA
ATOM      7  N   UNL     1      -3.778 -10.430  12.433  0.00  0.00    -0.278 N 
ATOM     23  C   UNL     1      -2.571 -10.800  12.988  0.00  0.00    +0.401 C 
ATOM     31  H   UNL     1      -4.385  -9.835  12.988  0.00  0.00    +0.152 HD
BRANCH   7  17
ATOM     17  C   UNL     1      -4.191 -10.792  11.095  0.00  0.00    +0.076 C 
ATOM     18  C   UNL     1      -5.709 -10.986  11.021  0.00  0.00    +0.022 C 
ATOM     19  C   UNL     1      -3.712  -9.755  10.072  0.00  0.00    +0.022 C 
ATOM     20  C   UNL     1      -6.473  -9.665  11.119  0.00  0.00    +0.002 C 
ATOM     21  C   UNL     1      -4.480  -8.437  10.173  0.00  0.00    +0.002 C 
ATOM     22  C   UNL     1      -5.988  -8.655  10.085  0.00  0.00    +0.000 C 
ENDBRANCH   7  17
ENDBRANCH   4  23
ENDBRANCH  14   4
TORSDOF 6
ENDMDL
MODEL 5
REMARK VINA RESULT:      -6.8     27.336     29.779
REMARK  Name = 11885997
REMARK  6 active torsions:
REMARK  status: ('A' for Active; 'I' for Inactive)
REMARK    1  A    between atoms: S_1  and  C_24
REMARK    2  A    between atoms: S_1  and  C_25
REMARK    3  A    between atoms: O_4  and  C_14
REMARK    4  A    between atoms: O_4  and  C_23
REMARK    5  A    between atoms: N_6  and  C_13
REMARK    6  A    between atoms: N_7  and  C_17
REMARK                            x       y       z     vdW  Elec       q    Type
REMARK                         _______ _______ _______ _____ _____    ______ ____
ROOT
ATOM      2  O   UNL     1      -4.264 -11.869  14.587  0.00  0.00    -0.368 OA
ATOM      3  O   UNL     1      -2.189 -10.775  16.601  0.00  0.00    -0.368 OA
ATOM     11  C   UNL     1      -3.509 -10.321  16.225  0.00  0.00    +0.177 C 
ATOM     12  C   UNL     1      -3.652 -10.578  14.738  0.00  0.00    +0.192 C 
ATOM     13  C   UNL     1      -4.553 -11.213  16.868  0.00  0.00    +0.168 C 
ATOM     14  C   UNL     1      -2.219 -10.581  14.260  0.00  0.00    +0.235 C 
ATOM     15  C   UNL     1      -4.673 -12.362  15.872  0.00  0.00    +0.190 C 
ATOM     16  C   UNL     1      -1.498 -11.219  15.425  0.00  0.00    +0.207 C 
ENDROOT
BRANCH  13   6
ATOM      6  N   UNL     1      -5.800 -10.499  17.155  0.00  0.00    -0.212 N 
ATOM      8  N   UNL     1      -6.270  -9.594  16.290  0.00  0.00    -0.043 NA
ATOM      9  N   UNL     1      -7.624  -9.762  18.053  0.00  0.00    -0.101 NA
ATOM     10  N   UNL     1      -7.389  -9.145  16.846  0.00  0.00    -0.022 NA
ATOM     24  C   UNL     1      -6.627 -10.598  18.224  0.00  0.00    +0.214 A 
BRANCH  24   1
ATOM      1  S   UNL     1      -6.361 -11.658  19.552  0.00  0.00    -0.049 S 
BRANCH   1  25
ATOM     25  C   UNL     1      -7.597 -12.908  19.187  0.00  0.00    +0.016 A 
ATOM     26  C   UNL     1      -7.621 -13.502  17.932  0.00  0.00    +0.015 A 
ATOM     27  C   UNL     1      -8.516 -13.269  20.165  0.00  0.00    +0.015 A 
ATOM     28  C   UNL     1      -8.582 -14.473  17.649  0.00  0.00    +0.001 A 
ATOM     29  C   UNL     1      -9.476 -14.240  19.881  0.00  0.00    +0.001 A 
ATOM     30  C   UNL     1      -9.509 -14.842  18.624  0.00  0.00    +0.000 A 
ENDBRANCH   1  25
ENDBRANCH  24   1
ENDBRANCH  13   6
BRANCH  14   4
ATOM      4  O   UNL     1      -2.026 -11.294  13.060  0.00  0.00    -0.442 OA
BRANCH   4  23
ATOM      5  O   UNL     1      -1.204  -9.728  11.596  0.00  0.00    -0.226 OA
ATOM      7  N   UNL     1      -3.181 -10.869  11.184  0.00  0.00    -0.278 N 
ATOM     23  C   UNL     1      -2.056 -10.551  11.914  0.00  0.00    +0.401 C 
ATOM     31  H   UNL     1      -3.828 -11.538  11.589  0.00  0.00    +0.152 HD
BRANCH   7  17
ATOM     17  C   UNL     1      -3.513 -10.260   9.914  0.00  0.00    +0.076 C 
ATOM     18  C   UNL     1      -4.567 -11.084   9.167  0.00  0.00    +0.022 C 
ATOM     19  C   UNL     1      -3.971  -8.810  10.102  0.00  0.00    +0.022 C 
ATOM     20  C   UNL     1      -5.951 -10.982   9.809  0.00  0.00    +0.002 C 
ATOM     21  C   UNL     1      -5.356  -8.713  10.742  0.00  0.00    +0.002 C 
ATOM     22  C   UNL     1      -6.390  -9.531   9.975  0.00  0.00    +0.000 C 
ENDBRANCH   7  17
ENDBRANCH   4  23
ENDBRANCH  14   4
TORSDOF 6
ENDMDL
MODEL 6
REMARK VINA RESULT:      -6.7     28.427     30.693
REMARK  Name = 11885997
REMARK  6 active torsions:
REMARK  status: ('A' for Active; 'I' for Inactive)
REMARK    1  A    between atoms: S_1  and  C_24
REMARK    2  A    between atoms: S_1  and  C_25
REMARK    3  A    between atoms: O_4  and  C_14
REMARK    4  A    between atoms: O_4  and  C_23
REMARK    5  A    between atoms: N_6  and  C_13
REMARK    6  A    between atoms: N_7  and  C_17
REMARK                            x       y       z     vdW  Elec       q    Type
REMARK                         _______ _______ _______ _____ _____    ______ ____
ROOT
ATOM      2  O   UNL     1      -3.189 -10.615  10.588  0.00  0.00    -0.368 OA
ATOM      3  O   UNL     1      -5.449  -8.923  11.848  0.00  0.00    -0.368 OA
ATOM     11  C   UNL     1      -5.124 -10.328  11.937  0.00  0.00    +0.177 C 
ATOM     12  C   UNL     1      -4.619 -10.748  10.571  0.00  0.00    +0.192 C 
ATOM     13  C   UNL     1      -3.933 -10.515  12.857  0.00  0.00    +0.168 C 
ATOM     14  C   UNL     1      -5.263  -9.737   9.652  0.00  0.00    +0.235 C 
ATOM     15  C   UNL     1      -2.748 -10.309  11.919  0.00  0.00    +0.190 C 
ATOM     16  C   UNL     1      -5.245  -8.484  10.497  0.00  0.00    +0.207 C 
ENDROOT
BRANCH  13   6
ATOM      6  N   UNL     1      -3.962 -11.802  13.558  0.00  0.00    -0.212 N 
ATOM      8  N   UNL     1      -4.433 -12.891  12.942  0.00  0.00    -0.043 NA
ATOM      9  N   UNL     1      -3.784 -13.390  15.016  0.00  0.00    -0.101 NA
ATOM     10  N   UNL     1      -4.321 -13.862  13.841  0.00  0.00    -0.022 NA
ATOM     24  C   UNL     1      -3.568 -12.110  14.817  0.00  0.00    +0.214 A 
BRANCH  24   1
ATOM      1  S   UNL     1      -2.905 -10.973  15.924  0.00  0.00    -0.049 S 
BRANCH   1  25
ATOM     25  C   UNL     1      -4.220 -10.942  17.145  0.00  0.00    +0.016 A 
ATOM     26  C   UNL     1      -5.382 -10.227  16.883  0.00  0.00    +0.015 A 
ATOM     27  C   UNL     1      -4.064 -11.635  18.339  0.00  0.00    +0.015 A 
ATOM     28  C   UNL     1      -6.404 -10.204  17.831  0.00  0.00    +0.001 A 
ATOM     29  C   UNL     1      -5.086 -11.611  19.287  0.00  0.00    +0.001 A 
ATOM     30  C   UNL     1      -6.256 -10.896  19.034  0.00  0.00    +0.000 A 
ENDBRANCH   1  25
ENDBRANCH  24   1
ENDBRANCH  13   6
BRANCH  14   4
ATOM      4  O   UNL     1      -4.578  -9.566   8.433  0.00  0.00    -0.442 OA
BRANCH   4  23
ATOM      5  O   UNL     1      -4.891 -11.146   6.797  0.00  0.00    -0.226 OA
ATOM      7  N   UNL     1      -6.190  -9.228   6.908  0.00  0.00    -0.278 N 
ATOM     23  C   UNL     1      -5.192 -10.082   7.327  0.00  0.00    +0.401 C 
ATOM     31  H   UNL     1      -6.302  -8.356   7.416  0.00  0.00    +0.152 HD
BRANCH   7  17
ATOM     17  C   UNL     1      -7.034  -9.480   5.761  0.00  0.00    +0.076 C 
ATOM     18  C   UNL     1      -8.259 -10.313   6.151  0.00  0.00    +0.022 C 
ATOM     19  C   UNL     1      -7.447  -8.169   5.083  0.00  0.00    +0.022 C 
ATOM     20  C   UNL     1      -9.270  -9.516   6.976  0.00  0.00    +0.002 C 
ATOM     21  C   UNL     1      -8.459  -7.376   5.910  0.00  0.00    +0.002 C 
ATOM     22  C   UNL     1      -9.674  -8.223   6.276  0.00  0.00    +0.000 C 
ENDBRANCH   7  17
ENDBRANCH   4  23
ENDBRANCH  14   4
TORSDOF 6
ENDMDL
MODEL 7
REMARK VINA RESULT:      -6.7     14.139     15.284
REMARK  Name = 11885997
REMARK  6 active torsions:
REMARK  status: ('A' for Active; 'I' for Inactive)
REMARK    1  A    between atoms: S_1  and  C_24
REMARK    2  A    between atoms: S_1  and  C_25
REMARK    3  A    between atoms: O_4  and  C_14
REMARK    4  A    between atoms: O_4  and  C_23
REMARK    5  A    between atoms: N_6  and  C_13
REMARK    6  A    between atoms: N_7  and  C_17
REMARK                            x       y       z     vdW  Elec       q    Type
REMARK                         _______ _______ _______ _____ _____    ______ ____
ROOT
ATOM      2  O   UNL     1      13.524   9.871   5.254  0.00  0.00    -0.368 OA
ATOM      3  O   UNL     1      13.784   7.015   6.409  0.00  0.00    -0.368 OA
ATOM     11  C   UNL     1      13.268   8.244   6.967  0.00  0.00    +0.177 C 
ATOM     12  C   UNL     1      14.146   9.364   6.446  0.00  0.00    +0.192 C 
ATOM     13  C   UNL     1      11.899   8.530   6.383  0.00  0.00    +0.168 C 
ATOM     14  C   UNL     1      15.444   8.655   6.139  0.00  0.00    +0.235 C 
ATOM     15  C   UNL     1      12.232   9.268   5.090  0.00  0.00    +0.190 C 
ATOM     16  C   UNL     1      14.962   7.311   5.645  0.00  0.00    +0.207 C 
ENDROOT
BRANCH  13   6
ATOM      6  N   UNL     1      11.032   9.257   7.315  0.00  0.00    -0.212 N 
ATOM      8  N   UNL     1      11.557  10.148   8.163  0.00  0.00    -0.043 NA
ATOM      9  N   UNL     1       9.348  10.018   8.438  0.00  0.00    -0.101 NA
ATOM     10  N   UNL     1      10.519  10.612   8.850  0.00  0.00    -0.022 NA
ATOM     24  C   UNL     1       9.690   9.183   7.485  0.00  0.00    +0.214 A 
BRANCH  24   1
ATOM      1  S   UNL     1       8.660   8.148   6.576  0.00  0.00    -0.049 S 
BRANCH   1  25
ATOM     25  C   UNL     1       9.099   6.570   7.310  0.00  0.00    +0.016 A 
ATOM     26  C   UNL     1       9.035   6.415   8.689  0.00  0.00    +0.015 A 
ATOM     27  C   UNL     1       9.497   5.520   6.492  0.00  0.00    +0.015 A 
ATOM     28  C   UNL     1       9.376   5.188   9.259  0.00  0.00    +0.001 A 
ATOM     29  C   UNL     1       9.837   4.294   7.063  0.00  0.00    +0.001 A 
ATOM     30  C   UNL     1       9.777   4.128   8.445  0.00  0.00    +0.000 A 
ENDBRANCH   1  25
ENDBRANCH  24   1
ENDBRANCH  13   6
BRANCH  14   4
ATOM      4  O   UNL     1      16.237   9.320   5.183  0.00  0.00    -0.442 OA
BRANCH   4  23
ATOM      5  O   UNL     1      17.107  11.322   5.894  0.00  0.00    -0.226 OA
ATOM      7  N   UNL     1      18.362   9.372   5.903  0.00  0.00    -0.278 N 
ATOM     23  C   UNL     1      17.226  10.120   5.681  0.00  0.00    +0.401 C 
ATOM     31  H   UNL     1      18.335   8.392   5.639  0.00  0.00    +0.152 HD
BRANCH   7  17
ATOM     17  C   UNL     1      19.594   9.918   6.430  0.00  0.00    +0.076 C 
ATOM     18  C   UNL     1      20.281   8.921   7.369  0.00  0.00    +0.022 C 
ATOM     19  C   UNL     1      20.532  10.352   5.298  0.00  0.00    +0.022 C 
ATOM     20  C   UNL     1      20.888   7.735   6.620  0.00  0.00    +0.002 C 
ATOM     21  C   UNL     1      21.139   9.163   4.553  0.00  0.00    +0.002 C 
ATOM     22  C   UNL     1      21.826   8.192   5.508  0.00  0.00    +0.000 C 
ENDBRANCH   7  17
ENDBRANCH   4  23
ENDBRANCH  14   4
TORSDOF 6
ENDMDL
MODEL 8
REMARK VINA RESULT:      -6.7     27.612     30.786
REMARK  Name = 11885997
REMARK  6 active torsions:
REMARK  status: ('A' for Active; 'I' for Inactive)
REMARK    1  A    between atoms: S_1  and  C_24
REMARK    2  A    between atoms: S_1  and  C_25
REMARK    3  A    between atoms: O_4  and  C_14
REMARK    4  A    between atoms: O_4  and  C_23
REMARK    5  A    between atoms: N_6  and  C_13
REMARK    6  A    between atoms: N_7  and  C_17
REMARK                            x       y       z     vdW  Elec       q    Type
REMARK                         _______ _______ _______ _____ _____    ______ ____
ROOT
ATOM      2  O   UNL     1      -5.711 -11.113  17.342  0.00  0.00    -0.368 OA
ATOM      3  O   UNL     1      -6.536 -10.455  14.436  0.00  0.00    -0.368 OA
ATOM     11  C   UNL     1      -5.320 -10.213  15.178  0.00  0.00    +0.177 C 
ATOM     12  C   UNL     1      -5.732  -9.884  16.599  0.00  0.00    +0.192 C 
ATOM     13  C   UNL     1      -4.534 -11.505  15.299  0.00  0.00    +0.168 C 
ATOM     14  C   UNL     1      -7.138  -9.361  16.425  0.00  0.00    +0.235 C 
ATOM     15  C   UNL     1      -5.148 -12.157  16.534  0.00  0.00    +0.190 C 
ATOM     16  C   UNL     1      -7.659 -10.220  15.297  0.00  0.00    +0.207 C 
ENDROOT
BRANCH  13   6
ATOM      6  N   UNL     1      -3.088 -11.278  15.362  0.00  0.00    -0.212 N 
ATOM      8  N   UNL     1      -2.565 -10.559  16.360  0.00  0.00    -0.043 NA
ATOM      9  N   UNL     1      -0.960 -11.253  14.976  0.00  0.00    -0.101 NA
ATOM     10  N   UNL     1      -1.259 -10.547  16.119  0.00  0.00    -0.022 NA
ATOM     24  C   UNL     1      -2.110 -11.698  14.524  0.00  0.00    +0.214 A 
BRANCH  24   1
ATOM      1  S   UNL     1      -2.387 -12.651  13.120  0.00  0.00    -0.049 S 
BRANCH   1  25
ATOM     25  C   UNL     1      -2.687 -11.345  11.926  0.00  0.00    +0.016 A 
ATOM     26  C   UNL     1      -3.795 -11.419  11.093  0.00  0.00    +0.015 A 
ATOM     27  C   UNL     1      -1.807 -10.272  11.849  0.00  0.00    +0.015 A 
ATOM     28  C   UNL     1      -4.028 -10.404  10.166  0.00  0.00    +0.001 A 
ATOM     29  C   UNL     1      -2.041  -9.257  10.922  0.00  0.00    +0.001 A 
ATOM     30  C   UNL     1      -3.150  -9.322  10.080  0.00  0.00    +0.000 A 
ENDBRANCH   1  25
ENDBRANCH  24   1
ENDBRANCH  13   6
BRANCH  14   4
ATOM      4  O   UNL     1      -7.928  -9.471  17.587  0.00  0.00    -0.442 OA
BRANCH   4  23
ATOM      5  O   UNL     1      -9.542  -7.907  17.115  0.00  0.00    -0.226 OA
ATOM      7  N   UNL     1     -10.085 -10.047  17.825  0.00  0.00    -0.278 N 
ATOM     23  C   UNL     1      -9.218  -9.034  17.474  0.00  0.00    +0.401 C 
ATOM     31  H   UNL     1      -9.677 -10.920  18.147  0.00  0.00    +0.152 HD
BRANCH   7  17
ATOM     17  C   UNL     1     -11.524  -9.913  17.813  0.00  0.00    +0.076 C 
ATOM     18  C   UNL     1     -12.186 -11.122  17.145  0.00  0.00    +0.022 C 
ATOM     19  C   UNL     1     -12.068  -9.695  19.230  0.00  0.00    +0.022 C 
ATOM     20  C   UNL     1     -12.106 -12.383  18.006  0.00  0.00    +0.002 C 
ATOM     21  C   UNL     1     -11.988 -10.958  20.087  0.00  0.00    +0.002 C 
ATOM     22  C   UNL     1     -12.663 -12.145  19.406  0.00  0.00    +0.000 C 
ENDBRANCH   7  17
ENDBRANCH   4  23
ENDBRANCH  14   4
TORSDOF 6
ENDMDL
MODEL 9
REMARK VINA RESULT:      -6.6     29.464     32.621
REMARK  Name = 11885997
REMARK  6 active torsions:
REMARK  status: ('A' for Active; 'I' for Inactive)
REMARK    1  A    between atoms: S_1  and  C_24
REMARK    2  A    between atoms: S_1  and  C_25
REMARK    3  A    between atoms: O_4  and  C_14
REMARK    4  A    between atoms: O_4  and  C_23
REMARK    5  A    between atoms: N_6  and  C_13
REMARK    6  A    between atoms: N_7  and  C_17
REMARK                            x       y       z     vdW  Elec       q    Type
REMARK                         _______ _______ _______ _____ _____    ______ ____
ROOT
ATOM      2  O   UNL     1     -11.575  -8.669  14.771  0.00  0.00    -0.368 OA
ATOM      3  O   UNL     1     -11.031  -5.921  16.080  0.00  0.00    -0.368 OA
ATOM     11  C   UNL     1     -11.155  -7.252  16.632  0.00  0.00    +0.177 C 
ATOM     12  C   UNL     1     -12.232  -7.958  15.833  0.00  0.00    +0.192 C 
ATOM     13  C   UNL     1      -9.891  -8.039  16.346  0.00  0.00    +0.168 C 
ATOM     14  C   UNL     1     -13.062  -6.811  15.305  0.00  0.00    +0.235 C 
ATOM     15  C   UNL     1     -10.153  -8.601  14.952  0.00  0.00    +0.190 C 
ATOM     16  C   UNL     1     -12.014  -5.752  15.050  0.00  0.00    +0.207 C 
ENDROOT
BRANCH  13   6
ATOM      6  N   UNL     1      -9.604  -9.035  17.381  0.00  0.00    -0.212 N 
ATOM      8  N   UNL     1     -10.554  -9.387  18.254  0.00  0.00    -0.043 NA
ATOM      9  N   UNL     1      -8.668 -10.504  18.663  0.00  0.00    -0.101 NA
ATOM     10  N   UNL     1      -9.974 -10.289  19.039  0.00  0.00    -0.022 NA
ATOM     24  C   UNL     1      -8.461  -9.717  17.633  0.00  0.00    +0.214 A 
BRANCH  24   1
ATOM      1  S   UNL     1      -7.013  -9.538  16.722  0.00  0.00    -0.049 S 
BRANCH   1  25
ATOM     25  C   UNL     1      -6.062 -10.899  17.404  0.00  0.00    +0.016 A 
ATOM     26  C   UNL     1      -5.228 -10.674  18.492  0.00  0.00    +0.015 A 
ATOM     27  C   UNL     1      -6.170 -12.163  16.837  0.00  0.00    +0.015 A 
ATOM     28  C   UNL     1      -4.490 -11.732  19.022  0.00  0.00    +0.001 A 
ATOM     29  C   UNL     1      -5.431 -13.220  17.368  0.00  0.00    +0.001 A 
ATOM     30  C   UNL     1      -4.591 -13.005  18.459  0.00  0.00    +0.000 A 
ENDBRANCH   1  25
ENDBRANCH  24   1
ENDBRANCH  13   6
BRANCH  14   4
ATOM      4  O   UNL     1     -13.791  -7.130  14.143  0.00  0.00    -0.442 OA
BRANCH   4  23
ATOM      5  O   UNL     1     -15.349  -5.452  13.963  0.00  0.00    -0.226 OA
ATOM      7  N   UNL     1     -13.775  -5.842  12.304  0.00  0.00    -0.278 N 
ATOM     23  C   UNL     1     -14.397  -6.080  13.512  0.00  0.00    +0.401 C 
ATOM     31  H   UNL     1     -13.024  -6.470  12.034  0.00  0.00    +0.152 HD
BRANCH   7  17
ATOM     17  C   UNL     1     -14.173  -4.796  11.388  0.00  0.00    +0.076 C 
ATOM     18  C   UNL     1     -13.601  -3.441  11.818  0.00  0.00    +0.022 C 
ATOM     19  C   UNL     1     -13.769  -5.140   9.951  0.00  0.00    +0.022 C 
ATOM     20  C   UNL     1     -12.092  -3.346  11.592  0.00  0.00    +0.002 C 
ATOM     21  C   UNL     1     -12.260  -5.041   9.728  0.00  0.00    +0.002 C 
ATOM     22  C   UNL     1     -11.716  -3.680  10.152  0.00  0.00    +0.000 C 
ENDBRANCH   7  17
ENDBRANCH   4  23
ENDBRANCH  14   4
TORSDOF 6
ENDMDL
MODEL 10
REMARK VINA RESULT:      -6.6     27.506     29.996
REMARK  Name = 11885997
REMARK  6 active torsions:
REMARK  status: ('A' for Active; 'I' for Inactive)
REMARK    1  A    between atoms: S_1  and  C_24
REMARK    2  A    between atoms: S_1  and  C_25
REMARK    3  A    between atoms: O_4  and  C_14
REMARK    4  A    between atoms: O_4  and  C_23
REMARK    5  A    between atoms: N_6  and  C_13
REMARK    6  A    between atoms: N_7  and  C_17
REMARK                            x       y       z     vdW  Elec       q    Type
REMARK                         _______ _______ _______ _____ _____    ______ ____
ROOT
ATOM      2  O   UNL     1      -6.542 -10.015  16.451  0.00  0.00    -0.368 OA
ATOM      3  O   UNL     1      -5.894 -12.950  17.176  0.00  0.00    -0.368 OA
ATOM     11  C   UNL     1      -6.551 -11.892  17.909  0.00  0.00    +0.177 C 
ATOM     12  C   UNL     1      -5.834 -10.604  17.554  0.00  0.00    +0.192 C 
ATOM     13  C   UNL     1      -7.958 -11.704  17.376  0.00  0.00    +0.168 C 
ATOM     14  C   UNL     1      -4.463 -11.087  17.143  0.00  0.00    +0.235 C 
ATOM     15  C   UNL     1      -7.749 -10.750  16.204  0.00  0.00    +0.190 C 
ATOM     16  C   UNL     1      -4.780 -12.397  16.460  0.00  0.00    +0.207 C 
ENDROOT
BRANCH  13   6
ATOM      6  N   UNL     1      -8.890 -11.237  18.407  0.00  0.00    -0.212 N 
ATOM      8  N   UNL     1      -8.471 -11.077  19.667  0.00  0.00    -0.043 NA
ATOM      9  N   UNL     1     -10.630 -10.549  19.490  0.00  0.00    -0.101 NA
ATOM     10  N   UNL     1      -9.543 -10.655  20.327  0.00  0.00    -0.022 NA
ATOM     24  C   UNL     1     -10.201 -10.914  18.304  0.00  0.00    +0.214 A 
BRANCH  24   1
ATOM      1  S   UNL     1     -11.100 -10.991  16.840  0.00  0.00    -0.049 S 
BRANCH   1  25
ATOM     25  C   UNL     1     -11.400  -9.240  16.583  0.00  0.00    +0.016 A 
ATOM     26  C   UNL     1     -12.672  -8.808  16.230  0.00  0.00    +0.015 A 
ATOM     27  C   UNL     1     -10.358  -8.335  16.739  0.00  0.00    +0.015 A 
ATOM     28  C   UNL     1     -12.905  -7.447  16.030  0.00  0.00    +0.001 A 
ATOM     29  C   UNL     1     -10.592  -6.975  16.540  0.00  0.00    +0.001 A 
ATOM     30  C   UNL     1     -11.864  -6.531  16.185  0.00  0.00    +0.000 A 
ENDBRANCH   1  25
ENDBRANCH  24   1
ENDBRANCH  13   6
BRANCH  14   4
ATOM      4  O   UNL     1      -3.782 -10.194  16.293  0.00  0.00    -0.442 OA
BRANCH   4  23
ATOM      5  O   UNL     1      -1.632 -10.997  16.208  0.00  0.00    -0.226 OA
ATOM      7  N   UNL     1      -2.947 -10.819  14.305  0.00  0.00    -0.278 N 
ATOM     23  C   UNL     1      -2.685 -10.699  15.654  0.00  0.00    +0.401 C 
ATOM     31  H   UNL     1      -3.849 -10.491  13.973  0.00  0.00    +0.152 HD
BRANCH   7  17
ATOM     17  C   UNL     1      -1.992 -11.324  13.343  0.00  0.00    +0.076 C 
ATOM     18  C   UNL     1      -2.448 -12.669  12.768  0.00  0.00    +0.022 C 
ATOM     19  C   UNL     1      -1.738 -10.301  12.231  0.00  0.00    +0.022 C 
ATOM     20  C   UNL     1      -3.638 -12.525  11.818  0.00  0.00    +0.002 C 
ATOM     21  C   UNL     1      -2.929 -10.162  11.281  0.00  0.00    +0.002 C 
ATOM     22  C   UNL     1      -3.357 -11.512  10.713  0.00  0.00    +0.000 C 
ENDBRANCH   7  17
ENDBRANCH   4  23
ENDBRANCH  14   4
TORSDOF 6
ENDMDL
