MODEL 1
REMARK VINA RESULT:      -6.8      0.000      0.000
REMARK  Name = 75536127
REMARK  9 active torsions:
REMARK  status: ('A' for Active; 'I' for Inactive)
REMARK    1  A    between atoms: O_1  and  C_9
REMARK    2  A    between atoms: O_2  and  C_11
REMARK    3  A    between atoms: N_4  and  C_7
REMARK    4  A    between atoms: N_4  and  C_13
REMARK    5  A    between atoms: N_6  and  C_18
REMARK    6  A    between atoms: C_8  and  C_12
REMARK    7  A    between atoms: C_13  and  C_14
REMARK    8  A    between atoms: C_14  and  C_19
REMARK    9  A    between atoms: C_14  and  C_20
REMARK                            x       y       z     vdW  Elec       q    Type
REMARK                         _______ _______ _______ _____ _____    ______ ____
ROOT
ATOM      7  C   UNL     1      13.348   7.481  18.286  0.00  0.00    +0.092 C 
ATOM      8  C   UNL     1      14.156   8.405  19.249  0.00  0.00    +0.042 C 
ATOM      9  C   UNL     1      13.056   8.347  17.051  0.00  0.00    +0.160 C 
ATOM     10  C   UNL     1      14.275   9.762  18.529  0.00  0.00    +0.043 C 
ATOM     11  C   UNL     1      13.080   9.775  17.588  0.00  0.00    +0.145 C 
ENDROOT
BRANCH   8  12
ATOM      5  N   UNL     1      17.504   8.056  20.998  0.00  0.00    -0.240 NA
ATOM     12  C   UNL     1      15.493   7.835  19.673  0.00  0.00    -0.024 A 
ATOM     15  C   UNL     1      15.951   6.625  19.165  0.00  0.00    +0.009 A 
ATOM     16  C   UNL     1      16.300   8.506  20.579  0.00  0.00    +0.116 A 
ATOM     17  C   UNL     1      17.185   6.128  19.573  0.00  0.00    +0.044 A 
ATOM     18  C   UNL     1      17.916   6.875  20.483  0.00  0.00    +0.121 A 
BRANCH  18   6
ATOM      3  O   UNL     1      21.508   5.123  21.792  0.00  0.00    -0.377 OA
ATOM      6  N   UNL     1      19.155   6.364  20.882  0.00  0.00    -0.311 N 
ATOM     21  C   UNL     1      19.627   5.120  20.260  0.00  0.00    +0.134 C 
ATOM     22  C   UNL     1      19.639   6.602  22.247  0.00  0.00    +0.134 C 
ATOM     23  C   UNL     1      21.139   5.006  20.418  0.00  0.00    +0.178 C 
ATOM     24  C   UNL     1      21.150   6.409  22.300  0.00  0.00    +0.178 C 
ENDBRANCH  18   6
ENDBRANCH   8  12
BRANCH   9   1
ATOM      1  O   UNL     1      14.104   8.146  16.103  0.00  0.00    -0.388 OA
ATOM     26  H   UNL     1      13.692   7.860  15.270  0.00  0.00    +0.210 HD
ENDBRANCH   9   1
BRANCH  11   2
ATOM      2  O   UNL     1      13.238  10.737  16.566  0.00  0.00    -0.389 OA
ATOM     27  H   UNL     1      12.364  10.886  16.166  0.00  0.00    +0.210 HD
ENDBRANCH  11   2
BRANCH   7   4
ATOM      4  N   UNL     1      12.092   7.085  18.926  0.00  0.00    -0.310 NA
ATOM     25  H   UNL     1      11.933   6.092  18.757  0.00  0.00    +0.122 HD
BRANCH   4  13
ATOM     13  C   UNL     1      12.142   7.321  20.361  0.00  0.00    +0.084 C 
BRANCH  13  14
ATOM     14  C   UNL     1      10.938   8.134  20.865  0.00  0.00    -0.003 C 
ATOM     19  C   UNL     1      10.346   7.465  22.108  0.00  0.00    +0.008 C 
ATOM     20  C   UNL     1      11.302   9.585  21.188  0.00  0.00    +0.008 C 
ENDBRANCH  13  14
ENDBRANCH   4  13
ENDBRANCH   7   4
TORSDOF 7
ENDMDL
MODEL 2
REMARK VINA RESULT:      -6.4      2.080      2.837
REMARK  Name = 75536127
REMARK  9 active torsions:
REMARK  status: ('A' for Active; 'I' for Inactive)
REMARK    1  A    between atoms: O_1  and  C_9
REMARK    2  A    between atoms: O_2  and  C_11
REMARK    3  A    between atoms: N_4  and  C_7
REMARK    4  A    between atoms: N_4  and  C_13
REMARK    5  A    between atoms: N_6  and  C_18
REMARK    6  A    between atoms: C_8  and  C_12
REMARK    7  A    between atoms: C_13  and  C_14
REMARK    8  A    between atoms: C_14  and  C_19
REMARK    9  A    between atoms: C_14  and  C_20
REMARK                            x       y       z     vdW  Elec       q    Type
REMARK                         _______ _______ _______ _____ _____    ______ ____
ROOT
ATOM      7  C   UNL     1      14.338   8.319  20.988  0.00  0.00    +0.092 C 
ATOM      8  C   UNL     1      15.225   8.130  19.718  0.00  0.00    +0.042 C 
ATOM      9  C   UNL     1      13.036   7.561  20.685  0.00  0.00    +0.160 C 
ATOM     10  C   UNL     1      14.384   7.287  18.740  0.00  0.00    +0.043 C 
ATOM     11  C   UNL     1      12.950   7.572  19.161  0.00  0.00    +0.145 C 
ENDROOT
BRANCH   8  12
ATOM      5  N   UNL     1      18.720   7.701  21.126  0.00  0.00    -0.240 NA
ATOM     12  C   UNL     1      16.587   7.534  20.000  0.00  0.00    -0.024 A 
ATOM     15  C   UNL     1      16.974   6.326  19.430  0.00  0.00    +0.009 A 
ATOM     16  C   UNL     1      17.489   8.176  20.834  0.00  0.00    +0.116 A 
ATOM     17  C   UNL     1      18.233   5.805  19.707  0.00  0.00    +0.044 A 
ATOM     18  C   UNL     1      19.062   6.524  20.554  0.00  0.00    +0.121 A 
BRANCH  18   6
ATOM      3  O   UNL     1      22.932   4.973  21.101  0.00  0.00    -0.377 OA
ATOM      6  N   UNL     1      20.325   5.989  20.822  0.00  0.00    -0.311 N 
ATOM     21  C   UNL     1      21.481   6.895  20.805  0.00  0.00    +0.134 C 
ATOM     22  C   UNL     1      20.619   4.595  20.471  0.00  0.00    +0.134 C 
ATOM     23  C   UNL     1      22.631   6.279  21.594  0.00  0.00    +0.178 C 
ATOM     24  C   UNL     1      21.815   4.100  21.277  0.00  0.00    +0.178 C 
ENDBRANCH  18   6
ENDBRANCH   8  12
BRANCH   9   1
ATOM      1  O   UNL     1      13.168   6.227  21.174  0.00  0.00    -0.388 OA
ATOM     26  H   UNL     1      12.496   5.685  20.726  0.00  0.00    +0.210 HD
ENDBRANCH   9   1
BRANCH  11   2
ATOM      2  O   UNL     1      12.061   6.595  18.661  0.00  0.00    -0.389 OA
ATOM     27  H   UNL     1      12.580   5.977  18.118  0.00  0.00    +0.210 HD
ENDBRANCH  11   2
BRANCH   7   4
ATOM      4  N   UNL     1      14.054   9.743  21.179  0.00  0.00    -0.310 NA
ATOM     25  H   UNL     1      13.425  10.057  20.441  0.00  0.00    +0.122 HD
BRANCH   4  13
ATOM     13  C   UNL     1      13.426   9.979  22.471  0.00  0.00    +0.084 C 
BRANCH  13  14
ATOM     14  C   UNL     1      12.134  10.805  22.354  0.00  0.00    -0.003 C 
ATOM     19  C   UNL     1      12.087  11.502  20.992  0.00  0.00    +0.008 C 
ATOM     20  C   UNL     1      10.874   9.956  22.540  0.00  0.00    +0.008 C 
ENDBRANCH  13  14
ENDBRANCH   4  13
ENDBRANCH   7   4
TORSDOF 7
ENDMDL
MODEL 3
REMARK VINA RESULT:      -6.3     32.008     33.576
REMARK  Name = 75536127
REMARK  9 active torsions:
REMARK  status: ('A' for Active; 'I' for Inactive)
REMARK    1  A    between atoms: O_1  and  C_9
REMARK    2  A    between atoms: O_2  and  C_11
REMARK    3  A    between atoms: N_4  and  C_7
REMARK    4  A    between atoms: N_4  and  C_13
REMARK    5  A    between atoms: N_6  and  C_18
REMARK    6  A    between atoms: C_8  and  C_12
REMARK    7  A    between atoms: C_13  and  C_14
REMARK    8  A    between atoms: C_14  and  C_19
REMARK    9  A    between atoms: C_14  and  C_20
REMARK                            x       y       z     vdW  Elec       q    Type
REMARK                         _______ _______ _______ _____ _____    ______ ____
ROOT
ATOM      7  C   UNL     1     -13.955   1.170  29.576  0.00  0.00    +0.092 C 
ATOM      8  C   UNL     1     -15.471   1.512  29.442  0.00  0.00    +0.042 C 
ATOM      9  C   UNL     1     -13.913  -0.220  30.230  0.00  0.00    +0.160 C 
ATOM     10  C   UNL     1     -16.228   0.310  30.040  0.00  0.00    +0.043 C 
ATOM     11  C   UNL     1     -15.224  -0.301  31.007  0.00  0.00    +0.145 C 
ENDROOT
BRANCH   8  12
ATOM      5  N   UNL     1     -16.142   3.500  26.282  0.00  0.00    -0.240 NA
ATOM     12  C   UNL     1     -15.905   1.847  28.031  0.00  0.00    -0.024 A 
ATOM     15  C   UNL     1     -16.452   0.877  27.198  0.00  0.00    +0.009 A 
ATOM     16  C   UNL     1     -15.773   3.133  27.529  0.00  0.00    +0.116 A 
ATOM     17  C   UNL     1     -16.843   1.216  25.907  0.00  0.00    +0.044 A 
ATOM     18  C   UNL     1     -16.669   2.529  25.501  0.00  0.00    +0.121 A 
BRANCH  18   6
ATOM      3  O   UNL     1     -17.685   3.330  21.500  0.00  0.00    -0.377 OA
ATOM      6  N   UNL     1     -17.068   2.857  24.201  0.00  0.00    -0.311 N 
ATOM     21  C   UNL     1     -17.744   1.826  23.402  0.00  0.00    +0.134 C 
ATOM     22  C   UNL     1     -16.307   3.846  23.430  0.00  0.00    +0.134 C 
ATOM     23  C   UNL     1     -18.533   2.483  22.275  0.00  0.00    +0.178 C 
ATOM     24  C   UNL     1     -17.172   4.395  22.300  0.00  0.00    +0.178 C 
ENDBRANCH  18   6
ENDBRANCH   8  12
BRANCH   9   1
ATOM      1  O   UNL     1     -13.877  -1.203  29.196  0.00  0.00    -0.388 OA
ATOM     26  H   UNL     1     -13.191  -0.933  28.562  0.00  0.00    +0.210 HD
ENDBRANCH   9   1
BRANCH  11   2
ATOM      2  O   UNL     1     -15.574  -1.627  31.345  0.00  0.00    -0.389 OA
ATOM     27  H   UNL     1     -14.878  -1.974  31.930  0.00  0.00    +0.210 HD
ENDBRANCH  11   2
BRANCH   7   4
ATOM      4  N   UNL     1     -13.307   2.151  30.448  0.00  0.00    -0.310 NA
ATOM     25  H   UNL     1     -12.512   2.558  29.955  0.00  0.00    +0.122 HD
BRANCH   4  13
ATOM     13  C   UNL     1     -14.232   3.213  30.815  0.00  0.00    +0.084 C 
BRANCH  13  14
ATOM     14  C   UNL     1     -14.197   3.529  32.320  0.00  0.00    -0.003 C 
ATOM     19  C   UNL     1     -14.265   5.043  32.531  0.00  0.00    +0.008 C 
ATOM     20  C   UNL     1     -15.332   2.851  33.090  0.00  0.00    +0.008 C 
ENDBRANCH  13  14
ENDBRANCH   4  13
ENDBRANCH   7   4
TORSDOF 7
ENDMDL
MODEL 4
REMARK VINA RESULT:      -6.3     14.472     17.574
REMARK  Name = 75536127
REMARK  9 active torsions:
REMARK  status: ('A' for Active; 'I' for Inactive)
REMARK    1  A    between atoms: O_1  and  C_9
REMARK    2  A    between atoms: O_2  and  C_11
REMARK    3  A    between atoms: N_4  and  C_7
REMARK    4  A    between atoms: N_4  and  C_13
REMARK    5  A    between atoms: N_6  and  C_18
REMARK    6  A    between atoms: C_8  and  C_12
REMARK    7  A    between atoms: C_13  and  C_14
REMARK    8  A    between atoms: C_14  and  C_19
REMARK    9  A    between atoms: C_14  and  C_20
REMARK                            x       y       z     vdW  Elec       q    Type
REMARK                         _______ _______ _______ _____ _____    ______ ____
ROOT
ATOM      7  C   UNL     1      10.413   6.571   6.157  0.00  0.00    +0.092 C 
ATOM      8  C   UNL     1      10.029   5.347   5.271  0.00  0.00    +0.042 C 
ATOM      9  C   UNL     1      10.658   5.991   7.559  0.00  0.00    +0.160 C 
ATOM     10  C   UNL     1      10.054   4.124   6.209  0.00  0.00    +0.043 C 
ATOM     11  C   UNL     1       9.810   4.723   7.586  0.00  0.00    +0.145 C 
ENDROOT
BRANCH   8  12
ATOM      5  N   UNL     1      12.578   6.086   2.561  0.00  0.00    -0.240 NA
ATOM     12  C   UNL     1      10.899   5.175   4.044  0.00  0.00    -0.024 A 
ATOM     15  C   UNL     1      10.843   4.015   3.280  0.00  0.00    +0.009 A 
ATOM     16  C   UNL     1      11.775   6.173   3.645  0.00  0.00    +0.116 A 
ATOM     17  C   UNL     1      11.654   3.888   2.158  0.00  0.00    +0.044 A 
ATOM     18  C   UNL     1      12.496   4.942   1.843  0.00  0.00    +0.121 A 
BRANCH  18   6
ATOM      3  O   UNL     1      15.042   4.298  -1.441  0.00  0.00    -0.377 OA
ATOM      6  N   UNL     1      13.305   4.801   0.711  0.00  0.00    -0.311 N 
ATOM     21  C   UNL     1      13.118   3.613  -0.133  0.00  0.00    +0.134 C 
ATOM     22  C   UNL     1      14.660   5.364   0.705  0.00  0.00    +0.134 C 
ATOM     23  C   UNL     1      13.681   3.876  -1.525  0.00  0.00    +0.178 C 
ATOM     24  C   UNL     1      15.142   5.533  -0.732  0.00  0.00    +0.178 C 
ENDBRANCH  18   6
ENDBRANCH   8  12
BRANCH   9   1
ATOM      1  O   UNL     1      12.044   5.675   7.679  0.00  0.00    -0.388 OA
ATOM     26  H   UNL     1      12.145   4.728   7.480  0.00  0.00    +0.210 HD
ENDBRANCH   9   1
BRANCH  11   2
ATOM      2  O   UNL     1      10.196   3.833   8.612  0.00  0.00    -0.389 OA
ATOM     27  H   UNL     1       9.387   3.429   8.970  0.00  0.00    +0.210 HD
ENDBRANCH  11   2
BRANCH   7   4
ATOM      4  N   UNL     1       9.297   7.518   6.196  0.00  0.00    -0.310 NA
ATOM     25  H   UNL     1       9.640   8.445   5.947  0.00  0.00    +0.122 HD
BRANCH   4  13
ATOM     13  C   UNL     1       8.252   7.130   5.260  0.00  0.00    +0.084 C 
BRANCH  13  14
ATOM     14  C   UNL     1       7.949   8.229   4.228  0.00  0.00    -0.003 C 
ATOM     19  C   UNL     1       8.417   9.584   4.766  0.00  0.00    +0.008 C 
ATOM     20  C   UNL     1       8.605   7.960   2.872  0.00  0.00    +0.008 C 
ENDBRANCH  13  14
ENDBRANCH   4  13
ENDBRANCH   7   4
TORSDOF 7
ENDMDL
MODEL 5
REMARK VINA RESULT:      -6.3      2.166      3.551
REMARK  Name = 75536127
REMARK  9 active torsions:
REMARK  status: ('A' for Active; 'I' for Inactive)
REMARK    1  A    between atoms: O_1  and  C_9
REMARK    2  A    between atoms: O_2  and  C_11
REMARK    3  A    between atoms: N_4  and  C_7
REMARK    4  A    between atoms: N_4  and  C_13
REMARK    5  A    between atoms: N_6  and  C_18
REMARK    6  A    between atoms: C_8  and  C_12
REMARK    7  A    between atoms: C_13  and  C_14
REMARK    8  A    between atoms: C_14  and  C_19
REMARK    9  A    between atoms: C_14  and  C_20
REMARK                            x       y       z     vdW  Elec       q    Type
REMARK                         _______ _______ _______ _____ _____    ______ ____
ROOT
ATOM      7  C   UNL     1      13.086   9.407  20.251  0.00  0.00    +0.092 C 
ATOM      8  C   UNL     1      13.555   7.995  19.784  0.00  0.00    +0.042 C 
ATOM      9  C   UNL     1      11.792   9.159  21.043  0.00  0.00    +0.160 C 
ATOM     10  C   UNL     1      12.500   7.004  20.314  0.00  0.00    +0.043 C 
ATOM     11  C   UNL     1      11.249   7.857  20.461  0.00  0.00    +0.145 C 
ENDROOT
BRANCH   8  12
ATOM      5  N   UNL     1      16.851   8.060  21.660  0.00  0.00    -0.240 NA
ATOM     12  C   UNL     1      14.967   7.644  20.203  0.00  0.00    -0.024 A 
ATOM     15  C   UNL     1      15.676   6.636  19.560  0.00  0.00    +0.009 A 
ATOM     16  C   UNL     1      15.594   8.321  21.237  0.00  0.00    +0.116 A 
ATOM     17  C   UNL     1      16.973   6.338  19.967  0.00  0.00    +0.044 A 
ATOM     18  C   UNL     1      17.509   7.072  21.012  0.00  0.00    +0.121 A 
BRANCH  18   6
ATOM      3  O   UNL     1      21.518   6.368  22.071  0.00  0.00    -0.377 OA
ATOM      6  N   UNL     1      18.814   6.763  21.409  0.00  0.00    -0.311 N 
ATOM     21  C   UNL     1      19.495   7.680  22.333  0.00  0.00    +0.134 C 
ATOM     22  C   UNL     1      19.698   6.019  20.504  0.00  0.00    +0.134 C 
ATOM     23  C   UNL     1      20.639   6.954  23.031  0.00  0.00    +0.178 C 
ATOM     24  C   UNL     1      20.832   5.382  21.299  0.00  0.00    +0.178 C 
ENDBRANCH  18   6
ENDBRANCH   8  12
BRANCH   9   1
ATOM      1  O   UNL     1      12.131   8.994  22.419  0.00  0.00    -0.388 OA
ATOM     26  H   UNL     1      13.091   9.132  22.501  0.00  0.00    +0.210 HD
ENDBRANCH   9   1
BRANCH  11   2
ATOM      2  O   UNL     1      10.299   7.239  21.305  0.00  0.00    -0.389 OA
ATOM     27  H   UNL     1      10.648   7.272  22.212  0.00  0.00    +0.210 HD
ENDBRANCH  11   2
BRANCH   7   4
ATOM      4  N   UNL     1      12.802  10.242  19.082  0.00  0.00    -0.310 NA
ATOM     25  H   UNL     1      12.844  11.223  19.358  0.00  0.00    +0.122 HD
BRANCH   4  13
ATOM     13  C   UNL     1      13.774  10.003  18.025  0.00  0.00    +0.084 C 
BRANCH  13  14
ATOM     14  C   UNL     1      13.108   9.742  16.663  0.00  0.00    -0.003 C 
ATOM     19  C   UNL     1      14.030   8.885  15.793  0.00  0.00    +0.008 C 
ATOM     20  C   UNL     1      11.745   9.059  16.797  0.00  0.00    +0.008 C 
ENDBRANCH  13  14
ENDBRANCH   4  13
ENDBRANCH   7   4
TORSDOF 7
ENDMDL
MODEL 6
REMARK VINA RESULT:      -6.3     15.332     18.743
REMARK  Name = 75536127
REMARK  9 active torsions:
REMARK  status: ('A' for Active; 'I' for Inactive)
REMARK    1  A    between atoms: O_1  and  C_9
REMARK    2  A    between atoms: O_2  and  C_11
REMARK    3  A    between atoms: N_4  and  C_7
REMARK    4  A    between atoms: N_4  and  C_13
REMARK    5  A    between atoms: N_6  and  C_18
REMARK    6  A    between atoms: C_8  and  C_12
REMARK    7  A    between atoms: C_13  and  C_14
REMARK    8  A    between atoms: C_14  and  C_19
REMARK    9  A    between atoms: C_14  and  C_20
REMARK                            x       y       z     vdW  Elec       q    Type
REMARK                         _______ _______ _______ _____ _____    ______ ____
ROOT
ATOM      7  C   UNL     1      13.423   3.556   1.333  0.00  0.00    +0.092 C 
ATOM      8  C   UNL     1      12.981   5.051   1.357  0.00  0.00    +0.042 C 
ATOM      9  C   UNL     1      14.947   3.590   1.136  0.00  0.00    +0.160 C 
ATOM     10  C   UNL     1      14.269   5.874   1.156  0.00  0.00    +0.043 C 
ATOM     11  C   UNL     1      15.196   4.916   0.422  0.00  0.00    +0.145 C 
ENDROOT
BRANCH   8  12
ATOM      5  N   UNL     1      11.845   7.034   4.384  0.00  0.00    -0.240 NA
ATOM     12  C   UNL     1      12.208   5.446   2.597  0.00  0.00    -0.024 A 
ATOM     15  C   UNL     1      11.193   4.639   3.098  0.00  0.00    +0.009 A 
ATOM     16  C   UNL     1      12.493   6.624   3.272  0.00  0.00    +0.116 A 
ATOM     17  C   UNL     1      10.503   5.028   4.241  0.00  0.00    +0.044 A 
ATOM     18  C   UNL     1      10.863   6.224   4.841  0.00  0.00    +0.121 A 
BRANCH  18   6
ATOM      3  O   UNL     1       8.531   7.235   8.191  0.00  0.00    -0.377 OA
ATOM      6  N   UNL     1      10.162   6.602   5.990  0.00  0.00    -0.311 N 
ATOM     21  C   UNL     1       9.700   5.545   6.901  0.00  0.00    +0.134 C 
ATOM     22  C   UNL     1       9.343   7.819   5.980  0.00  0.00    +0.134 C 
ATOM     23  C   UNL     1       9.437   6.135   8.282  0.00  0.00    +0.178 C 
ATOM     24  C   UNL     1       9.097   8.288   7.410  0.00  0.00    +0.178 C 
ENDBRANCH  18   6
ENDBRANCH   8  12
BRANCH   9   1
ATOM      1  O   UNL     1      15.566   3.585   2.421  0.00  0.00    -0.388 OA
ATOM     26  H   UNL     1      15.009   4.117   3.015  0.00  0.00    +0.210 HD
ENDBRANCH   9   1
BRANCH  11   2
ATOM      2  O   UNL     1      16.542   5.334   0.507  0.00  0.00    -0.389 OA
ATOM     27  H   UNL     1      16.615   6.184   0.040  0.00  0.00    +0.210 HD
ENDBRANCH  11   2
BRANCH   7   4
ATOM      4  N   UNL     1      12.789   2.876   0.201  0.00  0.00    -0.310 NA
ATOM     25  H   UNL     1      12.251   2.083   0.550  0.00  0.00    +0.122 HD
BRANCH   4  13
ATOM     13  C   UNL     1      11.899   3.776  -0.515  0.00  0.00    +0.084 C 
BRANCH  13  14
ATOM     14  C   UNL     1      11.957   3.573  -2.039  0.00  0.00    -0.003 C 
ATOM     19  C   UNL     1      13.258   4.162  -2.589  0.00  0.00    +0.008 C 
ATOM     20  C   UNL     1      11.850   2.100  -2.439  0.00  0.00    +0.008 C 
ENDBRANCH  13  14
ENDBRANCH   4  13
ENDBRANCH   7   4
TORSDOF 7
ENDMDL
MODEL 7
REMARK VINA RESULT:      -6.2      1.988      2.625
REMARK  Name = 75536127
REMARK  9 active torsions:
REMARK  status: ('A' for Active; 'I' for Inactive)
REMARK    1  A    between atoms: O_1  and  C_9
REMARK    2  A    between atoms: O_2  and  C_11
REMARK    3  A    between atoms: N_4  and  C_7
REMARK    4  A    between atoms: N_4  and  C_13
REMARK    5  A    between atoms: N_6  and  C_18
REMARK    6  A    between atoms: C_8  and  C_12
REMARK    7  A    between atoms: C_13  and  C_14
REMARK    8  A    between atoms: C_14  and  C_19
REMARK    9  A    between atoms: C_14  and  C_20
REMARK                            x       y       z     vdW  Elec       q    Type
REMARK                         _______ _______ _______ _____ _____    ______ ____
ROOT
ATOM      7  C   UNL     1      13.049   8.286  20.410  0.00  0.00    +0.092 C 
ATOM      8  C   UNL     1      14.201   8.513  19.383  0.00  0.00    +0.042 C 
ATOM      9  C   UNL     1      11.948   7.557  19.624  0.00  0.00    +0.160 C 
ATOM     10  C   UNL     1      13.701   7.919  18.052  0.00  0.00    +0.043 C 
ATOM     11  C   UNL     1      12.185   7.981  18.178  0.00  0.00    +0.145 C 
ENDROOT
BRANCH   8  12
ATOM      5  N   UNL     1      17.205   6.212  19.640  0.00  0.00    -0.240 NA
ATOM     12  C   UNL     1      15.537   7.954  19.821  0.00  0.00    -0.024 A 
ATOM     15  C   UNL     1      16.314   8.610  20.769  0.00  0.00    +0.009 A 
ATOM     16  C   UNL     1      16.023   6.768  19.292  0.00  0.00    +0.116 A 
ATOM     17  C   UNL     1      17.537   8.069  21.152  0.00  0.00    +0.044 A 
ATOM     18  C   UNL     1      17.934   6.879  20.564  0.00  0.00    +0.121 A 
BRANCH  18   6
ATOM      3  O   UNL     1      21.497   5.061  21.858  0.00  0.00    -0.377 OA
ATOM      6  N   UNL     1      19.164   6.347  20.960  0.00  0.00    -0.311 N 
ATOM     21  C   UNL     1      19.624   5.108  20.318  0.00  0.00    +0.134 C 
ATOM     22  C   UNL     1      19.644   6.555  22.331  0.00  0.00    +0.134 C 
ATOM     23  C   UNL     1      21.134   4.973  20.481  0.00  0.00    +0.178 C 
ATOM     24  C   UNL     1      21.153   6.342  22.387  0.00  0.00    +0.178 C 
ENDBRANCH  18   6
ENDBRANCH   8  12
BRANCH   9   1
ATOM      1  O   UNL     1      12.143   6.152  19.776  0.00  0.00    -0.388 OA
ATOM     26  H   UNL     1      12.362   5.791  18.900  0.00  0.00    +0.210 HD
ENDBRANCH   9   1
BRANCH  11   2
ATOM      2  O   UNL     1      11.555   7.124  17.249  0.00  0.00    -0.389 OA
ATOM     27  H   UNL     1      11.617   6.218  17.598  0.00  0.00    +0.210 HD
ENDBRANCH  11   2
BRANCH   7   4
ATOM      4  N   UNL     1      12.551   9.580  20.882  0.00  0.00    -0.310 NA
ATOM     25  H   UNL     1      11.532   9.568  20.867  0.00  0.00    +0.122 HD
BRANCH   4  13
ATOM     13  C   UNL     1      13.003   9.848  22.239  0.00  0.00    +0.084 C 
BRANCH  13  14
ATOM     14  C   UNL     1      13.221  11.348  22.502  0.00  0.00    -0.003 C 
ATOM     19  C   UNL     1      12.167  11.858  23.487  0.00  0.00    +0.008 C 
ATOM     20  C   UNL     1      14.620  11.653  23.041  0.00  0.00    +0.008 C 
ENDBRANCH  13  14
ENDBRANCH   4  13
ENDBRANCH   7   4
TORSDOF 7
ENDMDL
MODEL 8
REMARK VINA RESULT:      -5.8     13.729     16.894
REMARK  Name = 75536127
REMARK  9 active torsions:
REMARK  status: ('A' for Active; 'I' for Inactive)
REMARK    1  A    between atoms: O_1  and  C_9
REMARK    2  A    between atoms: O_2  and  C_11
REMARK    3  A    between atoms: N_4  and  C_7
REMARK    4  A    between atoms: N_4  and  C_13
REMARK    5  A    between atoms: N_6  and  C_18
REMARK    6  A    between atoms: C_8  and  C_12
REMARK    7  A    between atoms: C_13  and  C_14
REMARK    8  A    between atoms: C_14  and  C_19
REMARK    9  A    between atoms: C_14  and  C_20
REMARK                            x       y       z     vdW  Elec       q    Type
REMARK                         _______ _______ _______ _____ _____    ______ ____
ROOT
ATOM      7  C   UNL     1      10.334   6.650   6.535  0.00  0.00    +0.092 C 
ATOM      8  C   UNL     1       9.940   5.483   5.577  0.00  0.00    +0.042 C 
ATOM      9  C   UNL     1      10.583   5.983   7.898  0.00  0.00    +0.160 C 
ATOM     10  C   UNL     1       9.965   4.205   6.437  0.00  0.00    +0.043 C 
ATOM     11  C   UNL     1       9.730   4.719   7.850  0.00  0.00    +0.145 C 
ENDROOT
BRANCH   8  12
ATOM      5  N   UNL     1      12.487   6.375   2.911  0.00  0.00    -0.240 NA
ATOM     12  C   UNL     1      10.804   5.385   4.338  0.00  0.00    -0.024 A 
ATOM     15  C   UNL     1      10.732   4.279   3.498  0.00  0.00    +0.009 A 
ATOM     16  C   UNL     1      11.690   6.397   4.003  0.00  0.00    +0.116 A 
ATOM     17  C   UNL     1      11.537   4.219   2.366  0.00  0.00    +0.044 A 
ATOM     18  C   UNL     1      12.390   5.283   2.119  0.00  0.00    +0.121 A 
BRANCH  18   6
ATOM      3  O   UNL     1      14.572   5.036  -1.467  0.00  0.00    -0.377 OA
ATOM      6  N   UNL     1      13.193   5.210   0.976  0.00  0.00    -0.311 N 
ATOM     21  C   UNL     1      13.101   6.297  -0.007  0.00  0.00    +0.134 C 
ATOM     22  C   UNL     1      13.566   3.901   0.427  0.00  0.00    +0.134 C 
ATOM     23  C   UNL     1      14.357   6.316  -0.872  0.00  0.00    +0.178 C 
ATOM     24  C   UNL     1      14.796   4.047  -0.462  0.00  0.00    +0.178 C 
ENDBRANCH  18   6
ENDBRANCH   8  12
BRANCH   9   1
ATOM      1  O   UNL     1      11.969   5.654   7.991  0.00  0.00    -0.388 OA
ATOM     26  H   UNL     1      12.062   4.984   8.689  0.00  0.00    +0.210 HD
ENDBRANCH   9   1
BRANCH  11   2
ATOM      2  O   UNL     1      10.118   3.765   8.818  0.00  0.00    -0.389 OA
ATOM     27  H   UNL     1       9.392   3.123   8.904  0.00  0.00    +0.210 HD
ENDBRANCH  11   2
BRANCH   7   4
ATOM      4  N   UNL     1       9.221   7.595   6.639  0.00  0.00    -0.310 NA
ATOM     25  H   UNL     1       8.343   7.081   6.582  0.00  0.00    +0.122 HD
BRANCH   4  13
ATOM     13  C   UNL     1       9.268   8.317   7.902  0.00  0.00    +0.084 C 
BRANCH  13  14
ATOM     14  C   UNL     1       9.858   9.730   7.751  0.00  0.00    -0.003 C 
ATOM     19  C   UNL     1       9.390  10.346   6.430  0.00  0.00    +0.008 C 
ATOM     20  C   UNL     1       9.480  10.652   8.912  0.00  0.00    +0.008 C 
ENDBRANCH  13  14
ENDBRANCH   4  13
ENDBRANCH   7   4
TORSDOF 7
ENDMDL
MODEL 9
REMARK VINA RESULT:      -5.6     13.172     16.401
REMARK  Name = 75536127
REMARK  9 active torsions:
REMARK  status: ('A' for Active; 'I' for Inactive)
REMARK    1  A    between atoms: O_1  and  C_9
REMARK    2  A    between atoms: O_2  and  C_11
REMARK    3  A    between atoms: N_4  and  C_7
REMARK    4  A    between atoms: N_4  and  C_13
REMARK    5  A    between atoms: N_6  and  C_18
REMARK    6  A    between atoms: C_8  and  C_12
REMARK    7  A    between atoms: C_13  and  C_14
REMARK    8  A    between atoms: C_14  and  C_19
REMARK    9  A    between atoms: C_14  and  C_20
REMARK                            x       y       z     vdW  Elec       q    Type
REMARK                         _______ _______ _______ _____ _____    ______ ____
ROOT
ATOM      7  C   UNL     1       9.251   7.903   6.753  0.00  0.00    +0.092 C 
ATOM      8  C   UNL     1      10.728   7.420   6.612  0.00  0.00    +0.042 C 
ATOM      9  C   UNL     1       9.346   9.419   6.987  0.00  0.00    +0.160 C 
ATOM     10  C   UNL     1      11.601   8.678   6.788  0.00  0.00    +0.043 C 
ATOM     11  C   UNL     1      10.725   9.610   7.611  0.00  0.00    +0.145 C 
ENDROOT
BRANCH   8  12
ATOM      5  N   UNL     1      12.247   6.526   3.253  0.00  0.00    -0.240 NA
ATOM     12  C   UNL     1      11.012   6.672   5.327  0.00  0.00    -0.024 A 
ATOM     15  C   UNL     1      10.341   5.494   5.019  0.00  0.00    +0.009 A 
ATOM     16  C   UNL     1      11.948   7.142   4.418  0.00  0.00    +0.116 A 
ATOM     17  C   UNL     1      10.622   4.831   3.829  0.00  0.00    +0.044 A 
ATOM     18  C   UNL     1      11.575   5.382   2.988  0.00  0.00    +0.121 A 
BRANCH  18   6
ATOM      3  O   UNL     1      12.222   3.146  -0.514  0.00  0.00    -0.377 OA
ATOM      6  N   UNL     1      11.847   4.705   1.795  0.00  0.00    -0.311 N 
ATOM     21  C   UNL     1      10.751   4.528   0.833  0.00  0.00    +0.134 C 
ATOM     22  C   UNL     1      12.881   3.665   1.764  0.00  0.00    +0.134 C 
ATOM     23  C   UNL     1      11.323   4.255  -0.554  0.00  0.00    +0.178 C 
ATOM     24  C   UNL     1      13.339   3.436   0.327  0.00  0.00    +0.178 C 
ENDBRANCH  18   6
ENDBRANCH   8  12
BRANCH   9   1
ATOM      1  O   UNL     1       9.269  10.075   5.721  0.00  0.00    -0.388 OA
ATOM     26  H   UNL     1       8.760  10.894   5.849  0.00  0.00    +0.210 HD
ENDBRANCH   9   1
BRANCH  11   2
ATOM      2  O   UNL     1      11.177  10.947   7.532  0.00  0.00    -0.389 OA
ATOM     27  H   UNL     1      12.113  10.955   7.796  0.00  0.00    +0.210 HD
ENDBRANCH  11   2
BRANCH   7   4
ATOM      4  N   UNL     1       8.633   7.258   7.913  0.00  0.00    -0.310 NA
ATOM     25  H   UNL     1       7.847   6.691   7.596  0.00  0.00    +0.122 HD
BRANCH   4  13
ATOM     13  C   UNL     1       9.588   6.403   8.603  0.00  0.00    +0.084 C 
BRANCH  13  14
ATOM     14  C   UNL     1       9.025   4.999   8.883  0.00  0.00    -0.003 C 
ATOM     19  C   UNL     1       9.878   3.949   8.168  0.00  0.00    +0.008 C 
ATOM     20  C   UNL     1       8.961   4.679  10.378  0.00  0.00    +0.008 C 
ENDBRANCH  13  14
ENDBRANCH   4  13
ENDBRANCH   7   4
TORSDOF 7
ENDMDL
MODEL 10
REMARK VINA RESULT:      -5.6     32.055     33.495
REMARK  Name = 75536127
REMARK  9 active torsions:
REMARK  status: ('A' for Active; 'I' for Inactive)
REMARK    1  A    between atoms: O_1  and  C_9
REMARK    2  A    between atoms: O_2  and  C_11
REMARK    3  A    between atoms: N_4  and  C_7
REMARK    4  A    between atoms: N_4  and  C_13
REMARK    5  A    between atoms: N_6  and  C_18
REMARK    6  A    between atoms: C_8  and  C_12
REMARK    7  A    between atoms: C_13  and  C_14
REMARK    8  A    between atoms: C_14  and  C_19
REMARK    9  A    between atoms: C_14  and  C_20
REMARK                            x       y       z     vdW  Elec       q    Type
REMARK                         _______ _______ _______ _____ _____    ______ ____
ROOT
ATOM      7  C   UNL     1     -14.849   2.963  30.686  0.00  0.00    +0.092 C 
ATOM      8  C   UNL     1     -16.129   2.485  29.934  0.00  0.00    +0.042 C 
ATOM      9  C   UNL     1     -14.037   1.684  30.949  0.00  0.00    +0.160 C 
ATOM     10  C   UNL     1     -16.000   0.954  29.814  0.00  0.00    +0.043 C 
ATOM     11  C   UNL     1     -15.089   0.579  30.973  0.00  0.00    +0.145 C 
ENDROOT
BRANCH   8  12
ATOM      5  N   UNL     1     -16.167   3.110  26.193  0.00  0.00    -0.240 NA
ATOM     12  C   UNL     1     -16.354   3.171  28.603  0.00  0.00    -0.024 A 
ATOM     15  C   UNL     1     -16.921   4.438  28.535  0.00  0.00    +0.009 A 
ATOM     16  C   UNL     1     -15.997   2.555  27.413  0.00  0.00    +0.116 A 
ATOM     17  C   UNL     1     -17.113   5.042  27.297  0.00  0.00    +0.044 A 
ATOM     18  C   UNL     1     -16.723   4.343  26.166  0.00  0.00    +0.121 A 
BRANCH  18   6
ATOM      3  O   UNL     1     -17.124   6.393  22.517  0.00  0.00    -0.377 OA
ATOM      6  N   UNL     1     -16.921   4.963  24.928  0.00  0.00    -0.311 N 
ATOM     21  C   UNL     1     -15.817   4.946  23.959  0.00  0.00    +0.134 C 
ATOM     22  C   UNL     1     -17.827   6.112  24.822  0.00  0.00    +0.134 C 
ATOM     23  C   UNL     1     -16.360   5.188  22.555  0.00  0.00    +0.178 C 
ATOM     24  C   UNL     1     -18.263   6.294  23.373  0.00  0.00    +0.178 C 
ENDBRANCH  18   6
ENDBRANCH   8  12
BRANCH   9   1
ATOM      1  O   UNL     1     -13.132   1.496  29.862  0.00  0.00    -0.388 OA
ATOM     26  H   UNL     1     -12.257   1.303  30.242  0.00  0.00    +0.210 HD
ENDBRANCH   9   1
BRANCH  11   2
ATOM      2  O   UNL     1     -14.530  -0.706  30.796  0.00  0.00    -0.389 OA
ATOM     27  H   UNL     1     -13.905  -0.654  30.053  0.00  0.00    +0.210 HD
ENDBRANCH  11   2
BRANCH   7   4
ATOM      4  N   UNL     1     -15.230   3.581  31.958  0.00  0.00    -0.310 NA
ATOM     25  H   UNL     1     -14.676   3.166  32.707  0.00  0.00    +0.122 HD
BRANCH   4  13
ATOM     13  C   UNL     1     -14.992   5.017  31.930  0.00  0.00    +0.084 C 
BRANCH  13  14
ATOM     14  C   UNL     1     -13.938   5.459  32.959  0.00  0.00    -0.003 C 
ATOM     19  C   UNL     1     -13.784   6.981  32.920  0.00  0.00    +0.008 C 
ATOM     20  C   UNL     1     -14.284   5.013  34.382  0.00  0.00    +0.008 C 
ENDBRANCH  13  14
ENDBRANCH   4  13
ENDBRANCH   7   4
TORSDOF 7
ENDMDL
