MODEL 1
REMARK VINA RESULT:      -6.8      0.000      0.000
REMARK  Name = 11883074
REMARK  9 active torsions:
REMARK  status: ('A' for Active; 'I' for Inactive)
REMARK    1  A    between atoms: O_2  and  C_17
REMARK    2  A    between atoms: O_3  and  C_22
REMARK    3  A    between atoms: C_12  and  C_20
REMARK    4  A    between atoms: C_14  and  C_22
REMARK    5  A    between atoms: C_14  and  C_23
REMARK    6  A    between atoms: C_15  and  C_25
REMARK    7  A    between atoms: C_25  and  C_26
REMARK    8  A    between atoms: C_32  and  C_34
REMARK    9  A    between atoms: C_33  and  C_35
REMARK                            x       y       z     vdW  Elec       q    Type
REMARK                         _______ _______ _______ _____ _____    ______ ____
ROOT
ATOM      1  S   UNL     1      -4.026  -9.582   9.891  0.00  0.00    -0.057 S 
ATOM      5  O   UNL     1      -8.521  -8.899   9.057  0.00  0.00    -0.266 OA
ATOM      8  N   UNL     1      -6.402  -9.665  10.910  0.00  0.00    -0.229 NA
ATOM     10  N   UNL     1      -6.231  -8.982   8.605  0.00  0.00    -0.258 N 
ATOM     12  C   UNL     1      -4.844 -11.199  14.087  0.00  0.00    -0.019 C 
ATOM     13  C   UNL     1      -3.470 -10.420  13.883  0.00  0.00    +0.011 C 
ATOM     14  C   UNL     1      -2.302 -10.756  14.889  0.00  0.00    +0.021 C 
ATOM     15  C   UNL     1      -5.979 -10.412  13.283  0.00  0.00    +0.054 C 
ATOM     16  C   UNL     1      -5.220 -11.195  15.592  0.00  0.00    +0.010 C 
ATOM     17  C   UNL     1      -2.860 -10.757  16.341  0.00  0.00    +0.123 C 
ATOM     18  C   UNL     1      -3.031 -10.421  12.390  0.00  0.00    +0.049 C 
ATOM     19  C   UNL     1      -4.092 -11.638  16.510  0.00  0.00    +0.032 C 
ATOM     20  C   UNL     1      -4.784 -12.665  13.593  0.00  0.00    +0.012 C 
ATOM     21  C   UNL     1      -5.513 -10.059  11.893  0.00  0.00    +0.058 A 
ATOM     23  C   UNL     1      -1.226  -9.637  14.807  0.00  0.00    +0.016 C 
ATOM     24  C   UNL     1      -4.184 -10.052  11.520  0.00  0.00    +0.015 A 
ATOM     27  C   UNL     1      -5.731  -9.397   9.811  0.00  0.00    +0.165 A 
ATOM     33  C   UNL     1      -7.585  -8.752   8.275  0.00  0.00    +0.285 C 
ATOM     41  H   UNL     1      -5.534  -8.837   7.879  0.00  0.00    +0.157 HD
ENDROOT
BRANCH  33  35
ATOM      7  O   UNL     1      -6.975  -8.821   5.927  0.00  0.00    -0.458 OA
ATOM     35  C   UNL     1      -7.828  -8.355   6.877  0.00  0.00    +0.189 A 
ATOM     36  C   UNL     1      -8.798  -7.564   6.308  0.00  0.00    +0.054 A 
ATOM     37  C   UNL     1      -8.525  -7.542   4.920  0.00  0.00    +0.042 A 
ATOM     38  C   UNL     1      -7.405  -8.321   4.739  0.00  0.00    +0.196 A 
ENDBRANCH  33  35
BRANCH  17   2
ATOM      2  O   UNL     1      -1.858 -11.183  17.264  0.00  0.00    -0.391 OA
ATOM     39  H   UNL     1      -1.163 -11.637  16.757  0.00  0.00    +0.210 HD
ENDBRANCH  17   2
BRANCH  14  22
ATOM     22  C   UNL     1      -1.554 -12.074  14.586  0.00  0.00    +0.165 C 
BRANCH  22   3
ATOM      3  O   UNL     1      -0.291 -12.007  15.210  0.00  0.00    -0.394 OA
ATOM     40  H   UNL     1      -0.432 -12.137  16.162  0.00  0.00    +0.209 HD
ENDBRANCH  22   3
ENDBRANCH  14  22
BRANCH  15  25
ATOM     25  C   UNL     1      -7.344 -11.113  13.255  0.00  0.00    +0.106 C 
BRANCH  25  26
ATOM      4  O   UNL     1      -8.624  -9.129  13.444  0.00  0.00    -0.276 OA
ATOM      9  N   UNL     1      -9.005 -10.764  15.050  0.00  0.00    -0.301 N 
ATOM     26  C   UNL     1      -8.380 -10.241  13.918  0.00  0.00    +0.216 C 
ATOM     28  C   UNL     1      -8.735 -12.082  15.637  0.00  0.00    +0.108 C 
ATOM     29  C   UNL     1     -10.049  -9.994  15.727  0.00  0.00    +0.108 C 
ATOM     30  C   UNL     1      -8.383 -11.954  17.118  0.00  0.00    +0.032 C 
ATOM     31  C   UNL     1      -9.726  -9.821  17.209  0.00  0.00    +0.032 C 
ATOM     32  C   UNL     1      -9.460 -11.173  17.877  0.00  0.00    +0.078 C 
BRANCH  32  34
ATOM      6  O   UNL     1      -7.978 -11.407  19.736  0.00  0.00    -0.276 OA
ATOM     11  N   UNL     1      -9.927 -10.222  20.038  0.00  0.00    -0.329 N 
ATOM     34  C   UNL     1      -9.031 -10.953  19.295  0.00  0.00    +0.214 C 
ATOM     42  H   UNL     1      -9.746 -10.012  21.014  0.00  0.00    +0.145 HD
ATOM     43  H   UNL     1     -10.798  -9.869  19.652  0.00  0.00    +0.145 HD
ENDBRANCH  32  34
ENDBRANCH  25  26
ENDBRANCH  15  25
TORSDOF 7
ENDMDL
MODEL 2
REMARK VINA RESULT:      -6.7      5.630      8.703
REMARK  Name = 11883074
REMARK  9 active torsions:
REMARK  status: ('A' for Active; 'I' for Inactive)
REMARK    1  A    between atoms: O_2  and  C_17
REMARK    2  A    between atoms: O_3  and  C_22
REMARK    3  A    between atoms: C_12  and  C_20
REMARK    4  A    between atoms: C_14  and  C_22
REMARK    5  A    between atoms: C_14  and  C_23
REMARK    6  A    between atoms: C_15  and  C_25
REMARK    7  A    between atoms: C_25  and  C_26
REMARK    8  A    between atoms: C_32  and  C_34
REMARK    9  A    between atoms: C_33  and  C_35
REMARK                            x       y       z     vdW  Elec       q    Type
REMARK                         _______ _______ _______ _____ _____    ______ ____
ROOT
ATOM      1  S   UNL     1     -14.149  -8.868  16.807  0.00  0.00    -0.057 S 
ATOM      5  O   UNL     1     -11.235  -6.201  14.407  0.00  0.00    -0.266 OA
ATOM      8  N   UNL     1     -11.662  -8.413  16.260  0.00  0.00    -0.229 NA
ATOM     10  N   UNL     1     -13.287  -6.985  15.198  0.00  0.00    -0.258 N 
ATOM     12  C   UNL     1     -10.730 -11.064  18.900  0.00  0.00    -0.019 C 
ATOM     13  C   UNL     1     -12.057 -11.905  18.637  0.00  0.00    +0.011 C 
ATOM     14  C   UNL     1     -12.315 -13.145  19.577  0.00  0.00    +0.021 C 
ATOM     15  C   UNL     1     -10.450 -10.169  17.606  0.00  0.00    +0.054 C 
ATOM     16  C   UNL     1      -9.534 -12.034  19.092  0.00  0.00    +0.010 C 
ATOM     17  C   UNL     1     -11.008 -13.980  19.696  0.00  0.00    +0.123 C 
ATOM     18  C   UNL     1     -13.294 -10.978  18.469  0.00  0.00    +0.049 C 
ATOM     19  C   UNL     1      -9.797 -13.145  20.096  0.00  0.00    +0.032 C 
ATOM     20  C   UNL     1     -10.834 -10.151  20.146  0.00  0.00    +0.012 C 
ATOM     21  C   UNL     1     -11.706  -9.471  17.148  0.00  0.00    +0.058 A 
ATOM     23  C   UNL     1     -13.390 -14.060  18.925  0.00  0.00    +0.016 C 
ATOM     24  C   UNL     1     -12.972  -9.862  17.533  0.00  0.00    +0.015 A 
ATOM     27  C   UNL     1     -12.890  -8.010  16.015  0.00  0.00    +0.165 A 
ATOM     33  C   UNL     1     -12.462  -6.130  14.435  0.00  0.00    +0.285 C 
ATOM     41  H   UNL     1     -14.293  -6.836  15.155  0.00  0.00    +0.157 HD
ENDROOT
BRANCH  33  35
ATOM      7  O   UNL     1     -14.531  -5.063  13.749  0.00  0.00    -0.458 OA
ATOM     35  C   UNL     1     -13.173  -5.082  13.683  0.00  0.00    +0.189 A 
ATOM     36  C   UNL     1     -12.714  -4.061  12.884  0.00  0.00    +0.054 A 
ATOM     37  C   UNL     1     -13.863  -3.370  12.429  0.00  0.00    +0.042 A 
ATOM     38  C   UNL     1     -14.943  -4.019  12.983  0.00  0.00    +0.196 A 
ENDBRANCH  33  35
BRANCH  17   2
ATOM      2  O   UNL     1     -11.170 -15.038  20.641  0.00  0.00    -0.391 OA
ATOM     39  H   UNL     1     -11.183 -14.641  21.529  0.00  0.00    +0.210 HD
ENDBRANCH  17   2
BRANCH  14  22
ATOM     22  C   UNL     1     -12.868 -12.787  20.975  0.00  0.00    +0.165 C 
BRANCH  22   3
ATOM      3  O   UNL     1     -13.746 -13.817  21.369  0.00  0.00    -0.394 OA
ATOM     40  H   UNL     1     -14.384 -13.945  20.647  0.00  0.00    +0.209 HD
ENDBRANCH  22   3
ENDBRANCH  14  22
BRANCH  15  25
ATOM     25  C   UNL     1      -9.282  -9.184  17.752  0.00  0.00    +0.106 C 
BRANCH  25  26
ATOM      4  O   UNL     1      -8.409  -9.737  15.621  0.00  0.00    -0.276 OA
ATOM      9  N   UNL     1      -6.901  -9.732  17.389  0.00  0.00    -0.301 N 
ATOM     26  C   UNL     1      -8.165  -9.575  16.819  0.00  0.00    +0.216 C 
ATOM     28  C   UNL     1      -6.580  -9.545  18.809  0.00  0.00    +0.108 C 
ATOM     29  C   UNL     1      -5.757 -10.072  16.542  0.00  0.00    +0.108 C 
ATOM     30  C   UNL     1      -5.889 -10.784  19.375  0.00  0.00    +0.032 C 
ATOM     31  C   UNL     1      -5.049 -11.321  17.059  0.00  0.00    +0.032 C 
ATOM     32  C   UNL     1      -4.668 -11.169  18.534  0.00  0.00    +0.078 C 
BRANCH  32  34
ATOM      6  O   UNL     1      -3.340 -12.499  20.010  0.00  0.00    -0.276 OA
ATOM     11  N   UNL     1      -4.449 -13.554  18.292  0.00  0.00    -0.329 N 
ATOM     34  C   UNL     1      -4.086 -12.456  19.034  0.00  0.00    +0.214 C 
ATOM     42  H   UNL     1      -4.112 -14.480  18.532  0.00  0.00    +0.145 HD
ATOM     43  H   UNL     1      -5.057 -13.488  17.481  0.00  0.00    +0.145 HD
ENDBRANCH  32  34
ENDBRANCH  25  26
ENDBRANCH  15  25
TORSDOF 7
ENDMDL
MODEL 3
REMARK VINA RESULT:      -6.6     24.107     26.976
REMARK  Name = 11883074
REMARK  9 active torsions:
REMARK  status: ('A' for Active; 'I' for Inactive)
REMARK    1  A    between atoms: O_2  and  C_17
REMARK    2  A    between atoms: O_3  and  C_22
REMARK    3  A    between atoms: C_12  and  C_20
REMARK    4  A    between atoms: C_14  and  C_22
REMARK    5  A    between atoms: C_14  and  C_23
REMARK    6  A    between atoms: C_15  and  C_25
REMARK    7  A    between atoms: C_25  and  C_26
REMARK    8  A    between atoms: C_32  and  C_34
REMARK    9  A    between atoms: C_33  and  C_35
REMARK                            x       y       z     vdW  Elec       q    Type
REMARK                         _______ _______ _______ _____ _____    ______ ____
ROOT
ATOM      1  S   UNL     1       9.995   7.995  -1.107  0.00  0.00    -0.057 S 
ATOM      5  O   UNL     1       8.040   8.889   2.984  0.00  0.00    -0.266 OA
ATOM      8  N   UNL     1      10.197   7.664   1.450  0.00  0.00    -0.229 NA
ATOM     10  N   UNL     1       8.293   8.914   0.663  0.00  0.00    -0.258 N 
ATOM     12  C   UNL     1      13.216   5.360   0.782  0.00  0.00    -0.019 C 
ATOM     13  C   UNL     1      13.634   6.158  -0.531  0.00  0.00    +0.011 C 
ATOM     14  C   UNL     1      14.830   5.570  -1.375  0.00  0.00    +0.021 C 
ATOM     15  C   UNL     1      12.326   6.331   1.687  0.00  0.00    +0.054 C 
ATOM     16  C   UNL     1      14.489   4.978   1.581  0.00  0.00    +0.010 C 
ATOM     17  C   UNL     1      15.999   5.199  -0.418  0.00  0.00    +0.123 C 
ATOM     18  C   UNL     1      12.391   6.538  -1.386  0.00  0.00    +0.049 C 
ATOM     19  C   UNL     1      15.567   4.309   0.742  0.00  0.00    +0.032 C 
ATOM     20  C   UNL     1      12.418   4.069   0.473  0.00  0.00    +0.012 C 
ATOM     21  C   UNL     1      11.274   7.027   0.861  0.00  0.00    +0.058 A 
ATOM     23  C   UNL     1      15.355   6.668  -2.343  0.00  0.00    +0.016 C 
ATOM     24  C   UNL     1      11.332   7.124  -0.514  0.00  0.00    +0.015 A 
ATOM     27  C   UNL     1       9.453   8.202   0.509  0.00  0.00    +0.165 A 
ATOM     33  C   UNL     1       7.637   9.228   1.874  0.00  0.00    +0.285 C 
ATOM     41  H   UNL     1       7.870   9.238  -0.203  0.00  0.00    +0.157 HD
ENDROOT
BRANCH  33  35
ATOM      7  O   UNL     1       5.815  10.505   2.843  0.00  0.00    -0.458 OA
ATOM     35  C   UNL     1       6.373   9.971   1.726  0.00  0.00    +0.189 A 
ATOM     36  C   UNL     1       5.602  10.248   0.621  0.00  0.00    +0.054 A 
ATOM     37  C   UNL     1       4.499  11.001   1.089  0.00  0.00    +0.042 A 
ATOM     38  C   UNL     1       4.674  11.130   2.448  0.00  0.00    +0.196 A 
ENDBRANCH  33  35
BRANCH  17   2
ATOM      2  O   UNL     1      17.047   4.546  -1.134  0.00  0.00    -0.391 OA
ATOM     39  H   UNL     1      17.889   4.945  -0.854  0.00  0.00    +0.210 HD
ENDBRANCH  17   2
BRANCH  14  22
ATOM     22  C   UNL     1      14.453   4.371  -2.273  0.00  0.00    +0.165 C 
BRANCH  22   3
ATOM      3  O   UNL     1      15.214   4.462  -3.456  0.00  0.00    -0.394 OA
ATOM     40  H   UNL     1      14.749   5.071  -4.053  0.00  0.00    +0.209 HD
ENDBRANCH  22   3
ENDBRANCH  14  22
BRANCH  15  25
ATOM     25  C   UNL     1      11.717   5.667   2.928  0.00  0.00    +0.106 C 
BRANCH  25  26
ATOM      4  O   UNL     1      13.058   7.119   4.233  0.00  0.00    -0.276 OA
ATOM      9  N   UNL     1      10.984   6.554   5.114  0.00  0.00    -0.301 N 
ATOM     26  C   UNL     1      11.987   6.514   4.146  0.00  0.00    +0.216 C 
ATOM     28  C   UNL     1       9.701   5.845   5.038  0.00  0.00    +0.108 C 
ATOM     29  C   UNL     1      11.155   7.385   6.307  0.00  0.00    +0.108 C 
ATOM     30  C   UNL     1       9.482   4.987   6.282  0.00  0.00    +0.032 C 
ATOM     31  C   UNL     1      10.968   6.560   7.578  0.00  0.00    +0.032 C 
ATOM     32  C   UNL     1       9.628   5.817   7.561  0.00  0.00    +0.078 C 
BRANCH  32  34
ATOM      6  O   UNL     1       8.850   5.224   9.740  0.00  0.00    -0.276 OA
ATOM     11  N   UNL     1      10.294   3.787   8.670  0.00  0.00    -0.329 N 
ATOM     34  C   UNL     1       9.536   4.930   8.764  0.00  0.00    +0.214 C 
ATOM     42  H   UNL     1      10.314   3.111   9.426  0.00  0.00    +0.145 HD
ATOM     43  H   UNL     1      10.862   3.575   7.855  0.00  0.00    +0.145 HD
ENDBRANCH  32  34
ENDBRANCH  25  26
ENDBRANCH  15  25
TORSDOF 7
ENDMDL
MODEL 4
REMARK VINA RESULT:      -6.4      5.939     11.286
REMARK  Name = 11883074
REMARK  9 active torsions:
REMARK  status: ('A' for Active; 'I' for Inactive)
REMARK    1  A    between atoms: O_2  and  C_17
REMARK    2  A    between atoms: O_3  and  C_22
REMARK    3  A    between atoms: C_12  and  C_20
REMARK    4  A    between atoms: C_14  and  C_22
REMARK    5  A    between atoms: C_14  and  C_23
REMARK    6  A    between atoms: C_15  and  C_25
REMARK    7  A    between atoms: C_25  and  C_26
REMARK    8  A    between atoms: C_32  and  C_34
REMARK    9  A    between atoms: C_33  and  C_35
REMARK                            x       y       z     vdW  Elec       q    Type
REMARK                         _______ _______ _______ _____ _____    ______ ____
ROOT
ATOM      1  S   UNL     1     -10.576 -11.296  19.986  0.00  0.00    -0.057 S 
ATOM      5  O   UNL     1      -7.306  -9.560  17.219  0.00  0.00    -0.266 OA
ATOM      8  N   UNL     1     -10.112  -9.704  18.000  0.00  0.00    -0.229 NA
ATOM     10  N   UNL     1      -8.213 -10.850  18.941  0.00  0.00    -0.258 N 
ATOM     12  C   UNL     1     -13.924  -9.237  17.653  0.00  0.00    -0.019 C 
ATOM     13  C   UNL     1     -14.170  -9.443  19.213  0.00  0.00    +0.011 C 
ATOM     14  C   UNL     1     -15.669  -9.478  19.702  0.00  0.00    +0.021 C 
ATOM     15  C   UNL     1     -12.401  -8.798  17.448  0.00  0.00    +0.054 C 
ATOM     16  C   UNL     1     -14.836  -8.095  17.133  0.00  0.00    +0.010 C 
ATOM     17  C   UNL     1     -16.448  -8.298  19.053  0.00  0.00    +0.123 C 
ATOM     18  C   UNL     1     -13.299 -10.601  19.779  0.00  0.00    +0.049 C 
ATOM     19  C   UNL     1     -16.296  -8.239  17.538  0.00  0.00    +0.032 C 
ATOM     20  C   UNL     1     -14.208 -10.515  16.827  0.00  0.00    +0.012 C 
ATOM     21  C   UNL     1     -11.472  -9.676  18.249  0.00  0.00    +0.058 A 
ATOM     23  C   UNL     1     -15.705  -9.263  21.242  0.00  0.00    +0.016 C 
ATOM     24  C   UNL     1     -11.894 -10.462  19.301  0.00  0.00    +0.015 A 
ATOM     27  C   UNL     1      -9.541 -10.529  18.851  0.00  0.00    +0.165 A 
ATOM     33  C   UNL     1      -7.158 -10.363  18.137  0.00  0.00    +0.285 C 
ATOM     41  H   UNL     1      -7.982 -11.520  19.671  0.00  0.00    +0.157 HD
ENDROOT
BRANCH  33  35
ATOM      7  O   UNL     1      -4.881 -10.870  17.469  0.00  0.00    -0.458 OA
ATOM     35  C   UNL     1      -5.831 -10.928  18.438  0.00  0.00    +0.189 A 
ATOM     36  C   UNL     1      -5.333 -11.535  19.567  0.00  0.00    +0.054 A 
ATOM     37  C   UNL     1      -3.990 -11.872  19.274  0.00  0.00    +0.042 A 
ATOM     38  C   UNL     1      -3.763 -11.447  17.984  0.00  0.00    +0.196 A 
ENDBRANCH  33  35
BRANCH  17   2
ATOM      2  O   UNL     1     -17.837  -8.375  19.373  0.00  0.00    -0.391 OA
ATOM     39  H   UNL     1     -18.175  -7.466  19.444  0.00  0.00    +0.210 HD
ENDBRANCH  17   2
BRANCH  14  22
ATOM     22  C   UNL     1     -16.394 -10.819  19.453  0.00  0.00    +0.165 C 
BRANCH  22   3
ATOM      3  O   UNL     1     -17.210 -11.084  20.572  0.00  0.00    -0.394 OA
ATOM     40  H   UNL     1     -17.032 -11.998  20.849  0.00  0.00    +0.209 HD
ENDBRANCH  22   3
ENDBRANCH  14  22
BRANCH  15  25
ATOM     25  C   UNL     1     -11.957  -8.700  15.983  0.00  0.00    +0.106 C 
BRANCH  25  26
ATOM      4  O   UNL     1     -11.163  -6.507  16.399  0.00  0.00    -0.276 OA
ATOM      9  N   UNL     1     -12.236  -6.852  14.367  0.00  0.00    -0.301 N 
ATOM     26  C   UNL     1     -11.746  -7.254  15.609  0.00  0.00    +0.216 C 
ATOM     28  C   UNL     1     -12.931  -7.718  13.407  0.00  0.00    +0.108 C 
ATOM     29  C   UNL     1     -12.035  -5.474  13.915  0.00  0.00    +0.108 C 
ATOM     30  C   UNL     1     -14.280  -7.117  13.015  0.00  0.00    +0.032 C 
ATOM     31  C   UNL     1     -13.363  -4.826  13.534  0.00  0.00    +0.032 C 
ATOM     32  C   UNL     1     -14.120  -5.679  12.513  0.00  0.00    +0.078 C 
BRANCH  32  34
ATOM      6  O   UNL     1     -15.593  -3.938  11.801  0.00  0.00    -0.276 OA
ATOM     11  N   UNL     1     -16.516  -5.892  12.592  0.00  0.00    -0.329 N 
ATOM     34  C   UNL     1     -15.465  -5.073  12.256  0.00  0.00    +0.214 C 
ATOM     42  H   UNL     1     -17.476  -5.587  12.467  0.00  0.00    +0.145 HD
ATOM     43  H   UNL     1     -16.382  -6.821  12.979  0.00  0.00    +0.145 HD
ENDBRANCH  32  34
ENDBRANCH  25  26
ENDBRANCH  15  25
TORSDOF 7
ENDMDL
MODEL 5
REMARK VINA RESULT:      -6.3      3.871      7.111
REMARK  Name = 11883074
REMARK  9 active torsions:
REMARK  status: ('A' for Active; 'I' for Inactive)
REMARK    1  A    between atoms: O_2  and  C_17
REMARK    2  A    between atoms: O_3  and  C_22
REMARK    3  A    between atoms: C_12  and  C_20
REMARK    4  A    between atoms: C_14  and  C_22
REMARK    5  A    between atoms: C_14  and  C_23
REMARK    6  A    between atoms: C_15  and  C_25
REMARK    7  A    between atoms: C_25  and  C_26
REMARK    8  A    between atoms: C_32  and  C_34
REMARK    9  A    between atoms: C_33  and  C_35
REMARK                            x       y       z     vdW  Elec       q    Type
REMARK                         _______ _______ _______ _____ _____    ______ ____
ROOT
ATOM      1  S   UNL     1     -10.635  -8.326  17.015  0.00  0.00    -0.057 S 
ATOM      5  O   UNL     1     -11.786  -7.714  12.581  0.00  0.00    -0.266 OA
ATOM      8  N   UNL     1     -10.026  -8.917  14.571  0.00  0.00    -0.229 NA
ATOM     10  N   UNL     1     -11.929  -7.475  14.899  0.00  0.00    -0.258 N 
ATOM     12  C   UNL     1      -6.880 -10.693  15.921  0.00  0.00    -0.019 C 
ATOM     13  C   UNL     1      -7.596 -11.091  17.287  0.00  0.00    +0.011 C 
ATOM     14  C   UNL     1      -6.704 -11.792  18.383  0.00  0.00    +0.021 C 
ATOM     15  C   UNL     1      -8.017 -10.421  14.831  0.00  0.00    +0.054 C 
ATOM     16  C   UNL     1      -6.007 -11.878  15.432  0.00  0.00    +0.010 C 
ATOM     17  C   UNL     1      -5.864 -12.918  17.717  0.00  0.00    +0.123 C 
ATOM     18  C   UNL     1      -8.462  -9.922  17.838  0.00  0.00    +0.049 C 
ATOM     19  C   UNL     1      -5.082 -12.443  16.498  0.00  0.00    +0.032 C 
ATOM     20  C   UNL     1      -5.984  -9.437  16.056  0.00  0.00    +0.012 C 
ATOM     21  C   UNL     1      -9.108  -9.545  15.393  0.00  0.00    +0.058 A 
ATOM     23  C   UNL     1      -7.632 -12.467  19.434  0.00  0.00    +0.016 C 
ATOM     24  C   UNL     1      -9.301  -9.350  16.745  0.00  0.00    +0.015 A 
ATOM     27  C   UNL     1     -10.873  -8.241  15.317  0.00  0.00    +0.165 A 
ATOM     33  C   UNL     1     -12.343  -7.242  13.569  0.00  0.00    +0.285 C 
ATOM     41  H   UNL     1     -12.457  -7.029  15.646  0.00  0.00    +0.157 HD
ENDROOT
BRANCH  33  35
ATOM      7  O   UNL     1     -14.708  -6.877  13.168  0.00  0.00    -0.458 OA
ATOM     35  C   UNL     1     -13.491  -6.330  13.423  0.00  0.00    +0.189 A 
ATOM     36  C   UNL     1     -13.583  -4.960  13.498  0.00  0.00    +0.054 A 
ATOM     37  C   UNL     1     -14.945  -4.644  13.274  0.00  0.00    +0.042 A 
ATOM     38  C   UNL     1     -15.588  -5.845  13.078  0.00  0.00    +0.196 A 
ENDBRANCH  33  35
BRANCH  17   2
ATOM      2  O   UNL     1      -4.952 -13.488  18.656  0.00  0.00    -0.391 OA
ATOM     39  H   UNL     1      -4.454 -14.187  18.197  0.00  0.00    +0.210 HD
ENDBRANCH  17   2
BRANCH  14  22
ATOM     22  C   UNL     1      -5.799 -10.831  19.185  0.00  0.00    +0.165 C 
BRANCH  22   3
ATOM      3  O   UNL     1      -5.973 -11.115  20.555  0.00  0.00    -0.394 OA
ATOM     40  H   UNL     1      -5.325 -11.800  20.793  0.00  0.00    +0.209 HD
ENDBRANCH  22   3
ENDBRANCH  14  22
BRANCH  15  25
ATOM     25  C   UNL     1      -7.499  -9.883  13.491  0.00  0.00    +0.106 C 
BRANCH  25  26
ATOM      4  O   UNL     1      -8.149 -11.780  12.231  0.00  0.00    -0.276 OA
ATOM      9  N   UNL     1      -5.913 -11.166  12.098  0.00  0.00    -0.301 N 
ATOM     26  C   UNL     1      -7.225 -11.029  12.551  0.00  0.00    +0.216 C 
ATOM     28  C   UNL     1      -4.793 -10.289  12.461  0.00  0.00    +0.108 C 
ATOM     29  C   UNL     1      -5.575 -12.232  11.153  0.00  0.00    +0.108 C 
ATOM     30  C   UNL     1      -3.627 -11.102  13.019  0.00  0.00    +0.032 C 
ATOM     31  C   UNL     1      -4.426 -13.086  11.683  0.00  0.00    +0.032 C 
ATOM     32  C   UNL     1      -3.219 -12.219  12.053  0.00  0.00    +0.078 C 
BRANCH  32  34
ATOM      6  O   UNL     1      -1.391 -12.645  13.531  0.00  0.00    -0.276 OA
ATOM     11  N   UNL     1      -2.135 -14.364  12.193  0.00  0.00    -0.329 N 
ATOM     34  C   UNL     1      -2.163 -13.078  12.677  0.00  0.00    +0.214 C 
ATOM     42  H   UNL     1      -1.458 -15.036  12.538  0.00  0.00    +0.145 HD
ATOM     43  H   UNL     1      -2.777 -14.691  11.478  0.00  0.00    +0.145 HD
ENDBRANCH  32  34
ENDBRANCH  25  26
ENDBRANCH  15  25
TORSDOF 7
ENDMDL
MODEL 6
REMARK VINA RESULT:      -6.3     18.858     21.607
REMARK  Name = 11883074
REMARK  9 active torsions:
REMARK  status: ('A' for Active; 'I' for Inactive)
REMARK    1  A    between atoms: O_2  and  C_17
REMARK    2  A    between atoms: O_3  and  C_22
REMARK    3  A    between atoms: C_12  and  C_20
REMARK    4  A    between atoms: C_14  and  C_22
REMARK    5  A    between atoms: C_14  and  C_23
REMARK    6  A    between atoms: C_15  and  C_25
REMARK    7  A    between atoms: C_25  and  C_26
REMARK    8  A    between atoms: C_32  and  C_34
REMARK    9  A    between atoms: C_33  and  C_35
REMARK                            x       y       z     vdW  Elec       q    Type
REMARK                         _______ _______ _______ _____ _____    ______ ____
ROOT
ATOM      1  S   UNL     1     -13.013   5.165  22.500  0.00  0.00    -0.057 S 
ATOM      5  O   UNL     1     -17.423   4.006  23.252  0.00  0.00    -0.266 OA
ATOM      8  N   UNL     1     -15.461   5.581  21.777  0.00  0.00    -0.229 NA
ATOM     10  N   UNL     1     -15.106   3.980  23.543  0.00  0.00    -0.258 N 
ATOM     12  C   UNL     1     -14.167   8.396  19.481  0.00  0.00    -0.019 C 
ATOM     13  C   UNL     1     -12.774   7.663  19.236  0.00  0.00    +0.011 C 
ATOM     14  C   UNL     1     -11.691   8.447  18.400  0.00  0.00    +0.021 C 
ATOM     15  C   UNL     1     -15.230   7.294  19.939  0.00  0.00    +0.054 C 
ATOM     16  C   UNL     1     -14.659   9.026  18.151  0.00  0.00    +0.010 C 
ATOM     17  C   UNL     1     -12.360   9.050  17.132  0.00  0.00    +0.123 C 
ATOM     18  C   UNL     1     -12.222   7.039  20.550  0.00  0.00    +0.049 C 
ATOM     19  C   UNL     1     -13.608   9.867  17.442  0.00  0.00    +0.032 C 
ATOM     20  C   UNL     1     -14.081   9.507  20.556  0.00  0.00    +0.012 C 
ATOM     21  C   UNL     1     -14.654   6.396  21.005  0.00  0.00    +0.058 A 
ATOM     23  C   UNL     1     -10.602   7.447  17.917  0.00  0.00    +0.016 C 
ATOM     24  C   UNL     1     -13.300   6.283  21.249  0.00  0.00    +0.015 A 
ATOM     27  C   UNL     1     -14.705   4.893  22.605  0.00  0.00    +0.165 A 
ATOM     33  C   UNL     1     -16.429   3.574  23.830  0.00  0.00    +0.285 C 
ATOM     41  H   UNL     1     -14.354   3.564  24.087  0.00  0.00    +0.157 HD
ENDROOT
BRANCH  33  35
ATOM      7  O   UNL     1     -16.844   1.315  24.613  0.00  0.00    -0.458 OA
ATOM     35  C   UNL     1     -16.559   2.605  24.932  0.00  0.00    +0.189 A 
ATOM     36  C   UNL     1     -16.444   2.751  26.294  0.00  0.00    +0.054 A 
ATOM     37  C   UNL     1     -16.672   1.469  26.849  0.00  0.00    +0.042 A 
ATOM     38  C   UNL     1     -16.912   0.630  25.785  0.00  0.00    +0.196 A 
ENDBRANCH  33  35
BRANCH  17   2
ATOM      2  O   UNL     1     -11.436   9.873  16.419  0.00  0.00    -0.391 OA
ATOM     39  H   UNL     1     -11.755   9.949  15.504  0.00  0.00    +0.210 HD
ENDBRANCH  17   2
BRANCH  14  22
ATOM     22  C   UNL     1     -10.933   9.535  19.192  0.00  0.00    +0.165 C 
BRANCH  22   3
ATOM      3  O   UNL     1      -9.641   9.652  18.639  0.00  0.00    -0.394 OA
ATOM     40  H   UNL     1      -9.690   9.336  17.721  0.00  0.00    +0.209 HD
ENDBRANCH  22   3
ENDBRANCH  14  22
BRANCH  15  25
ATOM     25  C   UNL     1     -16.594   7.858  20.357  0.00  0.00    +0.106 C 
BRANCH  25  26
ATOM      4  O   UNL     1     -18.170   6.146  20.798  0.00  0.00    -0.276 OA
ATOM      9  N   UNL     1     -18.089   6.942  18.617  0.00  0.00    -0.301 N 
ATOM     26  C   UNL     1     -17.688   6.903  19.953  0.00  0.00    +0.216 C 
ATOM     28  C   UNL     1     -17.535   7.832  17.590  0.00  0.00    +0.108 C 
ATOM     29  C   UNL     1     -19.172   6.072  18.156  0.00  0.00    +0.108 C 
ATOM     30  C   UNL     1     -17.054   7.030  16.382  0.00  0.00    +0.032 C 
ATOM     31  C   UNL     1     -18.727   5.234  16.961  0.00  0.00    +0.032 C 
ATOM     32  C   UNL     1     -18.163   6.118  15.846  0.00  0.00    +0.078 C 
BRANCH  32  34
ATOM      6  O   UNL     1     -17.724   5.571  13.562  0.00  0.00    -0.276 OA
ATOM     11  N   UNL     1     -17.053   4.087  15.188  0.00  0.00    -0.329 N 
ATOM     34  C   UNL     1     -17.629   5.254  14.746  0.00  0.00    +0.214 C 
ATOM     42  H   UNL     1     -16.660   3.418  14.533  0.00  0.00    +0.145 HD
ATOM     43  H   UNL     1     -16.999   3.843  16.172  0.00  0.00    +0.145 HD
ENDBRANCH  32  34
ENDBRANCH  25  26
ENDBRANCH  15  25
TORSDOF 7
ENDMDL
MODEL 7
REMARK VINA RESULT:      -6.2     29.216     33.427
REMARK  Name = 11883074
REMARK  9 active torsions:
REMARK  status: ('A' for Active; 'I' for Inactive)
REMARK    1  A    between atoms: O_2  and  C_17
REMARK    2  A    between atoms: O_3  and  C_22
REMARK    3  A    between atoms: C_12  and  C_20
REMARK    4  A    between atoms: C_14  and  C_22
REMARK    5  A    between atoms: C_14  and  C_23
REMARK    6  A    between atoms: C_15  and  C_25
REMARK    7  A    between atoms: C_25  and  C_26
REMARK    8  A    between atoms: C_32  and  C_34
REMARK    9  A    between atoms: C_33  and  C_35
REMARK                            x       y       z     vdW  Elec       q    Type
REMARK                         _______ _______ _______ _____ _____    ______ ____
ROOT
ATOM      1  S   UNL     1      23.543   7.437  21.738  0.00  0.00    -0.057 S 
ATOM      5  O   UNL     1      21.378   3.376  21.306  0.00  0.00    -0.266 OA
ATOM      8  N   UNL     1      21.262   6.291  21.318  0.00  0.00    -0.229 NA
ATOM     10  N   UNL     1      23.162   4.844  21.643  0.00  0.00    -0.258 N 
ATOM     12  C   UNL     1      19.628   9.780  21.469  0.00  0.00    -0.019 C 
ATOM     13  C   UNL     1      20.926  10.499  20.889  0.00  0.00    +0.011 C 
ATOM     14  C   UNL     1      20.901  12.075  20.823  0.00  0.00    +0.021 C 
ATOM     15  C   UNL     1      19.686   8.241  21.043  0.00  0.00    +0.054 C 
ATOM     16  C   UNL     1      18.361  10.415  20.839  0.00  0.00    +0.010 C 
ATOM     17  C   UNL     1      19.549  12.541  20.211  0.00  0.00    +0.123 C 
ATOM     18  C   UNL     1      22.226   9.918  21.515  0.00  0.00    +0.049 C 
ATOM     19  C   UNL     1      18.335  11.934  20.905  0.00  0.00    +0.032 C 
ATOM     20  C   UNL     1      19.522   9.885  23.010  0.00  0.00    +0.012 C 
ATOM     21  C   UNL     1      21.051   7.657  21.304  0.00  0.00    +0.058 A 
ATOM     23  C   UNL     1      22.031  12.559  19.871  0.00  0.00    +0.016 C 
ATOM     24  C   UNL     1      22.180   8.428  21.495  0.00  0.00    +0.015 A 
ATOM     27  C   UNL     1      22.537   6.059  21.545  0.00  0.00    +0.165 A 
ATOM     33  C   UNL     1      22.572   3.566  21.523  0.00  0.00    +0.285 C 
ATOM     41  H   UNL     1      24.161   4.889  21.831  0.00  0.00    +0.157 HD
ENDROOT
BRANCH  33  35
ATOM      7  O   UNL     1      23.667   1.975  22.992  0.00  0.00    -0.458 OA
ATOM     35  C   UNL     1      23.491   2.432  21.725  0.00  0.00    +0.189 A 
ATOM     36  C   UNL     1      24.249   1.703  20.839  0.00  0.00    +0.054 A 
ATOM     37  C   UNL     1      24.935   0.735  21.611  0.00  0.00    +0.042 A 
ATOM     38  C   UNL     1      24.547   0.943  22.915  0.00  0.00    +0.196 A 
ENDBRANCH  33  35
BRANCH  17   2
ATOM      2  O   UNL     1      19.441  13.964  20.256  0.00  0.00    -0.391 OA
ATOM     39  H   UNL     1      19.020  14.201  21.099  0.00  0.00    +0.210 HD
ENDBRANCH  17   2
BRANCH  14  22
ATOM     22  C   UNL     1      21.165  12.777  22.173  0.00  0.00    +0.165 C 
BRANCH  22   3
ATOM      3  O   UNL     1      21.846  13.983  21.907  0.00  0.00    -0.394 OA
ATOM     40  H   UNL     1      21.490  14.339  21.076  0.00  0.00    +0.209 HD
ENDBRANCH  22   3
ENDBRANCH  14  22
BRANCH  15  25
ATOM     25  C   UNL     1      18.577   7.370  21.648  0.00  0.00    +0.106 C 
BRANCH  25  26
ATOM      4  O   UNL     1      18.239   6.083  19.688  0.00  0.00    -0.276 OA
ATOM      9  N   UNL     1      16.363   7.126  20.579  0.00  0.00    -0.301 N 
ATOM     26  C   UNL     1      17.719   6.798  20.548  0.00  0.00    +0.216 C 
ATOM     28  C   UNL     1      15.717   7.973  21.589  0.00  0.00    +0.108 C 
ATOM     29  C   UNL     1      15.458   6.578  19.568  0.00  0.00    +0.108 C 
ATOM     30  C   UNL     1      14.954   9.118  20.926  0.00  0.00    +0.032 C 
ATOM     31  C   UNL     1      14.690   7.693  18.863  0.00  0.00    +0.032 C 
ATOM     32  C   UNL     1      13.974   8.594  19.873  0.00  0.00    +0.078 C 
BRANCH  32  34
ATOM      6  O   UNL     1      13.319   9.812  17.925  0.00  0.00    -0.276 OA
ATOM     11  N   UNL     1      12.793  10.688  19.987  0.00  0.00    -0.329 N 
ATOM     34  C   UNL     1      13.333   9.740  19.152  0.00  0.00    +0.214 C 
ATOM     42  H   UNL     1      12.336  11.513  19.612  0.00  0.00    +0.145 HD
ATOM     43  H   UNL     1      12.830  10.610  20.998  0.00  0.00    +0.145 HD
ENDBRANCH  32  34
ENDBRANCH  25  26
ENDBRANCH  15  25
TORSDOF 7
ENDMDL
MODEL 8
REMARK VINA RESULT:      -6.2     23.353     28.248
REMARK  Name = 11883074
REMARK  9 active torsions:
REMARK  status: ('A' for Active; 'I' for Inactive)
REMARK    1  A    between atoms: O_2  and  C_17
REMARK    2  A    between atoms: O_3  and  C_22
REMARK    3  A    between atoms: C_12  and  C_20
REMARK    4  A    between atoms: C_14  and  C_22
REMARK    5  A    between atoms: C_14  and  C_23
REMARK    6  A    between atoms: C_15  and  C_25
REMARK    7  A    between atoms: C_25  and  C_26
REMARK    8  A    between atoms: C_32  and  C_34
REMARK    9  A    between atoms: C_33  and  C_35
REMARK                            x       y       z     vdW  Elec       q    Type
REMARK                         _______ _______ _______ _____ _____    ______ ____
ROOT
ATOM      1  S   UNL     1      -9.926  -8.759  38.483  0.00  0.00    -0.057 S 
ATOM      5  O   UNL     1      -5.704 -10.598  38.086  0.00  0.00    -0.266 OA
ATOM      8  N   UNL     1      -7.453  -8.554  39.214  0.00  0.00    -0.229 NA
ATOM     10  N   UNL     1      -7.999 -10.366  37.722  0.00  0.00    -0.258 N 
ATOM     12  C   UNL     1      -8.383  -5.250  40.971  0.00  0.00    -0.019 C 
ATOM     13  C   UNL     1      -9.865  -5.742  41.283  0.00  0.00    +0.011 C 
ATOM     14  C   UNL     1     -10.842  -4.693  41.942  0.00  0.00    +0.021 C 
ATOM     15  C   UNL     1      -7.473  -6.543  40.737  0.00  0.00    +0.054 C 
ATOM     16  C   UNL     1      -7.827  -4.477  42.196  0.00  0.00    +0.010 C 
ATOM     17  C   UNL     1     -10.114  -3.980  43.116  0.00  0.00    +0.123 C 
ATOM     18  C   UNL     1     -10.480  -6.498  40.071  0.00  0.00    +0.049 C 
ATOM     19  C   UNL     1      -8.762  -3.398  42.721  0.00  0.00    +0.032 C 
ATOM     20  C   UNL     1      -8.303  -4.332  39.727  0.00  0.00    +0.012 C 
ATOM     21  C   UNL     1      -8.152  -7.522  39.813  0.00  0.00    +0.058 A 
ATOM     23  C   UNL     1     -12.063  -5.447  42.543  0.00  0.00    +0.016 C 
ATOM     24  C   UNL     1      -9.505  -7.495  39.543  0.00  0.00    +0.015 A 
ATOM     27  C   UNL     1      -8.285  -9.264  38.483  0.00  0.00    +0.165 A 
ATOM     33  C   UNL     1      -6.741 -10.985  37.552  0.00  0.00    +0.285 C 
ATOM     41  H   UNL     1      -8.794 -10.764  37.227  0.00  0.00    +0.157 HD
ENDROOT
BRANCH  33  35
ATOM      7  O   UNL     1      -5.931 -13.189  36.937  0.00  0.00    -0.458 OA
ATOM     35  C   UNL     1      -6.729 -12.133  36.629  0.00  0.00    +0.189 A 
ATOM     36  C   UNL     1      -7.402 -12.364  35.451  0.00  0.00    +0.054 A 
ATOM     37  C   UNL     1      -6.991 -13.644  35.008  0.00  0.00    +0.042 A 
ATOM     38  C   UNL     1      -6.095 -14.104  35.946  0.00  0.00    +0.196 A 
ENDBRANCH  33  35
BRANCH  17   2
ATOM      2  O   UNL     1     -10.926  -2.936  43.652  0.00  0.00    -0.391 OA
ATOM     39  H   UNL     1     -10.407  -2.114  43.623  0.00  0.00    +0.210 HD
ENDBRANCH  17   2
BRANCH  14  22
ATOM     22  C   UNL     1     -11.436  -3.663  40.956  0.00  0.00    +0.165 C 
BRANCH  22   3
ATOM      3  O   UNL     1     -12.724  -3.319  41.413  0.00  0.00    -0.394 OA
ATOM     40  H   UNL     1     -12.624  -2.936  42.300  0.00  0.00    +0.209 HD
ENDBRANCH  22   3
ENDBRANCH  14  22
BRANCH  15  25
ATOM     25  C   UNL     1      -6.040  -6.241  40.280  0.00  0.00    +0.106 C 
BRANCH  25  26
ATOM      4  O   UNL     1      -5.486  -7.182  42.382  0.00  0.00    -0.276 OA
ATOM      9  N   UNL     1      -3.706  -6.611  41.002  0.00  0.00    -0.301 N 
ATOM     26  C   UNL     1      -5.060  -6.722  41.320  0.00  0.00    +0.216 C 
ATOM     28  C   UNL     1      -3.171  -6.069  39.747  0.00  0.00    +0.108 C 
ATOM     29  C   UNL     1      -2.694  -7.092  41.943  0.00  0.00    +0.108 C 
ATOM     30  C   UNL     1      -2.171  -4.948  40.025  0.00  0.00    +0.032 C 
ATOM     31  C   UNL     1      -1.685  -5.994  42.267  0.00  0.00    +0.032 C 
ATOM     32  C   UNL     1      -1.075  -5.410  40.990  0.00  0.00    +0.078 C 
BRANCH  32  34
ATOM      6  O   UNL     1       1.003  -4.415  41.620  0.00  0.00    -0.276 OA
ATOM     11  N   UNL     1      -0.823  -3.043  41.344  0.00  0.00    -0.329 N 
ATOM     34  C   UNL     1      -0.184  -4.260  41.343  0.00  0.00    +0.214 C 
ATOM     42  H   UNL     1      -0.322  -2.191  41.573  0.00  0.00    +0.145 HD
ATOM     43  H   UNL     1      -1.809  -2.944  41.123  0.00  0.00    +0.145 HD
ENDBRANCH  32  34
ENDBRANCH  25  26
ENDBRANCH  15  25
TORSDOF 7
ENDMDL
MODEL 9
REMARK VINA RESULT:      -6.2      2.338      3.537
REMARK  Name = 11883074
REMARK  9 active torsions:
REMARK  status: ('A' for Active; 'I' for Inactive)
REMARK    1  A    between atoms: O_2  and  C_17
REMARK    2  A    between atoms: O_3  and  C_22
REMARK    3  A    between atoms: C_12  and  C_20
REMARK    4  A    between atoms: C_14  and  C_22
REMARK    5  A    between atoms: C_14  and  C_23
REMARK    6  A    between atoms: C_15  and  C_25
REMARK    7  A    between atoms: C_25  and  C_26
REMARK    8  A    between atoms: C_32  and  C_34
REMARK    9  A    between atoms: C_33  and  C_35
REMARK                            x       y       z     vdW  Elec       q    Type
REMARK                         _______ _______ _______ _____ _____    ______ ____
ROOT
ATOM      1  S   UNL     1      -5.277 -11.106  12.645  0.00  0.00    -0.057 S 
ATOM      5  O   UNL     1      -8.476  -8.796  10.238  0.00  0.00    -0.266 OA
ATOM      8  N   UNL     1      -7.523  -9.832  12.793  0.00  0.00    -0.229 NA
ATOM     10  N   UNL     1      -6.514 -10.007  10.612  0.00  0.00    -0.258 N 
ATOM     12  C   UNL     1      -7.727 -10.883  16.498  0.00  0.00    -0.019 C 
ATOM     13  C   UNL     1      -6.143 -10.887  16.665  0.00  0.00    +0.011 C 
ATOM     14  C   UNL     1      -5.571 -11.390  18.046  0.00  0.00    +0.021 C 
ATOM     15  C   UNL     1      -8.088  -9.954  15.249  0.00  0.00    +0.054 C 
ATOM     16  C   UNL     1      -8.377 -10.272  17.766  0.00  0.00    +0.010 C 
ATOM     17  C   UNL     1      -6.362 -10.718  19.204  0.00  0.00    +0.123 C 
ATOM     18  C   UNL     1      -5.442 -11.520  15.428  0.00  0.00    +0.049 C 
ATOM     19  C   UNL     1      -7.872 -10.874  19.069  0.00  0.00    +0.032 C 
ATOM     20  C   UNL     1      -8.311 -12.300  16.272  0.00  0.00    +0.012 C 
ATOM     21  C   UNL     1      -7.207 -10.268  14.066  0.00  0.00    +0.058 A 
ATOM     23  C   UNL     1      -4.088 -10.937  18.175  0.00  0.00    +0.016 C 
ATOM     24  C   UNL     1      -6.015 -10.956  14.173  0.00  0.00    +0.015 A 
ATOM     27  C   UNL     1      -6.581 -10.223  11.962  0.00  0.00    +0.165 A 
ATOM     33  C   UNL     1      -7.447  -9.313   9.809  0.00  0.00    +0.285 C 
ATOM     41  H   UNL     1      -5.697 -10.403  10.154  0.00  0.00    +0.157 HD
ENDROOT
BRANCH  33  35
ATOM      7  O   UNL     1      -7.796  -8.387   7.593  0.00  0.00    -0.458 OA
ATOM     35  C   UNL     1      -7.131  -9.281   8.370  0.00  0.00    +0.189 A 
ATOM     36  C   UNL     1      -6.250 -10.018   7.614  0.00  0.00    +0.054 A 
ATOM     37  C   UNL     1      -6.380  -9.545   6.286  0.00  0.00    +0.042 A 
ATOM     38  C   UNL     1      -7.334  -8.553   6.326  0.00  0.00    +0.196 A 
ENDBRANCH  33  35
BRANCH  17   2
ATOM      2  O   UNL     1      -5.955 -11.248  20.465  0.00  0.00    -0.391 OA
ATOM     39  H   UNL     1      -5.075 -10.888  20.666  0.00  0.00    +0.210 HD
ENDBRANCH  17   2
BRANCH  14  22
ATOM     22  C   UNL     1      -5.551 -12.925  18.212  0.00  0.00    +0.165 C 
BRANCH  22   3
ATOM      3  O   UNL     1      -4.256 -13.299  18.627  0.00  0.00    -0.394 OA
ATOM     40  H   UNL     1      -4.270 -14.257  18.788  0.00  0.00    +0.209 HD
ENDBRANCH  22   3
ENDBRANCH  14  22
BRANCH  15  25
ATOM     25  C   UNL     1      -9.572  -9.957  14.860  0.00  0.00    +0.106 C 
BRANCH  25  26
ATOM      4  O   UNL     1     -10.054  -7.884  15.900  0.00  0.00    -0.276 OA
ATOM      9  N   UNL     1     -11.376  -9.689  16.526  0.00  0.00    -0.301 N 
ATOM     26  C   UNL     1     -10.351  -9.077  15.805  0.00  0.00    +0.216 C 
ATOM     28  C   UNL     1     -11.753 -11.104  16.434  0.00  0.00    +0.108 C 
ATOM     29  C   UNL     1     -12.203  -8.893  17.435  0.00  0.00    +0.108 C 
ATOM     30  C   UNL     1     -11.748 -11.756  17.815  0.00  0.00    +0.032 C 
ATOM     31  C   UNL     1     -12.208  -9.497  18.837  0.00  0.00    +0.032 C 
ATOM     32  C   UNL     1     -12.619 -10.972  18.800  0.00  0.00    +0.078 C 
BRANCH  32  34
ATOM      6  O   UNL     1     -12.554 -12.768  20.374  0.00  0.00    -0.276 OA
ATOM     11  N   UNL     1     -12.336 -10.618  21.164  0.00  0.00    -0.329 N 
ATOM     34  C   UNL     1     -12.497 -11.557  20.173  0.00  0.00    +0.214 C 
ATOM     42  H   UNL     1     -12.246 -10.896  22.136  0.00  0.00    +0.145 HD
ATOM     43  H   UNL     1     -12.304  -9.622  20.972  0.00  0.00    +0.145 HD
ENDBRANCH  32  34
ENDBRANCH  25  26
ENDBRANCH  15  25
TORSDOF 7
ENDMDL
MODEL 10
REMARK VINA RESULT:      -6.2     24.771     28.244
REMARK  Name = 11883074
REMARK  9 active torsions:
REMARK  status: ('A' for Active; 'I' for Inactive)
REMARK    1  A    between atoms: O_2  and  C_17
REMARK    2  A    between atoms: O_3  and  C_22
REMARK    3  A    between atoms: C_12  and  C_20
REMARK    4  A    between atoms: C_14  and  C_22
REMARK    5  A    between atoms: C_14  and  C_23
REMARK    6  A    between atoms: C_15  and  C_25
REMARK    7  A    between atoms: C_25  and  C_26
REMARK    8  A    between atoms: C_32  and  C_34
REMARK    9  A    between atoms: C_33  and  C_35
REMARK                            x       y       z     vdW  Elec       q    Type
REMARK                         _______ _______ _______ _____ _____    ______ ____
ROOT
ATOM      1  S   UNL     1      14.976   7.305   3.518  0.00  0.00    -0.057 S 
ATOM      5  O   UNL     1      15.214   6.242  -0.974  0.00  0.00    -0.266 OA
ATOM      8  N   UNL     1      13.610   6.606   1.435  0.00  0.00    -0.229 NA
ATOM     10  N   UNL     1      15.988   6.864   1.139  0.00  0.00    -0.258 N 
ATOM     12  C   UNL     1      10.518   6.317   3.722  0.00  0.00    -0.019 C 
ATOM     13  C   UNL     1      11.034   7.466   4.696  0.00  0.00    +0.011 C 
ATOM     14  C   UNL     1      10.178   7.742   5.992  0.00  0.00    +0.021 C 
ATOM     15  C   UNL     1      11.246   6.503   2.311  0.00  0.00    +0.054 C 
ATOM     16  C   UNL     1       8.990   6.471   3.507  0.00  0.00    +0.010 C 
ATOM     17  C   UNL     1       8.674   7.821   5.605  0.00  0.00    +0.123 C 
ATOM     18  C   UNL     1      12.560   7.337   4.969  0.00  0.00    +0.049 C 
ATOM     19  C   UNL     1       8.198   6.620   4.797  0.00  0.00    +0.032 C 
ATOM     20  C   UNL     1      10.803   4.895   4.264  0.00  0.00    +0.012 C 
ATOM     21  C   UNL     1      12.726   6.730   2.491  0.00  0.00    +0.058 A 
ATOM     23  C   UNL     1      10.578   9.127   6.577  0.00  0.00    +0.016 C 
ATOM     24  C   UNL     1      13.292   7.122   3.688  0.00  0.00    +0.015 A 
ATOM     27  C   UNL     1      14.824   6.878   1.862  0.00  0.00    +0.165 A 
ATOM     33  C   UNL     1      16.141   6.552  -0.230  0.00  0.00    +0.285 C 
ATOM     41  H   UNL     1      16.824   7.102   1.668  0.00  0.00    +0.157 HD
ENDROOT
BRANCH  33  35
ATOM      7  O   UNL     1      18.402   7.427  -0.128  0.00  0.00    -0.458 OA
ATOM     35  C   UNL     1      17.528   6.575  -0.724  0.00  0.00    +0.189 A 
ATOM     36  C   UNL     1      18.152   5.866  -1.725  0.00  0.00    +0.054 A 
ATOM     37  C   UNL     1      19.495   6.311  -1.744  0.00  0.00    +0.042 A 
ATOM     38  C   UNL     1      19.597   7.262  -0.754  0.00  0.00    +0.196 A 
ENDBRANCH  33  35
BRANCH  17   2
ATOM      2  O   UNL     1       7.860   7.943   6.771  0.00  0.00    -0.391 OA
ATOM     39  H   UNL     1       8.437   7.836   7.546  0.00  0.00    +0.210 HD
ENDBRANCH  17   2
BRANCH  14  22
ATOM     22  C   UNL     1      10.399   6.729   7.136  0.00  0.00    +0.165 C 
BRANCH  22   3
ATOM      3  O   UNL     1       9.983   7.336   8.338  0.00  0.00    -0.394 OA
ATOM     40  H   UNL     1      10.771   7.446   8.895  0.00  0.00    +0.209 HD
ENDBRANCH  22   3
ENDBRANCH  14  22
BRANCH  15  25
ATOM     25  C   UNL     1      10.969   5.386   1.297  0.00  0.00    +0.106 C 
BRANCH  25  26
ATOM      4  O   UNL     1       9.589   6.938   0.159  0.00  0.00    -0.276 OA
ATOM      9  N   UNL     1      10.660   5.349  -1.154  0.00  0.00    -0.301 N 
ATOM     26  C   UNL     1      10.341   5.967   0.056  0.00  0.00    +0.216 C 
ATOM     28  C   UNL     1      11.551   4.193  -1.308  0.00  0.00    +0.108 C 
ATOM     29  C   UNL     1      10.121   5.878  -2.407  0.00  0.00    +0.108 C 
ATOM     30  C   UNL     1      10.851   3.067  -2.067  0.00  0.00    +0.032 C 
ATOM     31  C   UNL     1       9.391   4.789  -3.189  0.00  0.00    +0.032 C 
ATOM     32  C   UNL     1      10.288   3.566  -3.401  0.00  0.00    +0.078 C 
BRANCH  32  34
ATOM      6  O   UNL     1       9.071   1.511  -3.441  0.00  0.00    -0.276 OA
ATOM     11  N   UNL     1       9.325   2.666  -5.415  0.00  0.00    -0.329 N 
ATOM     34  C   UNL     1       9.499   2.479  -4.064  0.00  0.00    +0.214 C 
ATOM     42  H   UNL     1       8.811   1.992  -5.972  0.00  0.00    +0.145 HD
ATOM     43  H   UNL     1       9.701   3.470  -5.908  0.00  0.00    +0.145 HD
ENDBRANCH  32  34
ENDBRANCH  25  26
ENDBRANCH  15  25
TORSDOF 7
ENDMDL
