MODEL 1
REMARK VINA RESULT:      -7.1      0.000      0.000
REMARK  Name = 71694323
REMARK  8 active torsions:
REMARK  status: ('A' for Active; 'I' for Inactive)
REMARK    1  A    between atoms: O_6  and  C_27
REMARK    2  A    between atoms: O_6  and  C_28
REMARK    3  A    between atoms: C_10  and  C_16
REMARK    4  A    between atoms: C_11  and  C_14
REMARK    5  A    between atoms: C_11  and  C_17
REMARK    6  A    between atoms: C_11  and  C_18
REMARK    7  A    between atoms: C_11  and  C_19
REMARK    8  A    between atoms: C_20  and  C_22
REMARK                            x       y       z     vdW  Elec       q    Type
REMARK                         _______ _______ _______ _____ _____    ______ ____
ROOT
ATOM      8  N   UNL     1      15.762   7.094  21.390  0.00  0.00    -0.340 N 
ATOM      9  N   UNL     1      14.580   6.909  19.518  0.00  0.00    -0.238 NA
ATOM     16  C   UNL     1      14.544   7.253  20.786  0.00  0.00    +0.130 A 
ATOM     20  C   UNL     1      16.628   6.617  20.447  0.00  0.00    +0.066 A 
ATOM     21  C   UNL     1      15.875   6.512  19.300  0.00  0.00    +0.139 A 
ATOM     29  H   UNL     1      15.975   7.300  22.357  0.00  0.00    +0.167 HD
ENDROOT
BRANCH  16  10
ATOM      4  O   UNL     1      11.362   7.042  20.279  0.00  0.00    -0.376 OA
ATOM      5  O   UNL     1      14.350  10.091  22.839  0.00  0.00    -0.275 OA
ATOM      7  N   UNL     1      13.008   9.164  21.180  0.00  0.00    -0.287 N 
ATOM     10  C   UNL     1      13.338   7.775  21.558  0.00  0.00    +0.167 C 
ATOM     12  C   UNL     1      12.130   9.318  20.013  0.00  0.00    +0.136 C 
ATOM     13  C   UNL     1      12.092   6.873  21.494  0.00  0.00    +0.190 C 
ATOM     14  C   UNL     1      13.614  10.226  21.859  0.00  0.00    +0.222 C 
ATOM     15  C   UNL     1      10.931   8.391  20.117  0.00  0.00    +0.179 C 
BRANCH  14  11
ATOM     11  C   UNL     1      13.324  11.613  21.340  0.00  0.00    +0.039 C 
ATOM     17  C   UNL     1      14.130  12.605  22.179  0.00  0.00    +0.020 C 
ATOM     18  C   UNL     1      13.748  11.686  19.872  0.00  0.00    +0.020 C 
ATOM     19  C   UNL     1      11.826  11.887  21.476  0.00  0.00    +0.020 C 
ENDBRANCH  14  11
ENDBRANCH  16  10
BRANCH  20  22
ATOM     22  C   UNL     1      18.011   6.328  20.715  0.00  0.00    +0.000 A 
ATOM     23  C   UNL     1      18.659   6.946  21.783  0.00  0.00    +0.013 A 
ATOM     24  C   UNL     1      18.704   5.427  19.906  0.00  0.00    +0.013 A 
ATOM     25  C   UNL     1      20.001   6.666  22.042  0.00  0.00    +0.046 A 
ATOM     26  C   UNL     1      20.046   5.146  20.164  0.00  0.00    +0.046 A 
ATOM     27  C   UNL     1      20.694   5.765  21.233  0.00  0.00    +0.130 A 
BRANCH  27   6
ATOM      6  O   UNL     1      22.002   5.488  21.488  0.00  0.00    -0.406 OA
BRANCH   6  28
ATOM      1  F   UNL     1      21.499   3.365  22.177  0.00  0.00    -0.133 F 
ATOM      2  F   UNL     1      23.579   4.034  22.187  0.00  0.00    -0.133 F 
ATOM      3  F   UNL     1      22.192   4.837  23.673  0.00  0.00    -0.133 F 
ATOM     28  C   UNL     1      22.303   4.429  22.391  0.00  0.00    +0.575 C 
ENDBRANCH   6  28
ENDBRANCH  27   6
ENDBRANCH  20  22
TORSDOF 5
ENDMDL
MODEL 2
REMARK VINA RESULT:      -7.1      2.172      3.150
REMARK  Name = 71694323
REMARK  8 active torsions:
REMARK  status: ('A' for Active; 'I' for Inactive)
REMARK    1  A    between atoms: O_6  and  C_27
REMARK    2  A    between atoms: O_6  and  C_28
REMARK    3  A    between atoms: C_10  and  C_16
REMARK    4  A    between atoms: C_11  and  C_14
REMARK    5  A    between atoms: C_11  and  C_17
REMARK    6  A    between atoms: C_11  and  C_18
REMARK    7  A    between atoms: C_11  and  C_19
REMARK    8  A    between atoms: C_20  and  C_22
REMARK                            x       y       z     vdW  Elec       q    Type
REMARK                         _______ _______ _______ _____ _____    ______ ____
ROOT
ATOM      8  N   UNL     1      15.929   8.096  20.729  0.00  0.00    -0.340 N 
ATOM      9  N   UNL     1      15.817  10.107  21.665  0.00  0.00    -0.238 NA
ATOM     16  C   UNL     1      15.132   9.151  21.079  0.00  0.00    +0.130 A 
ATOM     20  C   UNL     1      17.204   8.400  21.116  0.00  0.00    +0.066 A 
ATOM     21  C   UNL     1      17.109   9.646  21.691  0.00  0.00    +0.139 A 
ATOM     29  H   UNL     1      15.623   7.247  20.272  0.00  0.00    +0.167 HD
ENDROOT
BRANCH  16  10
ATOM      4  O   UNL     1      12.838   6.912  21.472  0.00  0.00    -0.376 OA
ATOM      5  O   UNL     1      13.388  10.966  18.635  0.00  0.00    -0.275 OA
ATOM      7  N   UNL     1      13.351   8.766  19.392  0.00  0.00    -0.287 N 
ATOM     10  C   UNL     1      13.635   9.144  20.792  0.00  0.00    +0.167 C 
ATOM     12  C   UNL     1      13.249   7.325  19.127  0.00  0.00    +0.136 C 
ATOM     13  C   UNL     1      12.794   8.307  21.772  0.00  0.00    +0.190 C 
ATOM     14  C   UNL     1      13.303   9.757  18.406  0.00  0.00    +0.222 C 
ATOM     15  C   UNL     1      12.358   6.651  20.155  0.00  0.00    +0.179 C 
BRANCH  14  11
ATOM     11  C   UNL     1      13.130   9.287  16.984  0.00  0.00    +0.039 C 
ATOM     17  C   UNL     1      11.667   8.883  16.797  0.00  0.00    +0.020 C 
ATOM     18  C   UNL     1      13.492  10.435  16.039  0.00  0.00    +0.020 C 
ATOM     19  C   UNL     1      14.051   8.090  16.745  0.00  0.00    +0.020 C 
ENDBRANCH  14  11
ENDBRANCH  16  10
BRANCH  20  22
ATOM     22  C   UNL     1      18.325   7.521  20.913  0.00  0.00    +0.000 A 
ATOM     23  C   UNL     1      18.141   6.288  20.290  0.00  0.00    +0.013 A 
ATOM     24  C   UNL     1      19.597   7.904  21.339  0.00  0.00    +0.013 A 
ATOM     25  C   UNL     1      19.228   5.436  20.094  0.00  0.00    +0.046 A 
ATOM     26  C   UNL     1      20.684   7.053  21.143  0.00  0.00    +0.046 A 
ATOM     27  C   UNL     1      20.500   5.819  20.520  0.00  0.00    +0.130 A 
BRANCH  27   6
ATOM      6  O   UNL     1      21.561   4.989  20.326  0.00  0.00    -0.406 OA
BRANCH   6  28
ATOM      1  F   UNL     1      21.380   4.227  22.475  0.00  0.00    -0.133 F 
ATOM      2  F   UNL     1      20.924   2.880  20.816  0.00  0.00    -0.133 F 
ATOM      3  F   UNL     1      23.003   3.441  21.196  0.00  0.00    -0.133 F 
ATOM     28  C   UNL     1      21.730   3.891  21.215  0.00  0.00    +0.575 C 
ENDBRANCH   6  28
ENDBRANCH  27   6
ENDBRANCH  20  22
TORSDOF 5
ENDMDL
MODEL 3
REMARK VINA RESULT:      -7.0     17.342     19.604
REMARK  Name = 71694323
REMARK  8 active torsions:
REMARK  status: ('A' for Active; 'I' for Inactive)
REMARK    1  A    between atoms: O_6  and  C_27
REMARK    2  A    between atoms: O_6  and  C_28
REMARK    3  A    between atoms: C_10  and  C_16
REMARK    4  A    between atoms: C_11  and  C_14
REMARK    5  A    between atoms: C_11  and  C_17
REMARK    6  A    between atoms: C_11  and  C_18
REMARK    7  A    between atoms: C_11  and  C_19
REMARK    8  A    between atoms: C_20  and  C_22
REMARK                            x       y       z     vdW  Elec       q    Type
REMARK                         _______ _______ _______ _____ _____    ______ ____
ROOT
ATOM      8  N   UNL     1      10.602   6.734   3.016  0.00  0.00    -0.340 N 
ATOM      9  N   UNL     1       8.997   7.745   1.861  0.00  0.00    -0.238 NA
ATOM     16  C   UNL     1      10.179   7.176   1.793  0.00  0.00    +0.130 A 
ATOM     20  C   UNL     1       9.627   7.043   3.922  0.00  0.00    +0.066 A 
ATOM     21  C   UNL     1       8.647   7.666   3.185  0.00  0.00    +0.139 A 
ATOM     29  H   UNL     1      11.475   6.262   3.207  0.00  0.00    +0.167 HD
ENDROOT
BRANCH  16  10
ATOM      4  O   UNL     1       9.466   6.344  -1.246  0.00  0.00    -0.376 OA
ATOM      5  O   UNL     1      13.551   6.227   1.598  0.00  0.00    -0.275 OA
ATOM      7  N   UNL     1      11.605   5.631   0.471  0.00  0.00    -0.287 N 
ATOM     10  C   UNL     1      11.034   6.991   0.544  0.00  0.00    +0.167 C 
ATOM     12  C   UNL     1      10.751   4.612  -0.154  0.00  0.00    +0.136 C 
ATOM     13  C   UNL     1      10.339   7.372  -0.776  0.00  0.00    +0.190 C 
ATOM     14  C   UNL     1      12.838   5.367   1.075  0.00  0.00    +0.222 C 
ATOM     15  C   UNL     1      10.173   5.124  -1.462  0.00  0.00    +0.179 C 
BRANCH  14  11
ATOM     11  C   UNL     1      13.301   3.931   1.067  0.00  0.00    +0.039 C 
ATOM     17  C   UNL     1      14.712   3.890   1.655  0.00  0.00    +0.020 C 
ATOM     18  C   UNL     1      12.341   3.100   1.920  0.00  0.00    +0.020 C 
ATOM     19  C   UNL     1      13.306   3.424  -0.375  0.00  0.00    +0.020 C 
ENDBRANCH  14  11
ENDBRANCH  16  10
BRANCH  20  22
ATOM     22  C   UNL     1       9.718   6.729   5.323  0.00  0.00    +0.000 A 
ATOM     23  C   UNL     1      10.832   6.049   5.815  0.00  0.00    +0.013 A 
ATOM     24  C   UNL     1       8.692   7.105   6.190  0.00  0.00    +0.013 A 
ATOM     25  C   UNL     1      10.919   5.744   7.173  0.00  0.00    +0.046 A 
ATOM     26  C   UNL     1       8.779   6.801   7.549  0.00  0.00    +0.046 A 
ATOM     27  C   UNL     1       9.893   6.121   8.040  0.00  0.00    +0.130 A 
BRANCH  27   6
ATOM      6  O   UNL     1       9.981   5.827   9.366  0.00  0.00    -0.406 OA
BRANCH   6  28
ATOM      1  F   UNL     1       9.138   3.763   8.855  0.00  0.00    -0.133 F 
ATOM      2  F   UNL     1      10.072   4.089  10.803  0.00  0.00    -0.133 F 
ATOM      3  F   UNL     1       8.119   4.981  10.393  0.00  0.00    -0.133 F 
ATOM     28  C   UNL     1       9.312   4.665   9.844  0.00  0.00    +0.575 C 
ENDBRANCH   6  28
ENDBRANCH  27   6
ENDBRANCH  20  22
TORSDOF 5
ENDMDL
MODEL 4
REMARK VINA RESULT:      -6.8     29.956     32.818
REMARK  Name = 71694323
REMARK  8 active torsions:
REMARK  status: ('A' for Active; 'I' for Inactive)
REMARK    1  A    between atoms: O_6  and  C_27
REMARK    2  A    between atoms: O_6  and  C_28
REMARK    3  A    between atoms: C_10  and  C_16
REMARK    4  A    between atoms: C_11  and  C_14
REMARK    5  A    between atoms: C_11  and  C_17
REMARK    6  A    between atoms: C_11  and  C_18
REMARK    7  A    between atoms: C_11  and  C_19
REMARK    8  A    between atoms: C_20  and  C_22
REMARK                            x       y       z     vdW  Elec       q    Type
REMARK                         _______ _______ _______ _____ _____    ______ ____
ROOT
ATOM      8  N   UNL     1     -16.259   4.352  26.017  0.00  0.00    -0.340 N 
ATOM      9  N   UNL     1     -16.430   2.138  26.007  0.00  0.00    -0.238 NA
ATOM     16  C   UNL     1     -16.633   3.232  26.706  0.00  0.00    +0.130 A 
ATOM     20  C   UNL     1     -15.785   3.946  24.801  0.00  0.00    +0.066 A 
ATOM     21  C   UNL     1     -15.901   2.576  24.819  0.00  0.00    +0.139 A 
ATOM     29  H   UNL     1     -16.328   5.304  26.351  0.00  0.00    +0.167 HD
ENDROOT
BRANCH  16  10
ATOM      4  O   UNL     1     -16.822   5.645  28.845  0.00  0.00    -0.376 OA
ATOM      5  O   UNL     1     -16.949   0.674  29.086  0.00  0.00    -0.275 OA
ATOM      7  N   UNL     1     -16.236   2.888  29.133  0.00  0.00    -0.287 N 
ATOM     10  C   UNL     1     -17.212   3.323  28.113  0.00  0.00    +0.167 C 
ATOM     12  C   UNL     1     -15.312   3.922  29.616  0.00  0.00    +0.136 C 
ATOM     13  C   UNL     1     -17.818   4.691  28.475  0.00  0.00    +0.190 C 
ATOM     14  C   UNL     1     -16.170   1.538  29.495  0.00  0.00    +0.222 C 
ATOM     15  C   UNL     1     -16.065   5.195  29.966  0.00  0.00    +0.179 C 
BRANCH  14  11
ATOM     11  C   UNL     1     -15.070   1.147  30.449  0.00  0.00    +0.039 C 
ATOM     17  C   UNL     1     -15.191  -0.353  30.715  0.00  0.00    +0.020 C 
ATOM     18  C   UNL     1     -13.721   1.469  29.803  0.00  0.00    +0.020 C 
ATOM     19  C   UNL     1     -15.240   1.937  31.747  0.00  0.00    +0.020 C 
ENDBRANCH  14  11
ENDBRANCH  16  10
BRANCH  20  22
ATOM     22  C   UNL     1     -15.298   4.854  23.797  0.00  0.00    +0.000 A 
ATOM     23  C   UNL     1     -14.104   4.582  23.130  0.00  0.00    +0.013 A 
ATOM     24  C   UNL     1     -16.022   6.006  23.489  0.00  0.00    +0.013 A 
ATOM     25  C   UNL     1     -13.633   5.463  22.157  0.00  0.00    +0.046 A 
ATOM     26  C   UNL     1     -15.551   6.887  22.515  0.00  0.00    +0.046 A 
ATOM     27  C   UNL     1     -14.357   6.615  21.849  0.00  0.00    +0.130 A 
BRANCH  27   6
ATOM      6  O   UNL     1     -13.899   7.472  20.896  0.00  0.00    -0.406 OA
BRANCH   6  28
ATOM      1  F   UNL     1     -11.635   7.599  21.205  0.00  0.00    -0.133 F 
ATOM      2  F   UNL     1     -12.689   9.275  20.281  0.00  0.00    -0.133 F 
ATOM      3  F   UNL     1     -12.953   8.896  22.417  0.00  0.00    -0.133 F 
ATOM     28  C   UNL     1     -12.788   8.303  21.215  0.00  0.00    +0.575 C 
ENDBRANCH   6  28
ENDBRANCH  27   6
ENDBRANCH  20  22
TORSDOF 5
ENDMDL
MODEL 5
REMARK VINA RESULT:      -6.8     17.867     20.221
REMARK  Name = 71694323
REMARK  8 active torsions:
REMARK  status: ('A' for Active; 'I' for Inactive)
REMARK    1  A    between atoms: O_6  and  C_27
REMARK    2  A    between atoms: O_6  and  C_28
REMARK    3  A    between atoms: C_10  and  C_16
REMARK    4  A    between atoms: C_11  and  C_14
REMARK    5  A    between atoms: C_11  and  C_17
REMARK    6  A    between atoms: C_11  and  C_18
REMARK    7  A    between atoms: C_11  and  C_19
REMARK    8  A    between atoms: C_20  and  C_22
REMARK                            x       y       z     vdW  Elec       q    Type
REMARK                         _______ _______ _______ _____ _____    ______ ____
ROOT
ATOM      8  N   UNL     1      12.263   5.699   3.292  0.00  0.00    -0.340 N 
ATOM      9  N   UNL     1      11.395   6.559   1.437  0.00  0.00    -0.238 NA
ATOM     16  C   UNL     1      12.421   5.918   1.951  0.00  0.00    +0.130 A 
ATOM     20  C   UNL     1      11.061   6.237   3.656  0.00  0.00    +0.066 A 
ATOM     21  C   UNL     1      10.544   6.762   2.494  0.00  0.00    +0.139 A 
ATOM     29  H   UNL     1      12.918   5.222   3.896  0.00  0.00    +0.167 HD
ENDROOT
BRANCH  16  10
ATOM      4  O   UNL     1      14.863   7.490   0.539  0.00  0.00    -0.376 OA
ATOM      5  O   UNL     1      12.851   2.955   0.122  0.00  0.00    -0.275 OA
ATOM      7  N   UNL     1      13.387   5.193  -0.219  0.00  0.00    -0.287 N 
ATOM     10  C   UNL     1      13.665   5.442   1.211  0.00  0.00    +0.167 C 
ATOM     12  C   UNL     1      13.498   6.360  -1.104  0.00  0.00    +0.136 C 
ATOM     13  C   UNL     1      14.903   6.340   1.385  0.00  0.00    +0.190 C 
ATOM     14  C   UNL     1      12.942   3.931  -0.626  0.00  0.00    +0.222 C 
ATOM     15  C   UNL     1      14.787   7.118  -0.835  0.00  0.00    +0.179 C 
BRANCH  14  11
ATOM     11  C   UNL     1      12.561   3.785  -2.078  0.00  0.00    +0.039 C 
ATOM     17  C   UNL     1      12.092   2.347  -2.297  0.00  0.00    +0.020 C 
ATOM     18  C   UNL     1      11.434   4.770  -2.393  0.00  0.00    +0.020 C 
ATOM     19  C   UNL     1      13.787   4.086  -2.941  0.00  0.00    +0.020 C 
ENDBRANCH  14  11
ENDBRANCH  16  10
BRANCH  20  22
ATOM     22  C   UNL     1      10.549   6.197   5.000  0.00  0.00    +0.000 A 
ATOM     23  C   UNL     1       9.182   6.038   5.223  0.00  0.00    +0.013 A 
ATOM     24  C   UNL     1      11.422   6.317   6.081  0.00  0.00    +0.013 A 
ATOM     25  C   UNL     1       8.687   6.001   6.526  0.00  0.00    +0.046 A 
ATOM     26  C   UNL     1      10.928   6.280   7.385  0.00  0.00    +0.046 A 
ATOM     27  C   UNL     1       9.560   6.121   7.608  0.00  0.00    +0.130 A 
BRANCH  27   6
ATOM      6  O   UNL     1       9.077   6.080   8.879  0.00  0.00    -0.406 OA
BRANCH   6  28
ATOM      1  F   UNL     1      10.386   4.996  10.412  0.00  0.00    -0.133 F 
ATOM      2  F   UNL     1       8.219   4.713  10.457  0.00  0.00    -0.133 F 
ATOM      3  F   UNL     1       9.380   3.813   8.838  0.00  0.00    -0.133 F 
ATOM     28  C   UNL     1       9.282   4.895   9.640  0.00  0.00    +0.575 C 
ENDBRANCH   6  28
ENDBRANCH  27   6
ENDBRANCH  20  22
TORSDOF 5
ENDMDL
MODEL 6
REMARK VINA RESULT:      -6.6      4.735      9.110
REMARK  Name = 71694323
REMARK  8 active torsions:
REMARK  status: ('A' for Active; 'I' for Inactive)
REMARK    1  A    between atoms: O_6  and  C_27
REMARK    2  A    between atoms: O_6  and  C_28
REMARK    3  A    between atoms: C_10  and  C_16
REMARK    4  A    between atoms: C_11  and  C_14
REMARK    5  A    between atoms: C_11  and  C_17
REMARK    6  A    between atoms: C_11  and  C_18
REMARK    7  A    between atoms: C_11  and  C_19
REMARK    8  A    between atoms: C_20  and  C_22
REMARK                            x       y       z     vdW  Elec       q    Type
REMARK                         _______ _______ _______ _____ _____    ______ ____
ROOT
ATOM      8  N   UNL     1      17.860   7.341  21.651  0.00  0.00    -0.340 N 
ATOM      9  N   UNL     1      19.470   6.295  20.535  0.00  0.00    -0.238 NA
ATOM     16  C   UNL     1      19.189   7.025  21.592  0.00  0.00    +0.130 A 
ATOM     20  C   UNL     1      17.256   6.778  20.562  0.00  0.00    +0.066 A 
ATOM     21  C   UNL     1      18.270   6.137  19.890  0.00  0.00    +0.139 A 
ATOM     29  H   UNL     1      17.412   7.888  22.374  0.00  0.00    +0.167 HD
ENDROOT
BRANCH  16  10
ATOM      4  O   UNL     1      20.705   9.834  22.085  0.00  0.00    -0.376 OA
ATOM      5  O   UNL     1      21.468   5.105  23.443  0.00  0.00    -0.275 OA
ATOM      7  N   UNL     1      21.559   7.143  22.324  0.00  0.00    -0.287 N 
ATOM     10  C   UNL     1      20.166   7.498  22.662  0.00  0.00    +0.167 C 
ATOM     12  C   UNL     1      22.274   8.101  21.471  0.00  0.00    +0.136 C 
ATOM     13  C   UNL     1      20.048   8.988  23.030  0.00  0.00    +0.190 C 
ATOM     14  C   UNL     1      22.074   5.906  22.726  0.00  0.00    +0.222 C 
ATOM     15  C   UNL     1      22.092   9.519  21.986  0.00  0.00    +0.179 C 
BRANCH  14  11
ATOM     11  C   UNL     1      23.459   5.561  22.242  0.00  0.00    +0.039 C 
ATOM     17  C   UNL     1      23.813   4.175  22.783  0.00  0.00    +0.020 C 
ATOM     18  C   UNL     1      23.458   5.554  20.712  0.00  0.00    +0.020 C 
ATOM     19  C   UNL     1      24.441   6.609  22.768  0.00  0.00    +0.020 C 
ENDBRANCH  14  11
ENDBRANCH  16  10
BRANCH  20  22
ATOM     22  C   UNL     1      15.849   6.896  20.287  0.00  0.00    +0.000 A 
ATOM     23  C   UNL     1      14.929   6.889  21.335  0.00  0.00    +0.013 A 
ATOM     24  C   UNL     1      15.405   7.019  18.970  0.00  0.00    +0.013 A 
ATOM     25  C   UNL     1      13.565   7.003  21.067  0.00  0.00    +0.046 A 
ATOM     26  C   UNL     1      14.041   7.134  18.701  0.00  0.00    +0.046 A 
ATOM     27  C   UNL     1      13.121   7.126  19.750  0.00  0.00    +0.130 A 
BRANCH  27   6
ATOM      6  O   UNL     1      11.790   7.241  19.489  0.00  0.00    -0.406 OA
BRANCH   6  28
ATOM      1  F   UNL     1      10.455   8.761  18.420  0.00  0.00    -0.133 F 
ATOM      2  F   UNL     1      10.400   8.629  20.600  0.00  0.00    -0.133 F 
ATOM      3  F   UNL     1      12.155   9.495  19.628  0.00  0.00    -0.133 F 
ATOM     28  C   UNL     1      11.208   8.539  19.520  0.00  0.00    +0.575 C 
ENDBRANCH   6  28
ENDBRANCH  27   6
ENDBRANCH  20  22
TORSDOF 5
ENDMDL
MODEL 7
REMARK VINA RESULT:      -6.6     18.139     19.794
REMARK  Name = 71694323
REMARK  8 active torsions:
REMARK  status: ('A' for Active; 'I' for Inactive)
REMARK    1  A    between atoms: O_6  and  C_27
REMARK    2  A    between atoms: O_6  and  C_28
REMARK    3  A    between atoms: C_10  and  C_16
REMARK    4  A    between atoms: C_11  and  C_14
REMARK    5  A    between atoms: C_11  and  C_17
REMARK    6  A    between atoms: C_11  and  C_18
REMARK    7  A    between atoms: C_11  and  C_19
REMARK    8  A    between atoms: C_20  and  C_22
REMARK                            x       y       z     vdW  Elec       q    Type
REMARK                         _______ _______ _______ _____ _____    ______ ____
ROOT
ATOM      8  N   UNL     1      11.423   5.742   3.898  0.00  0.00    -0.340 N 
ATOM      9  N   UNL     1      10.111   4.601   5.279  0.00  0.00    -0.238 NA
ATOM     16  C   UNL     1      10.818   5.697   5.124  0.00  0.00    +0.130 A 
ATOM     20  C   UNL     1      11.079   4.601   3.229  0.00  0.00    +0.066 A 
ATOM     21  C   UNL     1      10.269   3.913   4.102  0.00  0.00    +0.139 A 
ATOM     29  H   UNL     1      12.010   6.490   3.554  0.00  0.00    +0.167 HD
ENDROOT
BRANCH  16  10
ATOM      4  O   UNL     1       9.721   6.128   8.131  0.00  0.00    -0.376 OA
ATOM      5  O   UNL     1      11.364   9.105   4.495  0.00  0.00    -0.275 OA
ATOM      7  N   UNL     1       9.993   7.895   5.933  0.00  0.00    -0.287 N 
ATOM     10  C   UNL     1      10.991   6.824   6.135  0.00  0.00    +0.167 C 
ATOM     12  C   UNL     1       8.702   7.701   6.606  0.00  0.00    +0.136 C 
ATOM     13  C   UNL     1      11.027   6.372   7.606  0.00  0.00    +0.190 C 
ATOM     14  C   UNL     1      10.277   8.947   5.057  0.00  0.00    +0.222 C 
ATOM     15  C   UNL     1       8.907   7.295   8.055  0.00  0.00    +0.179 C 
BRANCH  14  11
ATOM     11  C   UNL     1       9.168   9.937   4.806  0.00  0.00    +0.039 C 
ATOM     17  C   UNL     1       9.634  10.898   3.712  0.00  0.00    +0.020 C 
ATOM     18  C   UNL     1       7.921   9.174   4.353  0.00  0.00    +0.020 C 
ATOM     19  C   UNL     1       8.884  10.697   6.102  0.00  0.00    +0.020 C 
ENDBRANCH  14  11
ENDBRANCH  16  10
BRANCH  20  22
ATOM     22  C   UNL     1      11.530   4.297   1.897  0.00  0.00    +0.000 A 
ATOM     23  C   UNL     1      12.708   3.576   1.706  0.00  0.00    +0.013 A 
ATOM     24  C   UNL     1      10.786   4.722   0.796  0.00  0.00    +0.013 A 
ATOM     25  C   UNL     1      13.144   3.281   0.414  0.00  0.00    +0.046 A 
ATOM     26  C   UNL     1      11.222   4.427  -0.496  0.00  0.00    +0.046 A 
ATOM     27  C   UNL     1      12.400   3.707  -0.687  0.00  0.00    +0.130 A 
BRANCH  27   6
ATOM      6  O   UNL     1      12.824   3.416  -1.947  0.00  0.00    -0.406 OA
BRANCH   6  28
ATOM      1  F   UNL     1      10.911   2.793  -3.036  0.00  0.00    -0.133 F 
ATOM      2  F   UNL     1      12.845   2.113  -3.789  0.00  0.00    -0.133 F 
ATOM      3  F   UNL     1      12.062   1.259  -1.936  0.00  0.00    -0.133 F 
ATOM     28  C   UNL     1      12.146   2.392  -2.666  0.00  0.00    +0.575 C 
ENDBRANCH   6  28
ENDBRANCH  27   6
ENDBRANCH  20  22
TORSDOF 5
ENDMDL
MODEL 8
REMARK VINA RESULT:      -6.6      4.451      9.867
REMARK  Name = 71694323
REMARK  8 active torsions:
REMARK  status: ('A' for Active; 'I' for Inactive)
REMARK    1  A    between atoms: O_6  and  C_27
REMARK    2  A    between atoms: O_6  and  C_28
REMARK    3  A    between atoms: C_10  and  C_16
REMARK    4  A    between atoms: C_11  and  C_14
REMARK    5  A    between atoms: C_11  and  C_17
REMARK    6  A    between atoms: C_11  and  C_18
REMARK    7  A    between atoms: C_11  and  C_19
REMARK    8  A    between atoms: C_20  and  C_22
REMARK                            x       y       z     vdW  Elec       q    Type
REMARK                         _______ _______ _______ _____ _____    ______ ____
ROOT
ATOM      8  N   UNL     1      19.821   6.303  21.445  0.00  0.00    -0.340 N 
ATOM      9  N   UNL     1      20.793   4.592  20.415  0.00  0.00    -0.238 NA
ATOM     16  C   UNL     1      20.925   5.500  21.356  0.00  0.00    +0.130 A 
ATOM     20  C   UNL     1      18.929   5.880  20.500  0.00  0.00    +0.066 A 
ATOM     21  C   UNL     1      19.552   4.823  19.877  0.00  0.00    +0.139 A 
ATOM     29  H   UNL     1      19.693   7.064  22.097  0.00  0.00    +0.167 HD
ENDROOT
BRANCH  16  10
ATOM      4  O   UNL     1      23.612   7.274  21.101  0.00  0.00    -0.376 OA
ATOM      5  O   UNL     1      22.254   3.245  23.691  0.00  0.00    -0.275 OA
ATOM      7  N   UNL     1      23.147   4.651  22.067  0.00  0.00    -0.287 N 
ATOM     10  C   UNL     1      22.124   5.696  22.275  0.00  0.00    +0.167 C 
ATOM     12  C   UNL     1      24.121   4.913  21.000  0.00  0.00    +0.136 C 
ATOM     13  C   UNL     1      22.751   7.101  22.227  0.00  0.00    +0.190 C 
ATOM     14  C   UNL     1      23.074   3.459  22.795  0.00  0.00    +0.222 C 
ATOM     15  C   UNL     1      24.675   6.324  21.112  0.00  0.00    +0.179 C 
BRANCH  14  11
ATOM     11  C   UNL     1      24.078   2.390  22.444  0.00  0.00    +0.039 C 
ATOM     17  C   UNL     1      25.476   2.974  22.646  0.00  0.00    +0.020 C 
ATOM     18  C   UNL     1      23.861   1.189  23.367  0.00  0.00    +0.020 C 
ATOM     19  C   UNL     1      23.873   1.982  20.984  0.00  0.00    +0.020 C 
ENDBRANCH  14  11
ENDBRANCH  16  10
BRANCH  20  22
ATOM     22  C   UNL     1      17.642   6.489  20.295  0.00  0.00    +0.000 A 
ATOM     23  C   UNL     1      17.190   7.476  21.169  0.00  0.00    +0.013 A 
ATOM     24  C   UNL     1      16.846   6.091  19.221  0.00  0.00    +0.013 A 
ATOM     25  C   UNL     1      15.941   8.066  20.971  0.00  0.00    +0.046 A 
ATOM     26  C   UNL     1      15.597   6.680  19.022  0.00  0.00    +0.046 A 
ATOM     27  C   UNL     1      15.145   7.668  19.897  0.00  0.00    +0.130 A 
BRANCH  27   6
ATOM      6  O   UNL     1      13.929   8.246  19.701  0.00  0.00    -0.406 OA
BRANCH   6  28
ATOM      1  F   UNL     1      11.697   8.250  20.202  0.00  0.00    -0.133 F 
ATOM      2  F   UNL     1      12.488   6.739  18.836  0.00  0.00    -0.133 F 
ATOM      3  F   UNL     1      12.960   6.604  20.966  0.00  0.00    -0.133 F 
ATOM     28  C   UNL     1      12.765   7.464  19.943  0.00  0.00    +0.575 C 
ENDBRANCH   6  28
ENDBRANCH  27   6
ENDBRANCH  20  22
TORSDOF 5
ENDMDL
MODEL 9
REMARK VINA RESULT:      -6.5     17.141     19.424
REMARK  Name = 71694323
REMARK  8 active torsions:
REMARK  status: ('A' for Active; 'I' for Inactive)
REMARK    1  A    between atoms: O_6  and  C_27
REMARK    2  A    between atoms: O_6  and  C_28
REMARK    3  A    between atoms: C_10  and  C_16
REMARK    4  A    between atoms: C_11  and  C_14
REMARK    5  A    between atoms: C_11  and  C_17
REMARK    6  A    between atoms: C_11  and  C_18
REMARK    7  A    between atoms: C_11  and  C_19
REMARK    8  A    between atoms: C_20  and  C_22
REMARK                            x       y       z     vdW  Elec       q    Type
REMARK                         _______ _______ _______ _____ _____    ______ ____
ROOT
ATOM      8  N   UNL     1      11.543   6.760   3.240  0.00  0.00    -0.340 N 
ATOM      9  N   UNL     1      13.605   7.573   3.100  0.00  0.00    -0.238 NA
ATOM     16  C   UNL     1      12.570   7.135   2.418  0.00  0.00    +0.130 A 
ATOM     20  C   UNL     1      11.950   6.972   4.527  0.00  0.00    +0.066 A 
ATOM     21  C   UNL     1      13.225   7.474   4.415  0.00  0.00    +0.139 A 
ATOM     29  H   UNL     1      10.647   6.399   2.942  0.00  0.00    +0.167 HD
ENDROOT
BRANCH  16  10
ATOM      4  O   UNL     1      10.311   5.882   0.480  0.00  0.00    -0.376 OA
ATOM      5  O   UNL     1      15.155   6.948   0.054  0.00  0.00    -0.275 OA
ATOM      7  N   UNL     1      13.142   5.830   0.384  0.00  0.00    -0.287 N 
ATOM     10  C   UNL     1      12.452   7.029   0.902  0.00  0.00    +0.167 C 
ATOM     12  C   UNL     1      12.352   4.592   0.375  0.00  0.00    +0.136 C 
ATOM     13  C   UNL     1      11.015   7.119   0.359  0.00  0.00    +0.190 C 
ATOM     14  C   UNL     1      14.496   5.905   0.044  0.00  0.00    +0.222 C 
ATOM     15  C   UNL     1      10.977   4.837  -0.224  0.00  0.00    +0.179 C 
BRANCH  14  11
ATOM     11  C   UNL     1      15.165   4.616  -0.360  0.00  0.00    +0.039 C 
ATOM     17  C   UNL     1      14.340   3.993  -1.487  0.00  0.00    +0.020 C 
ATOM     18  C   UNL     1      16.583   4.927  -0.844  0.00  0.00    +0.020 C 
ATOM     19  C   UNL     1      15.209   3.683   0.850  0.00  0.00    +0.020 C 
ENDBRANCH  14  11
ENDBRANCH  16  10
BRANCH  20  22
ATOM     22  C   UNL     1      11.127   6.694   5.674  0.00  0.00    +0.000 A 
ATOM     23  C   UNL     1      11.189   7.521   6.795  0.00  0.00    +0.013 A 
ATOM     24  C   UNL     1      10.267   5.596   5.665  0.00  0.00    +0.013 A 
ATOM     25  C   UNL     1      10.392   7.251   7.907  0.00  0.00    +0.046 A 
ATOM     26  C   UNL     1       9.469   5.325   6.777  0.00  0.00    +0.046 A 
ATOM     27  C   UNL     1       9.532   6.153   7.898  0.00  0.00    +0.130 A 
BRANCH  27   6
ATOM      6  O   UNL     1       8.751   5.891   8.981  0.00  0.00    -0.406 OA
BRANCH   6  28
ATOM      1  F   UNL     1       9.241   3.658   9.077  0.00  0.00    -0.133 F 
ATOM      2  F   UNL     1      10.276   5.044  10.413  0.00  0.00    -0.133 F 
ATOM      3  F   UNL     1       8.168   4.590  10.771  0.00  0.00    -0.133 F 
ATOM     28  C   UNL     1       9.095   4.785   9.808  0.00  0.00    +0.575 C 
ENDBRANCH   6  28
ENDBRANCH  27   6
ENDBRANCH  20  22
TORSDOF 5
ENDMDL
MODEL 10
REMARK VINA RESULT:      -6.5     27.630     29.585
REMARK  Name = 71694323
REMARK  8 active torsions:
REMARK  status: ('A' for Active; 'I' for Inactive)
REMARK    1  A    between atoms: O_6  and  C_27
REMARK    2  A    between atoms: O_6  and  C_28
REMARK    3  A    between atoms: C_10  and  C_16
REMARK    4  A    between atoms: C_11  and  C_14
REMARK    5  A    between atoms: C_11  and  C_17
REMARK    6  A    between atoms: C_11  and  C_18
REMARK    7  A    between atoms: C_11  and  C_19
REMARK    8  A    between atoms: C_20  and  C_22
REMARK                            x       y       z     vdW  Elec       q    Type
REMARK                         _______ _______ _______ _____ _____    ______ ____
ROOT
ATOM      8  N   UNL     1     -11.341   8.918  18.228  0.00  0.00    -0.340 N 
ATOM      9  N   UNL     1     -10.827  10.941  18.988  0.00  0.00    -0.238 NA
ATOM     16  C   UNL     1     -10.755  10.125  17.960  0.00  0.00    +0.130 A 
ATOM     20  C   UNL     1     -11.816   8.968  19.508  0.00  0.00    +0.066 A 
ATOM     21  C   UNL     1     -11.487  10.227  19.956  0.00  0.00    +0.139 A 
ATOM     29  H   UNL     1     -11.410   8.138  17.588  0.00  0.00    +0.167 HD
ENDROOT
BRANCH  16  10
ATOM      4  O   UNL     1     -10.567  12.796  16.153  0.00  0.00    -0.376 OA
ATOM      5  O   UNL     1     -10.227   7.903  15.297  0.00  0.00    -0.275 OA
ATOM      7  N   UNL     1     -11.027  10.079  15.492  0.00  0.00    -0.287 N 
ATOM     10  C   UNL     1     -10.117  10.414  16.606  0.00  0.00    +0.167 C 
ATOM     12  C   UNL     1     -11.969  11.134  15.097  0.00  0.00    +0.136 C 
ATOM     13  C   UNL     1      -9.551  11.837  16.450  0.00  0.00    +0.190 C 
ATOM     14  C   UNL     1     -11.021   8.785  14.961  0.00  0.00    +0.222 C 
ATOM     15  C   UNL     1     -11.253  12.466  14.947  0.00  0.00    +0.179 C 
BRANCH  14  11
ATOM     11  C   UNL     1     -12.059   8.481  13.911  0.00  0.00    +0.039 C 
ATOM     17  C   UNL     1     -11.955   9.551  12.824  0.00  0.00    +0.020 C 
ATOM     18  C   UNL     1     -11.776   7.095  13.327  0.00  0.00    +0.020 C 
ATOM     19  C   UNL     1     -13.442   8.511  14.562  0.00  0.00    +0.020 C 
ENDBRANCH  14  11
ENDBRANCH  16  10
BRANCH  20  22
ATOM     22  C   UNL     1     -12.501   7.874  20.142  0.00  0.00    +0.000 A 
ATOM     23  C   UNL     1     -13.881   7.737  19.999  0.00  0.00    +0.013 A 
ATOM     24  C   UNL     1     -11.783   6.949  20.901  0.00  0.00    +0.013 A 
ATOM     25  C   UNL     1     -14.544   6.676  20.615  0.00  0.00    +0.046 A 
ATOM     26  C   UNL     1     -12.446   5.887  21.517  0.00  0.00    +0.046 A 
ATOM     27  C   UNL     1     -13.827   5.751  21.374  0.00  0.00    +0.130 A 
BRANCH  27   6
ATOM      6  O   UNL     1     -14.474   4.714  21.972  0.00  0.00    -0.406 OA
BRANCH   6  28
ATOM      1  F   UNL     1     -15.765   3.970  23.708  0.00  0.00    -0.133 F 
ATOM      2  F   UNL     1     -13.669   4.472  24.066  0.00  0.00    -0.133 F 
ATOM      3  F   UNL     1     -15.103   6.079  23.696  0.00  0.00    -0.133 F 
ATOM     28  C   UNL     1     -14.770   4.814  23.360  0.00  0.00    +0.575 C 
ENDBRANCH   6  28
ENDBRANCH  27   6
ENDBRANCH  20  22
TORSDOF 5
ENDMDL
