MODEL 1
REMARK VINA RESULT:      -6.7      0.000      0.000
REMARK  Name = 23757077
REMARK  5 active torsions:
REMARK  status: ('A' for Active; 'I' for Inactive)
REMARK    1  A    between atoms: S_1  and  N_7
REMARK    2  A    between atoms: S_1  and  C_21
REMARK    3  A    between atoms: N_9  and  C_28
REMARK    4  A    between atoms: C_19  and  C_22
REMARK    5  A    between atoms: C_31  and  C_32
REMARK                            x       y       z     vdW  Elec       q    Type
REMARK                         _______ _______ _______ _____ _____    ______ ____
ROOT
ATOM      5  O   UNL     1     -14.887   9.469  19.855  0.00  0.00    -0.267 OA
ATOM      7  N   UNL     1     -11.365   9.569  16.332  0.00  0.00    -0.176 NA
ATOM      8  N   UNL     1     -12.644   9.554  19.221  0.00  0.00    -0.311 N 
ATOM     10  C   UNL     1     -11.660  11.504  17.883  0.00  0.00    +0.025 C 
ATOM     11  C   UNL     1     -10.219   9.625  18.538  0.00  0.00    +0.052 C 
ATOM     12  C   UNL     1     -10.358  11.145  18.585  0.00  0.00    +0.017 C 
ATOM     13  C   UNL     1     -11.633  11.033  16.419  0.00  0.00    +0.114 C 
ATOM     14  C   UNL     1     -10.134   9.161  17.072  0.00  0.00    +0.119 C 
ATOM     15  C   UNL     1     -12.832  10.902  18.669  0.00  0.00    +0.130 C 
ATOM     16  C   UNL     1     -11.383   8.949  19.238  0.00  0.00    +0.026 A 
ATOM     17  C   UNL     1     -11.211   7.767  19.851  0.00  0.00    +0.022 A 
ATOM     18  C   UNL     1     -13.768   8.954  19.822  0.00  0.00    +0.260 A 
ATOM     19  C   UNL     1     -13.547   7.614  20.467  0.00  0.00    +0.053 A 
ATOM     20  C   UNL     1     -12.313   7.089  20.473  0.00  0.00    +0.016 A 
ENDROOT
BRANCH  19  22
ATOM      2  S   UNL     1     -14.888   7.054  22.762  0.00  0.00    -0.096 S 
ATOM     22  C   UNL     1     -14.632   6.909  21.075  0.00  0.00    +0.024 A 
ATOM     27  C   UNL     1     -15.562   6.085  20.480  0.00  0.00    +0.016 A 
ATOM     29  C   UNL     1     -16.495   5.564  21.422  0.00  0.00    +0.008 A 
ATOM     30  C   UNL     1     -16.244   6.011  22.700  0.00  0.00    +0.046 A 
ENDBRANCH  19  22
BRANCH   7   1
ATOM      1  S   UNL     1     -11.562   8.871  14.782  0.00  0.00    +0.061 S 
ATOM      3  O   UNL     1     -10.653   7.754  14.647  0.00  0.00    -0.153 OA
ATOM      4  O   UNL     1     -11.598   9.926  13.792  0.00  0.00    -0.153 OA
BRANCH   1  21
ATOM     21  C   UNL     1     -13.196   8.220  14.941  0.00  0.00    +0.106 A 
ATOM     23  C   UNL     1     -13.854   8.282  16.170  0.00  0.00    +0.030 A 
ATOM     24  C   UNL     1     -13.827   7.645  13.839  0.00  0.00    +0.030 A 
ATOM     25  C   UNL     1     -15.145   7.768  16.295  0.00  0.00    +0.025 A 
ATOM     26  C   UNL     1     -15.118   7.131  13.965  0.00  0.00    +0.025 A 
ATOM     28  C   UNL     1     -15.777   7.192  15.193  0.00  0.00    +0.033 A 
BRANCH  28   9
ATOM      6  O   UNL     1     -16.750   4.343  15.258  0.00  0.00    -0.276 OA
ATOM      9  N   UNL     1     -17.068   6.677  15.320  0.00  0.00    -0.286 N 
ATOM     31  C   UNL     1     -17.466   5.334  15.343  0.00  0.00    +0.214 C 
ATOM     32  C   UNL     1     -18.959   5.197  15.496  0.00  0.00    +0.109 C 
ATOM     33  H   UNL     1     -17.806   7.374  15.406  0.00  0.00    +0.155 HD
ENDBRANCH  28   9
ENDBRANCH   1  21
ENDBRANCH   7   1
TORSDOF 4
ENDMDL
MODEL 2
REMARK VINA RESULT:      -6.5     27.005     30.754
REMARK  Name = 23757077
REMARK  5 active torsions:
REMARK  status: ('A' for Active; 'I' for Inactive)
REMARK    1  A    between atoms: S_1  and  N_7
REMARK    2  A    between atoms: S_1  and  C_21
REMARK    3  A    between atoms: N_9  and  C_28
REMARK    4  A    between atoms: C_19  and  C_22
REMARK    5  A    between atoms: C_31  and  C_32
REMARK                            x       y       z     vdW  Elec       q    Type
REMARK                         _______ _______ _______ _____ _____    ______ ____
ROOT
ATOM      5  O   UNL     1      10.953   6.760   0.892  0.00  0.00    -0.267 OA
ATOM      7  N   UNL     1      11.120   7.123   5.858  0.00  0.00    -0.176 NA
ATOM      8  N   UNL     1      10.232   6.092   3.007  0.00  0.00    -0.311 N 
ATOM     10  C   UNL     1       9.024   7.676   4.618  0.00  0.00    +0.025 C 
ATOM     11  C   UNL     1       9.465   5.355   5.292  0.00  0.00    +0.052 C 
ATOM     12  C   UNL     1       8.369   6.409   5.151  0.00  0.00    +0.017 C 
ATOM     13  C   UNL     1      10.101   8.179   5.593  0.00  0.00    +0.114 C 
ATOM     14  C   UNL     1      10.513   5.836   6.313  0.00  0.00    +0.119 C 
ATOM     15  C   UNL     1       9.588   7.395   3.219  0.00  0.00    +0.130 C 
ATOM     16  C   UNL     1      10.124   5.070   3.955  0.00  0.00    +0.026 A 
ATOM     17  C   UNL     1      10.620   3.851   3.692  0.00  0.00    +0.022 A 
ATOM     18  C   UNL     1      10.866   5.894   1.765  0.00  0.00    +0.260 A 
ATOM     19  C   UNL     1      11.442   4.527   1.518  0.00  0.00    +0.053 A 
ATOM     20  C   UNL     1      11.293   3.578   2.453  0.00  0.00    +0.016 A 
ENDROOT
BRANCH  19  22
ATOM      2  S   UNL     1      13.828   4.483   0.220  0.00  0.00    -0.096 S 
ATOM     22  C   UNL     1      12.135   4.238   0.301  0.00  0.00    +0.024 A 
ATOM     27  C   UNL     1      11.623   3.763  -0.887  0.00  0.00    +0.016 A 
ATOM     29  C   UNL     1      12.634   3.600  -1.877  0.00  0.00    +0.008 A 
ATOM     30  C   UNL     1      13.879   3.954  -1.408  0.00  0.00    +0.046 A 
ENDBRANCH  19  22
BRANCH   7   1
ATOM      1  S   UNL     1      12.507   7.632   6.720  0.00  0.00    +0.061 S 
ATOM      3  O   UNL     1      12.840   6.633   7.714  0.00  0.00    -0.153 OA
ATOM      4  O   UNL     1      12.350   9.023   7.087  0.00  0.00    -0.153 OA
BRANCH   1  21
ATOM     21  C   UNL     1      13.719   7.541   5.438  0.00  0.00    +0.106 A 
ATOM     23  C   UNL     1      15.062   7.774   5.732  0.00  0.00    +0.030 A 
ATOM     24  C   UNL     1      13.331   7.237   4.134  0.00  0.00    +0.030 A 
ATOM     25  C   UNL     1      16.019   7.703   4.719  0.00  0.00    +0.025 A 
ATOM     26  C   UNL     1      14.288   7.166   3.121  0.00  0.00    +0.025 A 
ATOM     28  C   UNL     1      15.632   7.399   3.413  0.00  0.00    +0.033 A 
BRANCH  28   9
ATOM      6  O   UNL     1      16.452   9.434   1.351  0.00  0.00    -0.276 OA
ATOM      9  N   UNL     1      16.590   7.328   2.401  0.00  0.00    -0.286 N 
ATOM     31  C   UNL     1      16.931   8.311   1.463  0.00  0.00    +0.214 C 
ATOM     32  C   UNL     1      18.022   7.841   0.534  0.00  0.00    +0.109 C 
ATOM     33  H   UNL     1      17.099   6.448   2.347  0.00  0.00    +0.155 HD
ENDBRANCH  28   9
ENDBRANCH   1  21
ENDBRANCH   7   1
TORSDOF 4
ENDMDL
MODEL 3
REMARK VINA RESULT:      -6.5     19.480     20.692
REMARK  Name = 23757077
REMARK  5 active torsions:
REMARK  status: ('A' for Active; 'I' for Inactive)
REMARK    1  A    between atoms: S_1  and  N_7
REMARK    2  A    between atoms: S_1  and  C_21
REMARK    3  A    between atoms: N_9  and  C_28
REMARK    4  A    between atoms: C_19  and  C_22
REMARK    5  A    between atoms: C_31  and  C_32
REMARK                            x       y       z     vdW  Elec       q    Type
REMARK                         _______ _______ _______ _____ _____    ______ ____
ROOT
ATOM      5  O   UNL     1      -7.762  -8.972  17.130  0.00  0.00    -0.267 OA
ATOM      7  N   UNL     1      -3.813 -11.714  15.826  0.00  0.00    -0.176 NA
ATOM      8  N   UNL     1      -6.633 -11.011  17.065  0.00  0.00    -0.311 N 
ATOM     10  C   UNL     1      -4.384 -11.381  18.234  0.00  0.00    +0.025 C 
ATOM     11  C   UNL     1      -5.422 -13.220  16.979  0.00  0.00    +0.052 C 
ATOM     12  C   UNL     1      -4.833 -12.833  18.333  0.00  0.00    +0.017 C 
ATOM     13  C   UNL     1      -3.314 -11.220  17.141  0.00  0.00    +0.114 C 
ATOM     14  C   UNL     1      -4.334 -13.112  15.894  0.00  0.00    +0.119 C 
ATOM     15  C   UNL     1      -5.611 -10.496  17.986  0.00  0.00    +0.130 C 
ATOM     16  C   UNL     1      -6.606 -12.338  16.626  0.00  0.00    +0.026 A 
ATOM     17  C   UNL     1      -7.611 -12.821  15.879  0.00  0.00    +0.022 A 
ATOM     18  C   UNL     1      -7.687 -10.137  16.737  0.00  0.00    +0.260 A 
ATOM     19  C   UNL     1      -8.778 -10.701  15.868  0.00  0.00    +0.053 A 
ATOM     20  C   UNL     1      -8.713 -11.986  15.492  0.00  0.00    +0.016 A 
ENDROOT
BRANCH  19  22
ATOM      2  S   UNL     1     -11.258  -9.761  16.457  0.00  0.00    -0.096 S 
ATOM     22  C   UNL     1      -9.875  -9.883  15.453  0.00  0.00    +0.024 A 
ATOM     27  C   UNL     1     -10.001  -9.131  14.306  0.00  0.00    +0.016 A 
ATOM     29  C   UNL     1     -11.249  -8.447  14.248  0.00  0.00    +0.008 A 
ATOM     30  C   UNL     1     -12.029  -8.701  15.355  0.00  0.00    +0.046 A 
ENDBRANCH  19  22
BRANCH   7   1
ATOM      1  S   UNL     1      -2.822 -11.359  14.477  0.00  0.00    +0.061 S 
ATOM      3  O   UNL     1      -2.404 -12.598  13.857  0.00  0.00    -0.153 OA
ATOM      4  O   UNL     1      -1.855 -10.352  14.855  0.00  0.00    -0.153 OA
BRANCH   1  21
ATOM     21  C   UNL     1      -4.009 -10.598  13.413  0.00  0.00    +0.106 A 
ATOM     23  C   UNL     1      -5.285 -10.300  13.893  0.00  0.00    +0.030 A 
ATOM     24  C   UNL     1      -3.671 -10.297  12.095  0.00  0.00    +0.030 A 
ATOM     25  C   UNL     1      -6.223  -9.699  13.053  0.00  0.00    +0.025 A 
ATOM     26  C   UNL     1      -4.609  -9.696  11.254  0.00  0.00    +0.025 A 
ATOM     28  C   UNL     1      -5.885  -9.397  11.733  0.00  0.00    +0.033 A 
BRANCH  28   9
ATOM      6  O   UNL     1      -7.611 -10.579   9.567  0.00  0.00    -0.276 OA
ATOM      9  N   UNL     1      -6.823  -8.797  10.894  0.00  0.00    -0.286 N 
ATOM     31  C   UNL     1      -7.602  -9.398   9.896  0.00  0.00    +0.214 C 
ATOM     32  C   UNL     1      -8.500  -8.399   9.211  0.00  0.00    +0.109 C 
ATOM     33  H   UNL     1      -6.952  -7.796  11.032  0.00  0.00    +0.155 HD
ENDBRANCH  28   9
ENDBRANCH   1  21
ENDBRANCH   7   1
TORSDOF 4
ENDMDL
MODEL 4
REMARK VINA RESULT:      -6.3     30.207     31.777
REMARK  Name = 23757077
REMARK  5 active torsions:
REMARK  status: ('A' for Active; 'I' for Inactive)
REMARK    1  A    between atoms: S_1  and  N_7
REMARK    2  A    between atoms: S_1  and  C_21
REMARK    3  A    between atoms: N_9  and  C_28
REMARK    4  A    between atoms: C_19  and  C_22
REMARK    5  A    between atoms: C_31  and  C_32
REMARK                            x       y       z     vdW  Elec       q    Type
REMARK                         _______ _______ _______ _____ _____    ______ ____
ROOT
ATOM      5  O   UNL     1       9.414  -9.413  32.857  0.00  0.00    -0.267 OA
ATOM      7  N   UNL     1       8.391  -5.922  36.261  0.00  0.00    -0.176 NA
ATOM      8  N   UNL     1       8.713  -7.260  33.417  0.00  0.00    -0.311 N 
ATOM     10  C   UNL     1      10.234  -5.580  34.612  0.00  0.00    +0.025 C 
ATOM     11  C   UNL     1       7.937  -4.940  34.022  0.00  0.00    +0.052 C 
ATOM     12  C   UNL     1       9.401  -4.528  33.892  0.00  0.00    +0.017 C 
ATOM     13  C   UNL     1       9.848  -5.652  36.098  0.00  0.00    +0.114 C 
ATOM     14  C   UNL     1       7.536  -4.955  35.509  0.00  0.00    +0.119 C 
ATOM     15  C   UNL     1      10.061  -6.926  33.897  0.00  0.00    +0.130 C 
ATOM     16  C   UNL     1       7.695  -6.302  33.397  0.00  0.00    +0.026 A 
ATOM     17  C   UNL     1       6.506  -6.593  32.848  0.00  0.00    +0.022 A 
ATOM     18  C   UNL     1       8.533  -8.552  32.886  0.00  0.00    +0.260 A 
ATOM     19  C   UNL     1       7.176  -8.856  32.312  0.00  0.00    +0.053 A 
ATOM     20  C   UNL     1       6.244  -7.894  32.299  0.00  0.00    +0.016 A 
ENDROOT
BRANCH  19  22
ATOM      2  S   UNL     1       6.476 -11.426  32.847  0.00  0.00    -0.096 S 
ATOM     22  C   UNL     1       6.885 -10.150  31.779  0.00  0.00    +0.024 A 
ATOM     27  C   UNL     1       6.878 -10.556  30.462  0.00  0.00    +0.016 A 
ATOM     29  C   UNL     1       6.536 -11.932  30.329  0.00  0.00    +0.008 A 
ATOM     30  C   UNL     1       6.292 -12.525  31.547  0.00  0.00    +0.046 A 
ENDBRANCH  19  22
BRANCH   7   1
ATOM      1  S   UNL     1       7.877  -6.280  37.854  0.00  0.00    +0.061 S 
ATOM      3  O   UNL     1       7.398  -5.067  38.481  0.00  0.00    -0.153 OA
ATOM      4  O   UNL     1       8.876  -7.106  38.496  0.00  0.00    -0.153 OA
BRANCH   1  21
ATOM     21  C   UNL     1       6.475  -7.296  37.505  0.00  0.00    +0.106 A 
ATOM     23  C   UNL     1       6.538  -8.242  36.482  0.00  0.00    +0.030 A 
ATOM     24  C   UNL     1       5.307  -7.152  38.253  0.00  0.00    +0.030 A 
ATOM     25  C   UNL     1       5.430  -9.045  36.207  0.00  0.00    +0.025 A 
ATOM     26  C   UNL     1       4.200  -7.955  37.978  0.00  0.00    +0.025 A 
ATOM     28  C   UNL     1       4.261  -8.901  36.955  0.00  0.00    +0.033 A 
BRANCH  28   9
ATOM      6  O   UNL     1       3.503 -11.618  38.010  0.00  0.00    -0.276 OA
ATOM      9  N   UNL     1       3.154  -9.704  36.679  0.00  0.00    -0.286 N 
ATOM     31  C   UNL     1       2.850 -10.969  37.200  0.00  0.00    +0.214 C 
ATOM     32  C   UNL     1       1.554 -11.504  36.647  0.00  0.00    +0.109 C 
ATOM     33  H   UNL     1       2.489  -9.313  36.014  0.00  0.00    +0.155 HD
ENDBRANCH  28   9
ENDBRANCH   1  21
ENDBRANCH   7   1
TORSDOF 4
ENDMDL
MODEL 5
REMARK VINA RESULT:      -6.2     19.818     20.868
REMARK  Name = 23757077
REMARK  5 active torsions:
REMARK  status: ('A' for Active; 'I' for Inactive)
REMARK    1  A    between atoms: S_1  and  N_7
REMARK    2  A    between atoms: S_1  and  C_21
REMARK    3  A    between atoms: N_9  and  C_28
REMARK    4  A    between atoms: C_19  and  C_22
REMARK    5  A    between atoms: C_31  and  C_32
REMARK                            x       y       z     vdW  Elec       q    Type
REMARK                         _______ _______ _______ _____ _____    ______ ____
ROOT
ATOM      5  O   UNL     1      -3.404  -9.992  16.485  0.00  0.00    -0.267 OA
ATOM      7  N   UNL     1      -4.428 -10.706  11.662  0.00  0.00    -0.176 NA
ATOM      8  N   UNL     1      -3.486 -11.368  14.605  0.00  0.00    -0.311 N 
ATOM     10  C   UNL     1      -2.087 -10.922  12.505  0.00  0.00    +0.025 C 
ATOM     11  C   UNL     1      -3.592 -12.862  12.577  0.00  0.00    +0.052 C 
ATOM     12  C   UNL     1      -2.152 -12.430  12.312  0.00  0.00    +0.017 C 
ATOM     13  C   UNL     1      -3.029 -10.209  11.521  0.00  0.00    +0.114 C 
ATOM     14  C   UNL     1      -4.527 -12.193  11.554  0.00  0.00    +0.119 C 
ATOM     15  C   UNL     1      -2.413 -10.593  13.968  0.00  0.00    +0.130 C 
ATOM     16  C   UNL     1      -4.017 -12.507  13.991  0.00  0.00    +0.026 A 
ATOM     17  C   UNL     1      -4.913 -13.267  14.640  0.00  0.00    +0.022 A 
ATOM     18  C   UNL     1      -3.871 -10.969  15.900  0.00  0.00    +0.260 A 
ATOM     19  C   UNL     1      -4.904 -11.823  16.583  0.00  0.00    +0.053 A 
ATOM     20  C   UNL     1      -5.364 -12.915  15.956  0.00  0.00    +0.016 A 
ENDROOT
BRANCH  19  22
ATOM      2  S   UNL     1      -6.754 -10.464  18.035  0.00  0.00    -0.096 S 
ATOM     22  C   UNL     1      -5.384 -11.482  17.885  0.00  0.00    +0.024 A 
ATOM     27  C   UNL     1      -4.891 -11.868  19.112  0.00  0.00    +0.016 A 
ATOM     29  C   UNL     1      -5.645 -11.320  20.189  0.00  0.00    +0.008 A 
ATOM     30  C   UNL     1      -6.687 -10.538  19.744  0.00  0.00    +0.046 A 
ENDBRANCH  19  22
BRANCH   7   1
ATOM      1  S   UNL     1      -5.619  -9.821  10.811  0.00  0.00    +0.061 S 
ATOM      3  O   UNL     1      -6.077 -10.606   9.685  0.00  0.00    -0.153 OA
ATOM      4  O   UNL     1      -5.156  -8.461  10.631  0.00  0.00    -0.153 OA
BRANCH   1  21
ATOM     21  C   UNL     1      -6.910  -9.800  12.015  0.00  0.00    +0.106 A 
ATOM     23  C   UNL     1      -6.598  -9.889  13.372  0.00  0.00    +0.030 A 
ATOM     24  C   UNL     1      -8.240  -9.694  11.609  0.00  0.00    +0.030 A 
ATOM     25  C   UNL     1      -7.618  -9.873  14.324  0.00  0.00    +0.025 A 
ATOM     26  C   UNL     1      -9.260  -9.678  12.561  0.00  0.00    +0.025 A 
ATOM     28  C   UNL     1      -8.949  -9.767  13.918  0.00  0.00    +0.033 A 
BRANCH  28   9
ATOM      6  O   UNL     1      -9.924  -7.547  15.703  0.00  0.00    -0.276 OA
ATOM      9  N   UNL     1      -9.969  -9.751  14.871  0.00  0.00    -0.286 N 
ATOM     31  C   UNL     1     -10.381  -8.684  15.679  0.00  0.00    +0.214 C 
ATOM     32  C   UNL     1     -11.523  -9.076  16.582  0.00  0.00    +0.109 C 
ATOM     33  H   UNL     1     -10.469 -10.631  14.985  0.00  0.00    +0.155 HD
ENDBRANCH  28   9
ENDBRANCH   1  21
ENDBRANCH   7   1
TORSDOF 4
ENDMDL
MODEL 6
REMARK VINA RESULT:      -6.2     20.072     21.643
REMARK  Name = 23757077
REMARK  5 active torsions:
REMARK  status: ('A' for Active; 'I' for Inactive)
REMARK    1  A    between atoms: S_1  and  N_7
REMARK    2  A    between atoms: S_1  and  C_21
REMARK    3  A    between atoms: N_9  and  C_28
REMARK    4  A    between atoms: C_19  and  C_22
REMARK    5  A    between atoms: C_31  and  C_32
REMARK                            x       y       z     vdW  Elec       q    Type
REMARK                         _______ _______ _______ _____ _____    ______ ____
ROOT
ATOM      5  O   UNL     1      -7.877 -12.395  12.467  0.00  0.00    -0.267 OA
ATOM      7  N   UNL     1      -3.004 -11.383  12.695  0.00  0.00    -0.176 NA
ATOM      8  N   UNL     1      -5.931 -11.529  11.516  0.00  0.00    -0.311 N 
ATOM     10  C   UNL     1      -3.887 -12.981  10.991  0.00  0.00    +0.025 C 
ATOM     11  C   UNL     1      -3.834 -10.576  10.494  0.00  0.00    +0.052 C 
ATOM     12  C   UNL     1      -3.621 -11.962   9.891  0.00  0.00    +0.017 C 
ATOM     13  C   UNL     1      -2.917 -12.774  12.166  0.00  0.00    +0.114 C 
ATOM     14  C   UNL     1      -2.823 -10.349  11.633  0.00  0.00    +0.119 C 
ATOM     15  C   UNL     1      -5.356 -12.877  11.421  0.00  0.00    +0.130 C 
ATOM     16  C   UNL     1      -5.253 -10.417  11.010  0.00  0.00    +0.026 A 
ATOM     17  C   UNL     1      -5.845  -9.212  11.001  0.00  0.00    +0.022 A 
ATOM     18  C   UNL     1      -7.235 -11.434  12.041  0.00  0.00    +0.260 A 
ATOM     19  C   UNL     1      -7.854 -10.063  12.049  0.00  0.00    +0.053 A 
ATOM     20  C   UNL     1      -7.167  -9.034  11.533  0.00  0.00    +0.016 A 
ENDROOT
BRANCH  19  22
ATOM      2  S   UNL     1      -9.328  -9.478  14.254  0.00  0.00    -0.096 S 
ATOM     22  C   UNL     1      -9.161  -9.857  12.592  0.00  0.00    +0.024 A 
ATOM     27  C   UNL     1     -10.378  -9.918  11.950  0.00  0.00    +0.016 A 
ATOM     29  C   UNL     1     -11.463  -9.651  12.834  0.00  0.00    +0.008 A 
ATOM     30  C   UNL     1     -11.033  -9.396  14.117  0.00  0.00    +0.046 A 
ENDBRANCH  19  22
BRANCH   7   1
ATOM      1  S   UNL     1      -2.169 -11.094  14.160  0.00  0.00    +0.061 S 
ATOM      3  O   UNL     1      -1.500  -9.813  14.079  0.00  0.00    -0.153 OA
ATOM      4  O   UNL     1      -1.445 -12.290  14.534  0.00  0.00    -0.153 OA
BRANCH   1  21
ATOM     21  C   UNL     1      -3.535 -10.919  15.266  0.00  0.00    +0.106 A 
ATOM     23  C   UNL     1      -3.337 -11.035  16.642  0.00  0.00    +0.030 A 
ATOM     24  C   UNL     1      -4.810 -10.665  14.763  0.00  0.00    +0.030 A 
ATOM     25  C   UNL     1      -4.416 -10.897  17.515  0.00  0.00    +0.025 A 
ATOM     26  C   UNL     1      -5.889 -10.527  15.637  0.00  0.00    +0.025 A 
ATOM     28  C   UNL     1      -5.693 -10.643  17.013  0.00  0.00    +0.033 A 
BRANCH  28   9
ATOM      6  O   UNL     1      -7.317 -12.726  18.458  0.00  0.00    -0.276 OA
ATOM      9  N   UNL     1      -6.771 -10.505  17.887  0.00  0.00    -0.286 N 
ATOM     31  C   UNL     1      -7.495 -11.516  18.534  0.00  0.00    +0.214 C 
ATOM     32  C   UNL     1      -8.591 -10.949  19.400  0.00  0.00    +0.109 C 
ATOM     33  H   UNL     1      -7.060  -9.547  18.072  0.00  0.00    +0.155 HD
ENDBRANCH  28   9
ENDBRANCH   1  21
ENDBRANCH   7   1
TORSDOF 4
ENDMDL
MODEL 7
REMARK VINA RESULT:      -6.0     39.787     41.475
REMARK  Name = 23757077
REMARK  5 active torsions:
REMARK  status: ('A' for Active; 'I' for Inactive)
REMARK    1  A    between atoms: S_1  and  N_7
REMARK    2  A    between atoms: S_1  and  C_21
REMARK    3  A    between atoms: N_9  and  C_28
REMARK    4  A    between atoms: C_19  and  C_22
REMARK    5  A    between atoms: C_31  and  C_32
REMARK                            x       y       z     vdW  Elec       q    Type
REMARK                         _______ _______ _______ _____ _____    ______ ____
ROOT
ATOM      5  O   UNL     1      21.560  -7.116  -1.544  0.00  0.00    -0.267 OA
ATOM      7  N   UNL     1      22.860  -7.478   3.252  0.00  0.00    -0.176 NA
ATOM      8  N   UNL     1      22.086  -6.128   0.502  0.00  0.00    -0.311 N 
ATOM     10  C   UNL     1      24.384  -6.379   1.607  0.00  0.00    +0.025 C 
ATOM     11  C   UNL     1      22.635  -5.060   2.718  0.00  0.00    +0.052 C 
ATOM     12  C   UNL     1      24.079  -5.021   2.224  0.00  0.00    +0.017 C 
ATOM     13  C   UNL     1      24.224  -7.497   2.651  0.00  0.00    +0.114 C 
ATOM     14  C   UNL     1      22.490  -6.140   3.805  0.00  0.00    +0.119 C 
ATOM     15  C   UNL     1      23.477  -6.586   0.387  0.00  0.00    +0.130 C 
ATOM     16  C   UNL     1      21.674  -5.330   1.574  0.00  0.00    +0.026 A 
ATOM     17  C   UNL     1      20.431  -4.827   1.601  0.00  0.00    +0.022 A 
ATOM     18  C   UNL     1      21.225  -6.443  -0.568  0.00  0.00    +0.260 A 
ATOM     19  C   UNL     1      19.828  -5.892  -0.487  0.00  0.00    +0.053 A 
ATOM     20  C   UNL     1      19.493  -5.117   0.553  0.00  0.00    +0.016 A 
ENDROOT
BRANCH  19  22
ATOM      2  S   UNL     1      18.099  -4.893  -2.328  0.00  0.00    -0.096 S 
ATOM     22  C   UNL     1      18.871  -6.184  -1.508  0.00  0.00    +0.024 A 
ATOM     27  C   UNL     1      18.447  -7.413  -1.963  0.00  0.00    +0.016 A 
ATOM     29  C   UNL     1      17.475  -7.294  -2.998  0.00  0.00    +0.008 A 
ATOM     30  C   UNL     1      17.194  -5.979  -3.295  0.00  0.00    +0.046 A 
ENDBRANCH  19  22
BRANCH   7   1
ATOM      1  S   UNL     1      22.465  -8.820   4.236  0.00  0.00    +0.061 S 
ATOM      3  O   UNL     1      21.854  -8.347   5.460  0.00  0.00    -0.153 OA
ATOM      4  O   UNL     1      23.593  -9.727   4.270  0.00  0.00    -0.153 OA
BRANCH   1  21
ATOM     21  C   UNL     1      21.200  -9.564   3.254  0.00  0.00    +0.106 A 
ATOM     23  C   UNL     1      20.981 -10.940   3.326  0.00  0.00    +0.030 A 
ATOM     24  C   UNL     1      20.422  -8.776   2.408  0.00  0.00    +0.030 A 
ATOM     25  C   UNL     1      19.981 -11.527   2.549  0.00  0.00    +0.025 A 
ATOM     26  C   UNL     1      19.422  -9.363   1.631  0.00  0.00    +0.025 A 
ATOM     28  C   UNL     1      19.202 -10.739   1.702  0.00  0.00    +0.033 A 
BRANCH  28   9
ATOM      6  O   UNL     1      16.374 -11.500   2.403  0.00  0.00    -0.276 OA
ATOM      9  N   UNL     1      18.203 -11.327   0.926  0.00  0.00    -0.286 N 
ATOM     31  C   UNL     1      16.897 -11.663   1.306  0.00  0.00    +0.214 C 
ATOM     32  C   UNL     1      16.127 -12.284   0.168  0.00  0.00    +0.109 C 
ATOM     33  H   UNL     1      18.466 -11.534  -0.036  0.00  0.00    +0.155 HD
ENDBRANCH  28   9
ENDBRANCH   1  21
ENDBRANCH   7   1
TORSDOF 4
ENDMDL
MODEL 8
REMARK VINA RESULT:      -6.0     28.236     32.141
REMARK  Name = 23757077
REMARK  5 active torsions:
REMARK  status: ('A' for Active; 'I' for Inactive)
REMARK    1  A    between atoms: S_1  and  N_7
REMARK    2  A    between atoms: S_1  and  C_21
REMARK    3  A    between atoms: N_9  and  C_28
REMARK    4  A    between atoms: C_19  and  C_22
REMARK    5  A    between atoms: C_31  and  C_32
REMARK                            x       y       z     vdW  Elec       q    Type
REMARK                         _______ _______ _______ _____ _____    ______ ____
ROOT
ATOM      5  O   UNL     1      13.778   7.613  -0.205  0.00  0.00    -0.267 OA
ATOM      7  N   UNL     1      10.828   5.838   3.396  0.00  0.00    -0.176 NA
ATOM      8  N   UNL     1      12.595   5.860   0.777  0.00  0.00    -0.311 N 
ATOM     10  C   UNL     1      10.045   5.882   1.026  0.00  0.00    +0.025 C 
ATOM     11  C   UNL     1      11.333   3.959   1.848  0.00  0.00    +0.052 C 
ATOM     12  C   UNL     1      10.166   4.366   0.953  0.00  0.00    +0.017 C 
ATOM     13  C   UNL     1       9.771   6.335   2.469  0.00  0.00    +0.114 C 
ATOM     14  C   UNL     1      11.031   4.362   3.303  0.00  0.00    +0.119 C 
ATOM     15  C   UNL     1      11.320   6.511   0.448  0.00  0.00    +0.130 C 
ATOM     16  C   UNL     1      12.628   4.600   1.382  0.00  0.00    +0.026 A 
ATOM     17  C   UNL     1      13.799   3.972   1.569  0.00  0.00    +0.022 A 
ATOM     18  C   UNL     1      13.768   6.518   0.359  0.00  0.00    +0.260 A 
ATOM     19  C   UNL     1      15.065   5.802   0.616  0.00  0.00    +0.053 A 
ATOM     20  C   UNL     1      15.037   4.587   1.181  0.00  0.00    +0.016 A 
ENDROOT
BRANCH  19  22
ATOM      2  S   UNL     1      17.070   5.952  -1.210  0.00  0.00    -0.096 S 
ATOM     22  C   UNL     1      16.312   6.403   0.258  0.00  0.00    +0.024 A 
ATOM     27  C   UNL     1      17.042   7.344   0.949  0.00  0.00    +0.016 A 
ATOM     29  C   UNL     1      18.240   7.700   0.265  0.00  0.00    +0.008 A 
ATOM     30  C   UNL     1      18.379   7.017  -0.923  0.00  0.00    +0.046 A 
ENDBRANCH  19  22
BRANCH   7   1
ATOM      1  S   UNL     1      10.784   6.481   4.981  0.00  0.00    +0.061 S 
ATOM      3  O   UNL     1      10.518   5.411   5.919  0.00  0.00    -0.153 OA
ATOM      4  O   UNL     1       9.983   7.686   4.979  0.00  0.00    -0.153 OA
BRANCH   1  21
ATOM     21  C   UNL     1      12.475   6.954   5.170  0.00  0.00    +0.106 A 
ATOM     23  C   UNL     1      13.060   6.957   6.436  0.00  0.00    +0.030 A 
ATOM     24  C   UNL     1      13.224   7.324   4.054  0.00  0.00    +0.030 A 
ATOM     25  C   UNL     1      14.396   7.331   6.586  0.00  0.00    +0.025 A 
ATOM     26  C   UNL     1      14.560   7.698   4.203  0.00  0.00    +0.025 A 
ATOM     28  C   UNL     1      15.146   7.702   5.469  0.00  0.00    +0.033 A 
BRANCH  28   9
ATOM      6  O   UNL     1      16.381  10.414   5.902  0.00  0.00    -0.276 OA
ATOM      9  N   UNL     1      16.482   8.076   5.619  0.00  0.00    -0.286 N 
ATOM     31  C   UNL     1      17.004   9.361   5.818  0.00  0.00    +0.214 C 
ATOM     32  C   UNL     1      18.507   9.342   5.934  0.00  0.00    +0.109 C 
ATOM     33  H   UNL     1      17.154   7.312   5.578  0.00  0.00    +0.155 HD
ENDBRANCH  28   9
ENDBRANCH   1  21
ENDBRANCH   7   1
TORSDOF 4
ENDMDL
MODEL 9
REMARK VINA RESULT:      -6.0     27.529     30.609
REMARK  Name = 23757077
REMARK  5 active torsions:
REMARK  status: ('A' for Active; 'I' for Inactive)
REMARK    1  A    between atoms: S_1  and  N_7
REMARK    2  A    between atoms: S_1  and  C_21
REMARK    3  A    between atoms: N_9  and  C_28
REMARK    4  A    between atoms: C_19  and  C_22
REMARK    5  A    between atoms: C_31  and  C_32
REMARK                            x       y       z     vdW  Elec       q    Type
REMARK                         _______ _______ _______ _____ _____    ______ ____
ROOT
ATOM      5  O   UNL     1      12.092   7.876   2.026  0.00  0.00    -0.267 OA
ATOM      7  N   UNL     1      13.431   4.133  -0.977  0.00  0.00    -0.176 NA
ATOM      8  N   UNL     1      12.686   5.645   1.695  0.00  0.00    -0.311 N 
ATOM     10  C   UNL     1      14.983   4.945   0.802  0.00  0.00    +0.025 C 
ATOM     11  C   UNL     1      13.308   3.230   1.336  0.00  0.00    +0.052 C 
ATOM     12  C   UNL     1      14.746   3.668   1.598  0.00  0.00    +0.017 C 
ATOM     13  C   UNL     1      14.786   4.691  -0.701  0.00  0.00    +0.114 C 
ATOM     14  C   UNL     1      13.128   2.919  -0.161  0.00  0.00    +0.119 C 
ATOM     15  C   UNL     1      14.053   6.043   1.336  0.00  0.00    +0.130 C 
ATOM     16  C   UNL     1      12.323   4.297   1.775  0.00  0.00    +0.026 A 
ATOM     17  C   UNL     1      11.103   3.953   2.217  0.00  0.00    +0.022 A 
ATOM     18  C   UNL     1      11.799   6.680   2.053  0.00  0.00    +0.260 A 
ATOM     19  C   UNL     1      10.429   6.259   2.509  0.00  0.00    +0.053 A 
ATOM     20  C   UNL     1      10.141   4.953   2.586  0.00  0.00    +0.016 A 
ENDROOT
BRANCH  19  22
ATOM      2  S   UNL     1       8.966   7.389   4.499  0.00  0.00    -0.096 S 
ATOM     22  C   UNL     1       9.447   7.237   2.862  0.00  0.00    +0.024 A 
ATOM     27  C   UNL     1       8.790   8.129   2.045  0.00  0.00    +0.016 A 
ATOM     29  C   UNL     1       7.878   8.948   2.771  0.00  0.00    +0.008 A 
ATOM     30  C   UNL     1       7.874   8.651   4.115  0.00  0.00    +0.046 A 
ENDBRANCH  19  22
BRANCH   7   1
ATOM      1  S   UNL     1      12.988   4.045  -2.628  0.00  0.00    +0.061 S 
ATOM      3  O   UNL     1      12.824   2.656  -3.000  0.00  0.00    -0.153 OA
ATOM      4  O   UNL     1      13.846   4.924  -3.393  0.00  0.00    -0.153 OA
BRANCH   1  21
ATOM     21  C   UNL     1      11.383   4.777  -2.558  0.00  0.00    +0.106 A 
ATOM     23  C   UNL     1      10.462   4.535  -3.577  0.00  0.00    +0.030 A 
ATOM     24  C   UNL     1      11.038   5.597  -1.484  0.00  0.00    +0.030 A 
ATOM     25  C   UNL     1       9.194   5.114  -3.522  0.00  0.00    +0.025 A 
ATOM     26  C   UNL     1       9.769   6.176  -1.429  0.00  0.00    +0.025 A 
ATOM     28  C   UNL     1       8.847   5.934  -2.448  0.00  0.00    +0.033 A 
BRANCH  28   9
ATOM      6  O   UNL     1       7.907   8.669  -3.288  0.00  0.00    -0.276 OA
ATOM      9  N   UNL     1       7.579   6.513  -2.394  0.00  0.00    -0.286 N 
ATOM     31  C   UNL     1       7.196   7.798  -2.800  0.00  0.00    +0.214 C 
ATOM     32  C   UNL     1       5.725   8.040  -2.575  0.00  0.00    +0.109 C 
ATOM     33  H   UNL     1       6.847   5.918  -2.010  0.00  0.00    +0.155 HD
ENDBRANCH  28   9
ENDBRANCH   1  21
ENDBRANCH   7   1
TORSDOF 4
ENDMDL
MODEL 10
REMARK VINA RESULT:      -5.9     14.535     17.419
REMARK  Name = 23757077
REMARK  5 active torsions:
REMARK  status: ('A' for Active; 'I' for Inactive)
REMARK    1  A    between atoms: S_1  and  N_7
REMARK    2  A    between atoms: S_1  and  C_21
REMARK    3  A    between atoms: N_9  and  C_28
REMARK    4  A    between atoms: C_19  and  C_22
REMARK    5  A    between atoms: C_31  and  C_32
REMARK                            x       y       z     vdW  Elec       q    Type
REMARK                         _______ _______ _______ _____ _____    ______ ____
ROOT
ATOM      5  O   UNL     1      -6.466  10.068   5.423  0.00  0.00    -0.267 OA
ATOM      7  N   UNL     1      -1.701  10.560   4.054  0.00  0.00    -0.176 NA
ATOM      8  N   UNL     1      -4.216   9.500   5.647  0.00  0.00    -0.311 N 
ATOM     10  C   UNL     1      -2.429  11.192   6.358  0.00  0.00    +0.025 C 
ATOM     11  C   UNL     1      -1.786   8.871   5.877  0.00  0.00    +0.052 C 
ATOM     12  C   UNL     1      -1.705   9.979   6.925  0.00  0.00    +0.017 C 
ATOM     13  C   UNL     1      -1.759  11.663   5.056  0.00  0.00    +0.114 C 
ATOM     14  C   UNL     1      -1.064   9.321   4.594  0.00  0.00    +0.119 C 
ATOM     15  C   UNL     1      -3.909  10.842   6.160  0.00  0.00    +0.130 C 
ATOM     16  C   UNL     1      -3.229   8.512   5.572  0.00  0.00    +0.026 A 
ATOM     17  C   UNL     1      -3.554   7.261   5.211  0.00  0.00    +0.022 A 
ATOM     18  C   UNL     1      -5.564   9.233   5.339  0.00  0.00    +0.260 A 
ATOM     19  C   UNL     1      -5.886   7.830   4.903  0.00  0.00    +0.053 A 
ATOM     20  C   UNL     1      -4.905   6.917   4.869  0.00  0.00    +0.016 A 
ENDROOT
BRANCH  19  22
ATOM      2  S   UNL     1      -8.183   6.583   5.642  0.00  0.00    -0.096 S 
ATOM     22  C   UNL     1      -7.220   7.469   4.537  0.00  0.00    +0.024 A 
ATOM     27  C   UNL     1      -7.893   7.740   3.366  0.00  0.00    +0.016 A 
ATOM     29  C   UNL     1      -9.216   7.212   3.375  0.00  0.00    +0.008 A 
ATOM     30  C   UNL     1      -9.504   6.559   4.553  0.00  0.00    +0.046 A 
ENDBRANCH  19  22
BRANCH   7   1
ATOM      1  S   UNL     1      -1.215  11.015   2.478  0.00  0.00    +0.061 S 
ATOM      3  O   UNL     1      -0.328  10.004   1.946  0.00  0.00    -0.153 OA
ATOM      4  O   UNL     1      -0.833  12.411   2.488  0.00  0.00    -0.153 OA
BRANCH   1  21
ATOM     21  C   UNL     1      -2.757  10.881   1.628  0.00  0.00    +0.106 A 
ATOM     23  C   UNL     1      -2.917  11.478   0.378  0.00  0.00    +0.030 A 
ATOM     24  C   UNL     1      -3.813  10.178   2.207  0.00  0.00    +0.030 A 
ATOM     25  C   UNL     1      -4.136  11.373  -0.294  0.00  0.00    +0.025 A 
ATOM     26  C   UNL     1      -5.031  10.072   1.535  0.00  0.00    +0.025 A 
ATOM     28  C   UNL     1      -5.193  10.669   0.284  0.00  0.00    +0.033 A 
BRANCH  28   9
ATOM      6  O   UNL     1      -6.032   8.858  -1.970  0.00  0.00    -0.276 OA
ATOM      9  N   UNL     1      -6.411  10.564  -0.388  0.00  0.00    -0.286 N 
ATOM     31  C   UNL     1      -6.748   9.699  -1.438  0.00  0.00    +0.214 C 
ATOM     32  C   UNL     1      -8.172   9.899  -1.890  0.00  0.00    +0.109 C 
ATOM     33  H   UNL     1      -7.139  11.200  -0.068  0.00  0.00    +0.155 HD
ENDBRANCH  28   9
ENDBRANCH   1  21
ENDBRANCH   7   1
TORSDOF 4
ENDMDL
