MODEL 1
REMARK VINA RESULT:      -7.4      0.000      0.000
REMARK  Name = 11911716
REMARK  7 active torsions:
REMARK  status: ('A' for Active; 'I' for Inactive)
REMARK    1  A    between atoms: N_4  and  C_11
REMARK    2  A    between atoms: N_5  and  C_12
REMARK    3  A    between atoms: N_8  and  C_29
REMARK    4  A    between atoms: N_8  and  C_32
REMARK    5  A    between atoms: N_8  and  C_33
REMARK    6  A    between atoms: C_16  and  C_17
REMARK    7  A    between atoms: C_18  and  C_23
REMARK                            x       y       z     vdW  Elec       q    Type
REMARK                         _______ _______ _______ _____ _____    ______ ____
ROOT
ATOM      1  O   UNL     1      -4.943  -8.689  10.094  0.00  0.00    -0.370 OA
ATOM      2  O   UNL     1      -6.019 -11.617  10.042  0.00  0.00    -0.370 OA
ATOM      9  C   UNL     1      -4.737 -11.045  10.349  0.00  0.00    +0.171 C 
ATOM     10  C   UNL     1      -4.527  -9.879   9.404  0.00  0.00    +0.171 C 
ATOM     11  C   UNL     1      -4.760 -10.410  11.720  0.00  0.00    +0.130 C 
ATOM     12  C   UNL     1      -5.456 -10.170   8.248  0.00  0.00    +0.130 C 
ATOM     13  C   UNL     1      -5.318  -9.028  11.437  0.00  0.00    +0.185 C 
ATOM     14  C   UNL     1      -6.589 -10.921   8.925  0.00  0.00    +0.185 C 
ENDROOT
BRANCH  11   4
ATOM      4  N   UNL     1      -3.414 -10.310  12.242  0.00  0.00    -0.306 N 
ATOM      6  N   UNL     1      -4.127 -10.659  14.450  0.00  0.00    -0.214 NA
ATOM      7  N   UNL     1      -1.796 -10.319  13.941  0.00  0.00    -0.223 NA
ATOM     15  C   UNL     1      -3.103 -10.433  13.585  0.00  0.00    +0.216 A 
ATOM     18  C   UNL     1      -3.787 -10.774  15.751  0.00  0.00    +0.076 A 
ATOM     21  C   UNL     1      -1.528 -10.444  15.257  0.00  0.00    +0.116 A 
ATOM     22  C   UNL     1      -2.492 -10.675  16.218  0.00  0.00    +0.048 A 
ATOM     34  H   UNL     1      -2.639 -10.194  11.600  0.00  0.00    +0.149 HD
BRANCH  18  23
ATOM     23  C   UNL     1      -4.889 -11.014  16.653  0.00  0.00    +0.001 A 
ATOM     27  C   UNL     1      -4.643 -11.425  17.965  0.00  0.00    +0.012 A 
ATOM     28  C   UNL     1      -6.204 -10.839  16.216  0.00  0.00    +0.012 A 
ATOM     29  C   UNL     1      -7.020 -11.484  18.397  0.00  0.00    +0.029 A 
ATOM     30  C   UNL     1      -5.708 -11.659  18.835  0.00  0.00    +0.024 A 
ATOM     31  C   UNL     1      -7.267 -11.073  17.087  0.00  0.00    +0.024 A 
BRANCH  29   8
ATOM      8  N   UNL     1      -8.095 -11.719  19.277  0.00  0.00    -0.336 N 
ATOM     32  C   UNL     1      -9.187 -10.770  19.373  0.00  0.00    +0.129 C 
ATOM     33  C   UNL     1      -8.131 -12.919  20.089  0.00  0.00    +0.129 C 
ENDBRANCH  29   8
ENDBRANCH  18  23
ENDBRANCH  11   4
BRANCH  12   5
ATOM      3  O   UNL     1      -6.138 -10.337   5.464  0.00  0.00    -0.270 OA
ATOM      5  N   UNL     1      -4.810 -10.987   7.250  0.00  0.00    -0.304 N 
ATOM     16  C   UNL     1      -5.213 -11.000   5.922  0.00  0.00    +0.244 C 
ATOM     35  H   UNL     1      -4.113 -11.646   7.579  0.00  0.00    +0.149 HD
BRANCH  16  17
ATOM     17  C   UNL     1      -4.461 -11.915   5.025  0.00  0.00    +0.037 A 
ATOM     19  C   UNL     1      -3.290 -12.483   5.481  0.00  0.00    +0.013 A 
ATOM     20  C   UNL     1      -4.961 -12.170   3.764  0.00  0.00    +0.013 A 
ATOM     24  C   UNL     1      -2.585 -13.342   4.640  0.00  0.00    +0.001 A 
ATOM     25  C   UNL     1      -4.255 -13.030   2.922  0.00  0.00    +0.001 A 
ATOM     26  C   UNL     1      -3.067 -13.616   3.359  0.00  0.00    +0.000 A 
ENDBRANCH  16  17
ENDBRANCH  12   5
TORSDOF 5
ENDMDL
MODEL 2
REMARK VINA RESULT:      -7.3      7.775      9.194
REMARK  Name = 11911716
REMARK  7 active torsions:
REMARK  status: ('A' for Active; 'I' for Inactive)
REMARK    1  A    between atoms: N_4  and  C_11
REMARK    2  A    between atoms: N_5  and  C_12
REMARK    3  A    between atoms: N_8  and  C_29
REMARK    4  A    between atoms: N_8  and  C_32
REMARK    5  A    between atoms: N_8  and  C_33
REMARK    6  A    between atoms: C_16  and  C_17
REMARK    7  A    between atoms: C_18  and  C_23
REMARK                            x       y       z     vdW  Elec       q    Type
REMARK                         _______ _______ _______ _____ _____    ______ ____
ROOT
ATOM      1  O   UNL     1     -11.092  -6.061  16.566  0.00  0.00    -0.370 OA
ATOM      2  O   UNL     1     -12.556  -7.950  14.560  0.00  0.00    -0.370 OA
ATOM      9  C   UNL     1     -11.177  -7.593  14.747  0.00  0.00    +0.171 C 
ATOM     10  C   UNL     1     -11.139  -6.127  15.131  0.00  0.00    +0.171 C 
ATOM     11  C   UNL     1     -10.610  -8.305  15.954  0.00  0.00    +0.130 C 
ATOM     12  C   UNL     1     -12.454  -5.580  14.623  0.00  0.00    +0.130 C 
ATOM     13  C   UNL     1     -11.010  -7.392  17.097  0.00  0.00    +0.185 C 
ATOM     14  C   UNL     1     -13.372  -6.783  14.739  0.00  0.00    +0.185 C 
ENDROOT
BRANCH  11   4
ATOM      4  N   UNL     1      -9.168  -8.379  15.852  0.00  0.00    -0.306 N 
ATOM      6  N   UNL     1      -9.031 -10.070  17.474  0.00  0.00    -0.214 NA
ATOM      7  N   UNL     1      -7.046  -9.215  16.405  0.00  0.00    -0.223 NA
ATOM     15  C   UNL     1      -8.392  -9.248  16.599  0.00  0.00    +0.216 A 
ATOM     18  C   UNL     1      -8.244 -10.903  18.185  0.00  0.00    +0.076 A 
ATOM     21  C   UNL     1      -6.321 -10.075  17.150  0.00  0.00    +0.116 A 
ATOM     22  C   UNL     1      -6.869 -10.950  18.064  0.00  0.00    +0.048 A 
ATOM     34  H   UNL     1      -8.687  -7.808  15.167  0.00  0.00    +0.149 HD
BRANCH  18  23
ATOM     23  C   UNL     1      -8.942 -11.768  19.107  0.00  0.00    +0.001 A 
ATOM     27  C   UNL     1     -10.232 -11.443  19.532  0.00  0.00    +0.012 A 
ATOM     28  C   UNL     1      -8.330 -12.931  19.577  0.00  0.00    +0.012 A 
ATOM     29  C   UNL     1     -10.292 -13.439  20.892  0.00  0.00    +0.029 A 
ATOM     30  C   UNL     1     -10.905 -12.278  20.424  0.00  0.00    +0.024 A 
ATOM     31  C   UNL     1      -9.003 -13.765  20.468  0.00  0.00    +0.024 A 
BRANCH  29   8
ATOM      8  N   UNL     1     -10.973 -14.283  21.792  0.00  0.00    -0.336 N 
ATOM     32  C   UNL     1     -10.429 -15.582  22.135  0.00  0.00    +0.129 C 
ATOM     33  C   UNL     1     -12.220 -13.858  22.397  0.00  0.00    +0.129 C 
ENDBRANCH  29   8
ENDBRANCH  18  23
ENDBRANCH  11   4
BRANCH  12   5
ATOM      3  O   UNL     1     -13.969  -3.489  13.366  0.00  0.00    -0.270 OA
ATOM      5  N   UNL     1     -12.342  -5.137  13.254  0.00  0.00    -0.304 N 
ATOM     16  C   UNL     1     -13.121  -4.114  12.735  0.00  0.00    +0.244 C 
ATOM     35  H   UNL     1     -11.744  -5.685  12.644  0.00  0.00    +0.149 HD
BRANCH  16  17
ATOM     17  C   UNL     1     -12.904  -3.796  11.300  0.00  0.00    +0.037 A 
ATOM     19  C   UNL     1     -13.989  -3.452  10.522  0.00  0.00    +0.013 A 
ATOM     20  C   UNL     1     -11.623  -3.852  10.792  0.00  0.00    +0.013 A 
ATOM     24  C   UNL     1     -13.786  -3.153   9.175  0.00  0.00    +0.001 A 
ATOM     25  C   UNL     1     -11.418  -3.553   9.445  0.00  0.00    +0.001 A 
ATOM     26  C   UNL     1     -12.500  -3.203   8.636  0.00  0.00    +0.000 A 
ENDBRANCH  16  17
ENDBRANCH  12   5
TORSDOF 5
ENDMDL
MODEL 3
REMARK VINA RESULT:      -7.2     22.679     25.353
REMARK  Name = 11911716
REMARK  7 active torsions:
REMARK  status: ('A' for Active; 'I' for Inactive)
REMARK    1  A    between atoms: N_4  and  C_11
REMARK    2  A    between atoms: N_5  and  C_12
REMARK    3  A    between atoms: N_8  and  C_29
REMARK    4  A    between atoms: N_8  and  C_32
REMARK    5  A    between atoms: N_8  and  C_33
REMARK    6  A    between atoms: C_16  and  C_17
REMARK    7  A    between atoms: C_18  and  C_23
REMARK                            x       y       z     vdW  Elec       q    Type
REMARK                         _______ _______ _______ _____ _____    ______ ____
ROOT
ATOM      1  O   UNL     1       7.845   6.612  -5.990  0.00  0.00    -0.370 OA
ATOM      2  O   UNL     1       6.672   6.251  -3.121  0.00  0.00    -0.370 OA
ATOM      9  C   UNL     1       7.490   5.420  -3.962  0.00  0.00    +0.171 C 
ATOM     10  C   UNL     1       7.010   5.610  -5.386  0.00  0.00    +0.171 C 
ATOM     11  C   UNL     1       8.912   5.931  -3.980  0.00  0.00    +0.130 C 
ATOM     12  C   UNL     1       5.597   6.126  -5.234  0.00  0.00    +0.130 C 
ATOM     13  C   UNL     1       8.869   6.995  -5.060  0.00  0.00    +0.185 C 
ATOM     14  C   UNL     1       5.673   6.895  -3.926  0.00  0.00    +0.185 C 
ENDROOT
BRANCH  11   4
ATOM      4  N   UNL     1       9.815   4.867  -4.361  0.00  0.00    -0.306 N 
ATOM      6  N   UNL     1      10.534   4.538  -2.151  0.00  0.00    -0.214 NA
ATOM      7  N   UNL     1      11.417   3.200  -3.952  0.00  0.00    -0.223 NA
ATOM     15  C   UNL     1      10.612   4.181  -3.461  0.00  0.00    +0.216 A 
ATOM     18  C   UNL     1      11.325   3.849  -1.303  0.00  0.00    +0.076 A 
ATOM     21  C   UNL     1      12.180   2.553  -3.048  0.00  0.00    +0.116 A 
ATOM     22  C   UNL     1      12.177   2.836  -1.698  0.00  0.00    +0.048 A 
ATOM     34  H   UNL     1       9.842   4.558  -5.326  0.00  0.00    +0.149 HD
BRANCH  18  23
ATOM     23  C   UNL     1      11.227   4.243   0.083  0.00  0.00    +0.001 A 
ATOM     27  C   UNL     1      12.107   3.709   1.028  0.00  0.00    +0.012 A 
ATOM     28  C   UNL     1      10.250   5.157   0.484  0.00  0.00    +0.012 A 
ATOM     29  C   UNL     1      11.033   5.001   2.764  0.00  0.00    +0.029 A 
ATOM     30  C   UNL     1      12.009   4.089   2.367  0.00  0.00    +0.024 A 
ATOM     31  C   UNL     1      10.154   5.536   1.823  0.00  0.00    +0.024 A 
BRANCH  29   8
ATOM      8  N   UNL     1      10.936   5.386   4.117  0.00  0.00    -0.336 N 
ATOM     32  C   UNL     1      11.680   6.528   4.611  0.00  0.00    +0.129 C 
ATOM     33  C   UNL     1      10.082   4.652   5.030  0.00  0.00    +0.129 C 
ENDBRANCH  29   8
ENDBRANCH  18  23
ENDBRANCH  11   4
BRANCH  12   5
ATOM      3  O   UNL     1       2.737   6.331  -5.377  0.00  0.00    -0.270 OA
ATOM      5  N   UNL     1       4.650   5.041  -5.148  0.00  0.00    -0.304 N 
ATOM     16  C   UNL     1       3.279   5.239  -5.229  0.00  0.00    +0.244 C 
ATOM     35  H   UNL     1       5.022   4.128  -4.910  0.00  0.00    +0.149 HD
BRANCH  16  17
ATOM     17  C   UNL     1       2.438   4.022  -5.096  0.00  0.00    +0.037 A 
ATOM     19  C   UNL     1       2.912   2.827  -5.596  0.00  0.00    +0.013 A 
ATOM     20  C   UNL     1       1.210   4.126  -4.476  0.00  0.00    +0.013 A 
ATOM     24  C   UNL     1       2.123   1.684  -5.472  0.00  0.00    +0.001 A 
ATOM     25  C   UNL     1       0.420   2.983  -4.352  0.00  0.00    +0.001 A 
ATOM     26  C   UNL     1       0.876   1.761  -4.849  0.00  0.00    +0.000 A 
ENDBRANCH  16  17
ENDBRANCH  12   5
TORSDOF 5
ENDMDL
MODEL 4
REMARK VINA RESULT:      -7.1     27.929     32.419
REMARK  Name = 11911716
REMARK  7 active torsions:
REMARK  status: ('A' for Active; 'I' for Inactive)
REMARK    1  A    between atoms: N_4  and  C_11
REMARK    2  A    between atoms: N_5  and  C_12
REMARK    3  A    between atoms: N_8  and  C_29
REMARK    4  A    between atoms: N_8  and  C_32
REMARK    5  A    between atoms: N_8  and  C_33
REMARK    6  A    between atoms: C_16  and  C_17
REMARK    7  A    between atoms: C_18  and  C_23
REMARK                            x       y       z     vdW  Elec       q    Type
REMARK                         _______ _______ _______ _____ _____    ______ ____
ROOT
ATOM      1  O   UNL     1      11.167  13.561  24.168  0.00  0.00    -0.370 OA
ATOM      2  O   UNL     1      14.011  12.362  23.708  0.00  0.00    -0.370 OA
ATOM      9  C   UNL     1      12.720  11.773  23.939  0.00  0.00    +0.171 C 
ATOM     10  C   UNL     1      11.991  12.661  24.927  0.00  0.00    +0.171 C 
ATOM     11  C   UNL     1      11.879  11.847  22.686  0.00  0.00    +0.130 C 
ATOM     12  C   UNL     1      13.096  13.421  25.625  0.00  0.00    +0.130 C 
ATOM     13  C   UNL     1      11.271  13.233  22.774  0.00  0.00    +0.185 C 
ATOM     14  C   UNL     1      14.154  13.523  24.540  0.00  0.00    +0.185 C 
ENDROOT
BRANCH  11   4
ATOM      4  N   UNL     1      10.840  10.841  22.728  0.00  0.00    -0.306 N 
ATOM      6  N   UNL     1      12.289   9.155  21.975  0.00  0.00    -0.214 NA
ATOM      7  N   UNL     1       9.978   8.674  22.465  0.00  0.00    -0.223 NA
ATOM     15  C   UNL     1      11.042   9.517  22.379  0.00  0.00    +0.216 A 
ATOM     18  C   UNL     1      12.449   7.857  21.643  0.00  0.00    +0.076 A 
ATOM     21  C   UNL     1      10.211   7.391  22.118  0.00  0.00    +0.116 A 
ATOM     22  C   UNL     1      11.436   6.921  21.695  0.00  0.00    +0.048 A 
ATOM     34  H   UNL     1       9.921  11.089  23.077  0.00  0.00    +0.149 HD
BRANCH  18  23
ATOM     23  C   UNL     1      13.781   7.494  21.218  0.00  0.00    +0.001 A 
ATOM     27  C   UNL     1      14.874   7.737  22.054  0.00  0.00    +0.012 A 
ATOM     28  C   UNL     1      13.981   6.901  19.970  0.00  0.00    +0.012 A 
ATOM     29  C   UNL     1      16.357   6.796  20.395  0.00  0.00    +0.029 A 
ATOM     30  C   UNL     1      16.160   7.387  21.641  0.00  0.00    +0.024 A 
ATOM     31  C   UNL     1      15.267   6.552  19.559  0.00  0.00    +0.024 A 
BRANCH  29   8
ATOM      8  N   UNL     1      17.657   6.441  19.979  0.00  0.00    -0.336 N 
ATOM     32  C   UNL     1      17.851   5.604  18.812  0.00  0.00    +0.129 C 
ATOM     33  C   UNL     1      18.816   6.920  20.706  0.00  0.00    +0.129 C 
ENDBRANCH  29   8
ENDBRANCH  18  23
ENDBRANCH  11   4
BRANCH  12   5
ATOM      3  O   UNL     1      14.613  14.493  27.814  0.00  0.00    -0.270 OA
ATOM      5  N   UNL     1      13.589  12.695  26.770  0.00  0.00    -0.304 N 
ATOM     16  C   UNL     1      14.317  13.302  27.783  0.00  0.00    +0.244 C 
ATOM     35  H   UNL     1      13.481  11.686  26.752  0.00  0.00    +0.149 HD
BRANCH  16  17
ATOM     17  C   UNL     1      14.775  12.411  28.879  0.00  0.00    +0.037 A 
ATOM     19  C   UNL     1      15.586  11.339  28.570  0.00  0.00    +0.013 A 
ATOM     20  C   UNL     1      14.376  12.684  30.170  0.00  0.00    +0.013 A 
ATOM     24  C   UNL     1      16.017  10.501  29.598  0.00  0.00    +0.001 A 
ATOM     25  C   UNL     1      14.806  11.847  31.200  0.00  0.00    +0.001 A 
ATOM     26  C   UNL     1      15.627  10.755  30.914  0.00  0.00    +0.000 A 
ENDBRANCH  16  17
ENDBRANCH  12   5
TORSDOF 5
ENDMDL
MODEL 5
REMARK VINA RESULT:      -7.1      2.211     11.302
REMARK  Name = 11911716
REMARK  7 active torsions:
REMARK  status: ('A' for Active; 'I' for Inactive)
REMARK    1  A    between atoms: N_4  and  C_11
REMARK    2  A    between atoms: N_5  and  C_12
REMARK    3  A    between atoms: N_8  and  C_29
REMARK    4  A    between atoms: N_8  and  C_32
REMARK    5  A    between atoms: N_8  and  C_33
REMARK    6  A    between atoms: C_16  and  C_17
REMARK    7  A    between atoms: C_18  and  C_23
REMARK                            x       y       z     vdW  Elec       q    Type
REMARK                         _______ _______ _______ _____ _____    ______ ____
ROOT
ATOM      1  O   UNL     1      -3.052  -9.834  11.595  0.00  0.00    -0.370 OA
ATOM      2  O   UNL     1      -4.273 -12.638  12.212  0.00  0.00    -0.370 OA
ATOM      9  C   UNL     1      -4.852 -11.358  11.906  0.00  0.00    +0.171 C 
ATOM     10  C   UNL     1      -3.992 -10.305  12.575  0.00  0.00    +0.171 C 
ATOM     11  C   UNL     1      -4.718 -11.061  10.431  0.00  0.00    +0.130 C 
ATOM     12  C   UNL     1      -3.274 -11.057  13.673  0.00  0.00    +0.130 C 
ATOM     13  C   UNL     1      -3.328 -10.464  10.336  0.00  0.00    +0.185 C 
ATOM     14  C   UNL     1      -3.147 -12.450  13.081  0.00  0.00    +0.185 C 
ENDROOT
BRANCH  11   4
ATOM      4  N   UNL     1      -5.710 -10.087  10.030  0.00  0.00    -0.306 N 
ATOM      6  N   UNL     1      -5.512 -10.653   7.762  0.00  0.00    -0.214 NA
ATOM      7  N   UNL     1      -7.046  -8.938   8.480  0.00  0.00    -0.223 NA
ATOM     15  C   UNL     1      -6.101  -9.887   8.718  0.00  0.00    +0.216 A 
ATOM     18  C   UNL     1      -5.916 -10.432   6.494  0.00  0.00    +0.076 A 
ATOM     21  C   UNL     1      -7.403  -8.770   7.190  0.00  0.00    +0.116 A 
ATOM     22  C   UNL     1      -6.868  -9.494   6.145  0.00  0.00    +0.048 A 
ATOM     34  H   UNL     1      -6.193  -9.548  10.740  0.00  0.00    +0.149 HD
BRANCH  18  23
ATOM     23  C   UNL     1      -5.279 -11.256   5.495  0.00  0.00    +0.001 A 
ATOM     27  C   UNL     1      -5.924 -11.512   4.282  0.00  0.00    +0.012 A 
ATOM     28  C   UNL     1      -4.017 -11.802   5.737  0.00  0.00    +0.012 A 
ATOM     29  C   UNL     1      -4.049 -12.855   3.562  0.00  0.00    +0.029 A 
ATOM     30  C   UNL     1      -5.308 -12.311   3.318  0.00  0.00    +0.024 A 
ATOM     31  C   UNL     1      -3.402 -12.600   4.772  0.00  0.00    +0.024 A 
BRANCH  29   8
ATOM      8  N   UNL     1      -3.426 -13.660   2.587  0.00  0.00    -0.336 N 
ATOM     32  C   UNL     1      -3.502 -13.304   1.184  0.00  0.00    +0.129 C 
ATOM     33  C   UNL     1      -2.692 -14.848   2.975  0.00  0.00    +0.129 C 
ENDBRANCH  29   8
ENDBRANCH  18  23
ENDBRANCH  11   4
BRANCH  12   5
ATOM      3  O   UNL     1      -2.300 -10.614  16.337  0.00  0.00    -0.270 OA
ATOM      5  N   UNL     1      -4.051 -11.074  14.888  0.00  0.00    -0.304 N 
ATOM     16  C   UNL     1      -3.489 -10.848  16.137  0.00  0.00    +0.244 C 
ATOM     35  H   UNL     1      -5.017 -11.375  14.810  0.00  0.00    +0.149 HD
BRANCH  16  17
ATOM     17  C   UNL     1      -4.419 -10.927  17.292  0.00  0.00    +0.037 A 
ATOM     19  C   UNL     1      -5.624 -10.260  17.224  0.00  0.00    +0.013 A 
ATOM     20  C   UNL     1      -4.048 -11.667  18.396  0.00  0.00    +0.013 A 
ATOM     24  C   UNL     1      -6.498 -10.334  18.308  0.00  0.00    +0.001 A 
ATOM     25  C   UNL     1      -4.921 -11.741  19.481  0.00  0.00    +0.001 A 
ATOM     26  C   UNL     1      -6.147 -11.075  19.438  0.00  0.00    +0.000 A 
ENDBRANCH  16  17
ENDBRANCH  12   5
TORSDOF 5
ENDMDL
MODEL 6
REMARK VINA RESULT:      -7.0     21.035     22.368
REMARK  Name = 11911716
REMARK  7 active torsions:
REMARK  status: ('A' for Active; 'I' for Inactive)
REMARK    1  A    between atoms: N_4  and  C_11
REMARK    2  A    between atoms: N_5  and  C_12
REMARK    3  A    between atoms: N_8  and  C_29
REMARK    4  A    between atoms: N_8  and  C_32
REMARK    5  A    between atoms: N_8  and  C_33
REMARK    6  A    between atoms: C_16  and  C_17
REMARK    7  A    between atoms: C_18  and  C_23
REMARK                            x       y       z     vdW  Elec       q    Type
REMARK                         _______ _______ _______ _____ _____    ______ ____
ROOT
ATOM      1  O   UNL     1     -13.724   4.936  22.803  0.00  0.00    -0.370 OA
ATOM      2  O   UNL     1     -15.246   7.558  22.064  0.00  0.00    -0.370 OA
ATOM      9  C   UNL     1     -15.404   6.185  21.671  0.00  0.00    +0.171 C 
ATOM     10  C   UNL     1     -14.016   5.587  21.556  0.00  0.00    +0.171 C 
ATOM     11  C   UNL     1     -16.055   5.393  22.782  0.00  0.00    +0.130 C 
ATOM     12  C   UNL     1     -13.114   6.785  21.365  0.00  0.00    +0.130 C 
ATOM     13  C   UNL     1     -14.875   5.016  23.657  0.00  0.00    +0.185 C 
ATOM     14  C   UNL     1     -13.847   7.869  22.136  0.00  0.00    +0.185 C 
ENDROOT
BRANCH  11   4
ATOM      4  N   UNL     1     -16.679   4.204  22.242  0.00  0.00    -0.306 N 
ATOM      6  N   UNL     1     -16.710   3.138  24.332  0.00  0.00    -0.214 NA
ATOM      7  N   UNL     1     -17.587   2.044  22.372  0.00  0.00    -0.223 NA
ATOM     15  C   UNL     1     -17.002   3.096  23.005  0.00  0.00    +0.216 A 
ATOM     18  C   UNL     1     -17.039   2.041  25.045  0.00  0.00    +0.076 A 
ATOM     21  C   UNL     1     -17.888   0.981  23.145  0.00  0.00    +0.116 A 
ATOM     22  C   UNL     1     -17.635   0.921  24.500  0.00  0.00    +0.048 A 
ATOM     34  H   UNL     1     -16.947   4.183  21.265  0.00  0.00    +0.149 HD
BRANCH  18  23
ATOM     23  C   UNL     1     -16.722   2.107  26.452  0.00  0.00    +0.001 A 
ATOM     27  C   UNL     1     -16.161   3.268  26.990  0.00  0.00    +0.012 A 
ATOM     28  C   UNL     1     -16.972   1.010  27.279  0.00  0.00    +0.012 A 
ATOM     29  C   UNL     1     -16.104   2.234  29.173  0.00  0.00    +0.029 A 
ATOM     30  C   UNL     1     -15.854   3.330  28.350  0.00  0.00    +0.024 A 
ATOM     31  C   UNL     1     -16.664   1.073  28.638  0.00  0.00    +0.024 A 
BRANCH  29   8
ATOM      8  N   UNL     1     -15.794   2.298  30.547  0.00  0.00    -0.336 N 
ATOM     32  C   UNL     1     -16.157   3.464  31.328  0.00  0.00    +0.129 C 
ATOM     33  C   UNL     1     -15.120   1.193  31.200  0.00  0.00    +0.129 C 
ENDBRANCH  29   8
ENDBRANCH  18  23
ENDBRANCH  11   4
BRANCH  12   5
ATOM      3  O   UNL     1     -10.829   7.961  20.083  0.00  0.00    -0.270 OA
ATOM      5  N   UNL     1     -12.990   7.130  19.969  0.00  0.00    -0.304 N 
ATOM     16  C   UNL     1     -11.840   7.697  19.439  0.00  0.00    +0.244 C 
ATOM     35  H   UNL     1     -13.827   7.046  19.401  0.00  0.00    +0.149 HD
BRANCH  16  17
ATOM     17  C   UNL     1     -11.882   8.018  17.989  0.00  0.00    +0.037 A 
ATOM     19  C   UNL     1     -10.696   8.097  17.290  0.00  0.00    +0.013 A 
ATOM     20  C   UNL     1     -13.107   8.223  17.388  0.00  0.00    +0.013 A 
ATOM     24  C   UNL     1     -10.735   8.397  15.928  0.00  0.00    +0.001 A 
ATOM     25  C   UNL     1     -13.147   8.524  16.027  0.00  0.00    +0.001 A 
ATOM     26  C   UNL     1     -11.961   8.611  15.296  0.00  0.00    +0.000 A 
ENDBRANCH  16  17
ENDBRANCH  12   5
TORSDOF 5
ENDMDL
MODEL 7
REMARK VINA RESULT:      -6.9      3.415      9.798
REMARK  Name = 11911716
REMARK  7 active torsions:
REMARK  status: ('A' for Active; 'I' for Inactive)
REMARK    1  A    between atoms: N_4  and  C_11
REMARK    2  A    between atoms: N_5  and  C_12
REMARK    3  A    between atoms: N_8  and  C_29
REMARK    4  A    between atoms: N_8  and  C_32
REMARK    5  A    between atoms: N_8  and  C_33
REMARK    6  A    between atoms: C_16  and  C_17
REMARK    7  A    between atoms: C_18  and  C_23
REMARK                            x       y       z     vdW  Elec       q    Type
REMARK                         _______ _______ _______ _____ _____    ______ ____
ROOT
ATOM      1  O   UNL     1      -5.787 -12.602  18.525  0.00  0.00    -0.370 OA
ATOM      2  O   UNL     1      -6.801 -12.680  15.576  0.00  0.00    -0.370 OA
ATOM      9  C   UNL     1      -5.829 -11.873  16.261  0.00  0.00    +0.171 C 
ATOM     10  C   UNL     1      -6.363 -11.613  17.655  0.00  0.00    +0.171 C 
ATOM     11  C   UNL     1      -4.561 -12.662  16.492  0.00  0.00    +0.130 C 
ATOM     12  C   UNL     1      -7.853 -11.831  17.526  0.00  0.00    +0.130 C 
ATOM     13  C   UNL     1      -4.862 -13.406  17.778  0.00  0.00    +0.185 C 
ATOM     14  C   UNL     1      -7.933 -12.883  16.434  0.00  0.00    +0.185 C 
ENDROOT
BRANCH  11   4
ATOM      4  N   UNL     1      -3.446 -11.761  16.683  0.00  0.00    -0.306 N 
ATOM      6  N   UNL     1      -3.232 -11.359  14.382  0.00  0.00    -0.214 NA
ATOM      7  N   UNL     1      -1.758 -10.296  15.965  0.00  0.00    -0.223 NA
ATOM     15  C   UNL     1      -2.793 -11.119  15.645  0.00  0.00    +0.216 A 
ATOM     18  C   UNL     1      -2.572 -10.717  13.395  0.00  0.00    +0.076 A 
ATOM     21  C   UNL     1      -1.145  -9.687  14.930  0.00  0.00    +0.116 A 
ATOM     22  C   UNL     1      -1.511  -9.861  13.611  0.00  0.00    +0.048 A 
ATOM     34  H   UNL     1      -3.144 -11.535  17.625  0.00  0.00    +0.149 HD
BRANCH  18  23
ATOM     23  C   UNL     1      -3.055 -10.984  12.061  0.00  0.00    +0.001 A 
ATOM     27  C   UNL     1      -3.255 -12.301  11.639  0.00  0.00    +0.012 A 
ATOM     28  C   UNL     1      -3.321  -9.928  11.187  0.00  0.00    +0.012 A 
ATOM     29  C   UNL     1      -3.985 -11.503   9.478  0.00  0.00    +0.029 A 
ATOM     30  C   UNL     1      -3.721 -12.558  10.349  0.00  0.00    +0.024 A 
ATOM     31  C   UNL     1      -3.786 -10.187   9.898  0.00  0.00    +0.024 A 
BRANCH  29   8
ATOM      8  N   UNL     1      -4.456 -11.764   8.175  0.00  0.00    -0.336 N 
ATOM     32  C   UNL     1      -5.059 -10.707   7.387  0.00  0.00    +0.129 C 
ATOM     33  C   UNL     1      -4.333 -13.089   7.602  0.00  0.00    +0.129 C 
ENDBRANCH  29   8
ENDBRANCH  18  23
ENDBRANCH  11   4
BRANCH  12   5
ATOM      3  O   UNL     1     -10.486 -10.999  18.313  0.00  0.00    -0.270 OA
ATOM      5  N   UNL     1      -8.527 -10.618  17.133  0.00  0.00    -0.304 N 
ATOM     16  C   UNL     1      -9.806 -10.300  17.567  0.00  0.00    +0.244 C 
ATOM     35  H   UNL     1      -8.071 -10.049  16.427  0.00  0.00    +0.149 HD
BRANCH  16  17
ATOM     17  C   UNL     1     -10.370  -9.027  17.051  0.00  0.00    +0.037 A 
ATOM     19  C   UNL     1      -9.524  -8.119  16.449  0.00  0.00    +0.013 A 
ATOM     20  C   UNL     1     -11.723  -8.793  17.188  0.00  0.00    +0.013 A 
ATOM     24  C   UNL     1     -10.052  -6.923  15.964  0.00  0.00    +0.001 A 
ATOM     25  C   UNL     1     -12.252  -7.597  16.704  0.00  0.00    +0.001 A 
ATOM     26  C   UNL     1     -11.417  -6.662  16.091  0.00  0.00    +0.000 A 
ENDBRANCH  16  17
ENDBRANCH  12   5
TORSDOF 5
ENDMDL
MODEL 8
REMARK VINA RESULT:      -6.8     25.434     27.499
REMARK  Name = 11911716
REMARK  7 active torsions:
REMARK  status: ('A' for Active; 'I' for Inactive)
REMARK    1  A    between atoms: N_4  and  C_11
REMARK    2  A    between atoms: N_5  and  C_12
REMARK    3  A    between atoms: N_8  and  C_29
REMARK    4  A    between atoms: N_8  and  C_32
REMARK    5  A    between atoms: N_8  and  C_33
REMARK    6  A    between atoms: C_16  and  C_17
REMARK    7  A    between atoms: C_18  and  C_23
REMARK                            x       y       z     vdW  Elec       q    Type
REMARK                         _______ _______ _______ _____ _____    ______ ____
ROOT
ATOM      1  O   UNL     1      10.716  13.992  10.242  0.00  0.00    -0.370 OA
ATOM      2  O   UNL     1       9.761  11.660  12.082  0.00  0.00    -0.370 OA
ATOM      9  C   UNL     1      11.033  12.002  11.509  0.00  0.00    +0.171 C 
ATOM     10  C   UNL     1      10.767  12.560  10.125  0.00  0.00    +0.171 C 
ATOM     11  C   UNL     1      11.653  13.158  12.260  0.00  0.00    +0.130 C 
ATOM     12  C   UNL     1       9.405  12.013   9.763  0.00  0.00    +0.130 C 
ATOM     13  C   UNL     1      11.019  14.365  11.595  0.00  0.00    +0.185 C 
ATOM     14  C   UNL     1       8.728  11.908  11.118  0.00  0.00    +0.185 C 
ENDROOT
BRANCH  11   4
ATOM      4  N   UNL     1      13.085  13.169  12.056  0.00  0.00    -0.306 N 
ATOM      6  N   UNL     1      13.470  11.784  13.911  0.00  0.00    -0.214 NA
ATOM      7  N   UNL     1      15.301  12.586  12.565  0.00  0.00    -0.223 NA
ATOM     15  C   UNL     1      13.979  12.492  12.869  0.00  0.00    +0.216 A 
ATOM     18  C   UNL     1      14.369  11.138  14.682  0.00  0.00    +0.076 A 
ATOM     21  C   UNL     1      16.143  11.915  13.377  0.00  0.00    +0.116 A 
ATOM     22  C   UNL     1      15.732  11.167  14.461  0.00  0.00    +0.048 A 
ATOM     34  H   UNL     1      13.470  13.651  11.252  0.00  0.00    +0.149 HD
BRANCH  18  23
ATOM     23  C   UNL     1      13.808  10.391  15.783  0.00  0.00    +0.001 A 
ATOM     27  C   UNL     1      14.469  10.352  17.013  0.00  0.00    +0.012 A 
ATOM     28  C   UNL     1      12.603   9.704  15.622  0.00  0.00    +0.012 A 
ATOM     29  C   UNL     1      12.725   8.944  17.912  0.00  0.00    +0.029 A 
ATOM     30  C   UNL     1      13.927   9.629  18.076  0.00  0.00    +0.024 A 
ATOM     31  C   UNL     1      12.062   8.981  16.685  0.00  0.00    +0.024 A 
BRANCH  29   8
ATOM      8  N   UNL     1      12.177   8.214  18.987  0.00  0.00    -0.336 N 
ATOM     32  C   UNL     1      11.079   8.760  19.761  0.00  0.00    +0.129 C 
ATOM     33  C   UNL     1      12.695   6.903  19.325  0.00  0.00    +0.129 C 
ENDBRANCH  29   8
ENDBRANCH  18  23
ENDBRANCH  11   4
BRANCH  12   5
ATOM      3  O   UNL     1       9.362  11.474   6.943  0.00  0.00    -0.270 OA
ATOM      5  N   UNL     1       9.512  10.721   9.130  0.00  0.00    -0.304 N 
ATOM     16  C   UNL     1       9.481  10.559   7.752  0.00  0.00    +0.244 C 
ATOM     35  H   UNL     1       9.496   9.910   9.740  0.00  0.00    +0.149 HD
BRANCH  16  17
ATOM     17  C   UNL     1       9.575   9.161   7.260  0.00  0.00    +0.037 A 
ATOM     19  C   UNL     1      10.156   8.926   6.031  0.00  0.00    +0.013 A 
ATOM     20  C   UNL     1       9.081   8.143   8.048  0.00  0.00    +0.013 A 
ATOM     24  C   UNL     1      10.245   7.613   5.568  0.00  0.00    +0.001 A 
ATOM     25  C   UNL     1       9.170   6.830   7.585  0.00  0.00    +0.001 A 
ATOM     26  C   UNL     1       9.752   6.564   6.345  0.00  0.00    +0.000 A 
ENDBRANCH  16  17
ENDBRANCH  12   5
TORSDOF 5
ENDMDL
MODEL 9
REMARK VINA RESULT:      -6.8     21.677     25.510
REMARK  Name = 11911716
REMARK  7 active torsions:
REMARK  status: ('A' for Active; 'I' for Inactive)
REMARK    1  A    between atoms: N_4  and  C_11
REMARK    2  A    between atoms: N_5  and  C_12
REMARK    3  A    between atoms: N_8  and  C_29
REMARK    4  A    between atoms: N_8  and  C_32
REMARK    5  A    between atoms: N_8  and  C_33
REMARK    6  A    between atoms: C_16  and  C_17
REMARK    7  A    between atoms: C_18  and  C_23
REMARK                            x       y       z     vdW  Elec       q    Type
REMARK                         _______ _______ _______ _____ _____    ______ ____
ROOT
ATOM      1  O   UNL     1     -16.616   2.229  23.890  0.00  0.00    -0.370 OA
ATOM      2  O   UNL     1     -17.016   4.886  25.476  0.00  0.00    -0.370 OA
ATOM      9  C   UNL     1     -15.877   4.280  24.842  0.00  0.00    +0.171 C 
ATOM     10  C   UNL     1     -15.985   2.784  25.056  0.00  0.00    +0.171 C 
ATOM     11  C   UNL     1     -15.964   4.445  23.342  0.00  0.00    +0.130 C 
ATOM     12  C   UNL     1     -16.891   2.649  26.259  0.00  0.00    +0.130 C 
ATOM     13  C   UNL     1     -16.829   3.271  22.927  0.00  0.00    +0.185 C 
ATOM     14  C   UNL     1     -17.789   3.867  26.127  0.00  0.00    +0.185 C 
ENDROOT
BRANCH  11   4
ATOM      4  N   UNL     1     -14.646   4.328  22.755  0.00  0.00    -0.306 N 
ATOM      6  N   UNL     1     -14.533   6.624  22.281  0.00  0.00    -0.214 NA
ATOM      7  N   UNL     1     -12.711   5.151  21.712  0.00  0.00    -0.223 NA
ATOM     15  C   UNL     1     -13.942   5.400  22.234  0.00  0.00    +0.216 A 
ATOM     18  C   UNL     1     -13.819   7.645  21.764  0.00  0.00    +0.076 A 
ATOM     21  C   UNL     1     -12.054   6.218  21.213  0.00  0.00    +0.116 A 
ATOM     22  C   UNL     1     -12.562   7.501  21.211  0.00  0.00    +0.048 A 
ATOM     34  H   UNL     1     -14.176   3.431  22.762  0.00  0.00    +0.149 HD
BRANCH  18  23
ATOM     23  C   UNL     1     -14.464   8.936  21.825  0.00  0.00    +0.001 A 
ATOM     27  C   UNL     1     -14.121   9.843  22.830  0.00  0.00    +0.012 A 
ATOM     28  C   UNL     1     -15.433   9.281  20.880  0.00  0.00    +0.012 A 
ATOM     29  C   UNL     1     -15.713  11.431  21.945  0.00  0.00    +0.029 A 
ATOM     30  C   UNL     1     -14.746  11.090  22.889  0.00  0.00    +0.024 A 
ATOM     31  C   UNL     1     -16.056  10.526  20.940  0.00  0.00    +0.024 A 
BRANCH  29   8
ATOM      8  N   UNL     1     -16.343  12.691  22.005  0.00  0.00    -0.336 N 
ATOM     32  C   UNL     1     -17.227  13.120  20.939  0.00  0.00    +0.129 C 
ATOM     33  C   UNL     1     -16.125  13.568  23.138  0.00  0.00    +0.129 C 
ENDBRANCH  29   8
ENDBRANCH  18  23
ENDBRANCH  11   4
BRANCH  12   5
ATOM      3  O   UNL     1     -16.741   0.578  28.242  0.00  0.00    -0.270 OA
ATOM      5  N   UNL     1     -16.138   2.686  27.489  0.00  0.00    -0.304 N 
ATOM     16  C   UNL     1     -16.126   1.631  28.389  0.00  0.00    +0.244 C 
ATOM     35  H   UNL     1     -15.699   3.569  27.730  0.00  0.00    +0.149 HD
BRANCH  16  17
ATOM     17  C   UNL     1     -15.322   1.836  29.621  0.00  0.00    +0.037 A 
ATOM     19  C   UNL     1     -14.591   2.999  29.753  0.00  0.00    +0.013 A 
ATOM     20  C   UNL     1     -15.332   0.859  30.594  0.00  0.00    +0.013 A 
ATOM     24  C   UNL     1     -13.835   3.193  30.909  0.00  0.00    +0.001 A 
ATOM     25  C   UNL     1     -14.577   1.052  31.751  0.00  0.00    +0.001 A 
ATOM     26  C   UNL     1     -13.828   2.219  31.909  0.00  0.00    +0.000 A 
ENDBRANCH  16  17
ENDBRANCH  12   5
TORSDOF 5
ENDMDL
MODEL 10
REMARK VINA RESULT:      -6.7     25.910     28.730
REMARK  Name = 11911716
REMARK  7 active torsions:
REMARK  status: ('A' for Active; 'I' for Inactive)
REMARK    1  A    between atoms: N_4  and  C_11
REMARK    2  A    between atoms: N_5  and  C_12
REMARK    3  A    between atoms: N_8  and  C_29
REMARK    4  A    between atoms: N_8  and  C_32
REMARK    5  A    between atoms: N_8  and  C_33
REMARK    6  A    between atoms: C_16  and  C_17
REMARK    7  A    between atoms: C_18  and  C_23
REMARK                            x       y       z     vdW  Elec       q    Type
REMARK                         _______ _______ _______ _____ _____    ______ ____
ROOT
ATOM      1  O   UNL     1      13.410  10.647   7.119  0.00  0.00    -0.370 OA
ATOM      2  O   UNL     1      13.914   9.763   4.169  0.00  0.00    -0.370 OA
ATOM      9  C   UNL     1      13.577   9.045   5.367  0.00  0.00    +0.171 C 
ATOM     10  C   UNL     1      14.315   9.709   6.512  0.00  0.00    +0.171 C 
ATOM     11  C   UNL     1      12.117   9.244   5.705  0.00  0.00    +0.130 C 
ATOM     12  C   UNL     1      15.457  10.438   5.841  0.00  0.00    +0.130 C 
ATOM     13  C   UNL     1      12.129  10.547   6.479  0.00  0.00    +0.185 C 
ATOM     14  C   UNL     1      14.865  10.790   4.487  0.00  0.00    +0.185 C 
ENDROOT
BRANCH  11   4
ATOM      4  N   UNL     1      11.653   8.163   6.548  0.00  0.00    -0.306 N 
ATOM      6  N   UNL     1      10.985   6.868   4.710  0.00  0.00    -0.214 NA
ATOM      7  N   UNL     1      10.703   6.058   6.962  0.00  0.00    -0.223 NA
ATOM     15  C   UNL     1      11.097   6.994   6.058  0.00  0.00    +0.216 A 
ATOM     18  C   UNL     1      10.438   5.716   4.268  0.00  0.00    +0.076 A 
ATOM     21  C   UNL     1      10.165   4.932   6.450  0.00  0.00    +0.116 A 
ATOM     22  C   UNL     1      10.005   4.703   5.099  0.00  0.00    +0.048 A 
ATOM     34  H   UNL     1      11.780   8.226   7.552  0.00  0.00    +0.149 HD
BRANCH  18  23
ATOM     23  C   UNL     1      10.329   5.601   2.832  0.00  0.00    +0.001 A 
ATOM     27  C   UNL     1      10.015   6.723   2.061  0.00  0.00    +0.012 A 
ATOM     28  C   UNL     1      10.534   4.368   2.210  0.00  0.00    +0.012 A 
ATOM     29  C   UNL     1      10.113   5.378   0.056  0.00  0.00    +0.029 A 
ATOM     30  C   UNL     1       9.908   6.610   0.675  0.00  0.00    +0.024 A 
ATOM     31  C   UNL     1      10.427   4.257   0.825  0.00  0.00    +0.024 A 
BRANCH  29   8
ATOM      8  N   UNL     1      10.006   5.266  -1.345  0.00  0.00    -0.336 N 
ATOM     32  C   UNL     1      10.880   4.372  -2.078  0.00  0.00    +0.129 C 
ATOM     33  C   UNL     1       9.012   6.033  -2.069  0.00  0.00    +0.129 C 
ENDBRANCH  29   8
ENDBRANCH  18  23
ENDBRANCH  11   4
BRANCH  12   5
ATOM      3  O   UNL     1      18.133  11.021   6.702  0.00  0.00    -0.270 OA
ATOM      5  N   UNL     1      16.612   9.586   5.701  0.00  0.00    -0.304 N 
ATOM     16  C   UNL     1      17.871   9.956   6.151  0.00  0.00    +0.244 C 
ATOM     35  H   UNL     1      16.493   8.740   5.153  0.00  0.00    +0.149 HD
BRANCH  16  17
ATOM     17  C   UNL     1      18.962   8.976   5.908  0.00  0.00    +0.037 A 
ATOM     19  C   UNL     1      19.013   8.325   4.694  0.00  0.00    +0.013 A 
ATOM     20  C   UNL     1      19.890   8.752   6.904  0.00  0.00    +0.013 A 
ATOM     24  C   UNL     1      20.036   7.406   4.464  0.00  0.00    +0.001 A 
ATOM     25  C   UNL     1      20.913   7.833   6.676  0.00  0.00    +0.001 A 
ATOM     26  C   UNL     1      20.988   7.159   5.456  0.00  0.00    +0.000 A 
ENDBRANCH  16  17
ENDBRANCH  12   5
TORSDOF 5
ENDMDL
