MODEL 1
REMARK VINA RESULT:      -7.8      0.000      0.000
REMARK  Name = 75536263
REMARK  7 active torsions:
REMARK  status: ('A' for Active; 'I' for Inactive)
REMARK    1  A    between atoms: O_3  and  C_9
REMARK    2  A    between atoms: N_6  and  C_13
REMARK    3  A    between atoms: N_6  and  C_14
REMARK    4  A    between atoms: C_8  and  C_13
REMARK    5  A    between atoms: C_10  and  C_15
REMARK    6  A    between atoms: C_15  and  C_20
REMARK    7  A    between atoms: C_22  and  C_23
REMARK                            x       y       z     vdW  Elec       q    Type
REMARK                         _______ _______ _______ _____ _____    ______ ____
ROOT
ATOM      2  O   UNL     1      10.695   8.288  19.730  0.00  0.00    -0.369 OA
ATOM      8  C   UNL     1      10.896   8.142  21.142  0.00  0.00    +0.161 C 
ATOM      9  C   UNL     1      11.706   6.879  21.462  0.00  0.00    +0.145 C 
ATOM     10  C   UNL     1      11.888   8.292  18.942  0.00  0.00    +0.125 C 
ATOM     11  C   UNL     1      12.976   6.775  20.621  0.00  0.00    +0.036 C 
ATOM     12  C   UNL     1      12.671   6.995  19.143  0.00  0.00    +0.034 C 
ENDROOT
BRANCH   9   3
ATOM      3  O   UNL     1      10.902   5.732  21.182  0.00  0.00    -0.389 OA
ATOM     30  H   UNL     1      11.412   5.151  20.592  0.00  0.00    +0.210 HD
ENDBRANCH   9   3
BRANCH   8  13
ATOM     13  C   UNL     1      11.500   9.408  21.745  0.00  0.00    +0.115 C 
BRANCH  13   6
ATOM      6  N   UNL     1      11.201   9.499  23.165  0.00  0.00    -0.311 NA
ATOM     29  H   UNL     1      10.475   8.819  23.392  0.00  0.00    +0.122 HD
BRANCH   6  14
ATOM      4  O   UNL     1      11.324  13.553  24.253  0.00  0.00    -0.380 OA
ATOM     14  C   UNL     1      10.723  10.835  23.515  0.00  0.00    +0.058 C 
ATOM     16  C   UNL     1      11.197  11.220  24.920  0.00  0.00    +0.047 C 
ATOM     17  C   UNL     1      11.203  11.876  22.498  0.00  0.00    +0.047 C 
ATOM     18  C   UNL     1      10.804  12.658  25.237  0.00  0.00    +0.161 C 
ATOM     19  C   UNL     1      10.810  13.279  22.949  0.00  0.00    +0.161 C 
ENDBRANCH   6  14
ENDBRANCH  13   6
ENDBRANCH   8  13
BRANCH  10  15
ATOM     15  C   UNL     1      11.475   8.457  17.484  0.00  0.00    +0.090 C 
BRANCH  15  20
ATOM      5  O   UNL     1      13.564   9.948  14.953  0.00  0.00    -0.354 OA
ATOM      7  N   UNL     1      12.483   9.172  15.356  0.00  0.00    -0.083 NA
ATOM     20  C   UNL     1      12.515   9.201  16.691  0.00  0.00    +0.087 A 
ATOM     21  C   UNL     1      13.583   9.972  17.183  0.00  0.00    +0.076 A 
ATOM     22  C   UNL     1      14.210  10.418  16.050  0.00  0.00    +0.167 A 
BRANCH  22  23
ATOM      1  F   UNL     1      18.652  13.615  15.048  0.00  0.00    -0.205 F 
ATOM     23  C   UNL     1      15.354  11.243  15.791  0.00  0.00    +0.020 A 
ATOM     24  C   UNL     1      16.048  11.116  14.588  0.00  0.00    +0.014 A 
ATOM     25  C   UNL     1      15.775  12.171  16.744  0.00  0.00    +0.014 A 
ATOM     26  C   UNL     1      17.162  11.917  14.337  0.00  0.00    +0.039 A 
ATOM     27  C   UNL     1      16.889  12.972  16.493  0.00  0.00    +0.039 A 
ATOM     28  C   UNL     1      17.582  12.845  15.288  0.00  0.00    +0.123 A 
ENDBRANCH  22  23
ENDBRANCH  15  20
ENDBRANCH  10  15
TORSDOF 7
ENDMDL
MODEL 2
REMARK VINA RESULT:      -7.5      3.927      6.265
REMARK  Name = 75536263
REMARK  7 active torsions:
REMARK  status: ('A' for Active; 'I' for Inactive)
REMARK    1  A    between atoms: O_3  and  C_9
REMARK    2  A    between atoms: N_6  and  C_13
REMARK    3  A    between atoms: N_6  and  C_14
REMARK    4  A    between atoms: C_8  and  C_13
REMARK    5  A    between atoms: C_10  and  C_15
REMARK    6  A    between atoms: C_15  and  C_20
REMARK    7  A    between atoms: C_22  and  C_23
REMARK                            x       y       z     vdW  Elec       q    Type
REMARK                         _______ _______ _______ _____ _____    ______ ____
ROOT
ATOM      2  O   UNL     1      12.799  10.976  23.352  0.00  0.00    -0.369 OA
ATOM      8  C   UNL     1      11.530  10.589  23.895  0.00  0.00    +0.161 C 
ATOM      9  C   UNL     1      10.800  11.788  24.515  0.00  0.00    +0.145 C 
ATOM     10  C   UNL     1      12.754  12.035  22.393  0.00  0.00    +0.125 C 
ATOM     11  C   UNL     1      10.754  12.990  23.575  0.00  0.00    +0.036 C 
ATOM     12  C   UNL     1      12.137  13.291  23.007  0.00  0.00    +0.034 C 
ENDROOT
BRANCH   9   3
ATOM      3  O   UNL     1      11.493  12.188  25.700  0.00  0.00    -0.389 OA
ATOM     30  H   UNL     1      11.157  11.645  26.434  0.00  0.00    +0.210 HD
ENDBRANCH   9   3
BRANCH   8  13
ATOM     13  C   UNL     1      10.689   9.851  22.857  0.00  0.00    +0.115 C 
BRANCH  13   6
ATOM      6  N   UNL     1      11.021   8.435  22.833  0.00  0.00    -0.311 NA
ATOM     29  H   UNL     1      11.913   8.298  23.310  0.00  0.00    +0.122 HD
BRANCH   6  14
ATOM      4  O   UNL     1      12.650   7.819  19.012  0.00  0.00    -0.380 OA
ATOM     14  C   UNL     1      11.139   7.948  21.461  0.00  0.00    +0.058 C 
ATOM     16  C   UNL     1      11.223   9.125  20.483  0.00  0.00    +0.047 C 
ATOM     17  C   UNL     1      12.368   7.045  21.299  0.00  0.00    +0.047 C 
ATOM     18  C   UNL     1      11.470   8.621  19.066  0.00  0.00    +0.161 C 
ATOM     19  C   UNL     1      12.551   6.657  19.836  0.00  0.00    +0.161 C 
ENDBRANCH   6  14
ENDBRANCH  13   6
ENDBRANCH   8  13
BRANCH  10  15
ATOM     15  C   UNL     1      14.183  12.299  21.934  0.00  0.00    +0.090 C 
BRANCH  15  20
ATOM      5  O   UNL     1      15.103   9.722  19.588  0.00  0.00    -0.354 OA
ATOM      7  N   UNL     1      14.392  10.860  19.948  0.00  0.00    -0.083 NA
ATOM     20  C   UNL     1      14.762  11.116  21.206  0.00  0.00    +0.087 A 
ATOM     21  C   UNL     1      15.695  10.182  21.688  0.00  0.00    +0.076 A 
ATOM     22  C   UNL     1      15.876   9.328  20.633  0.00  0.00    +0.167 A 
BRANCH  22  23
ATOM      1  F   UNL     1      18.976   4.792  19.760  0.00  0.00    -0.205 F 
ATOM     23  C   UNL     1      16.674   8.159  20.409  0.00  0.00    +0.020 A 
ATOM     24  C   UNL     1      17.909   8.025  21.043  0.00  0.00    +0.014 A 
ATOM     25  C   UNL     1      16.217   7.155  19.555  0.00  0.00    +0.014 A 
ATOM     26  C   UNL     1      18.687   6.888  20.824  0.00  0.00    +0.039 A 
ATOM     27  C   UNL     1      16.994   6.018  19.335  0.00  0.00    +0.039 A 
ATOM     28  C   UNL     1      18.229   5.885  19.971  0.00  0.00    +0.123 A 
ENDBRANCH  22  23
ENDBRANCH  15  20
ENDBRANCH  10  15
TORSDOF 7
ENDMDL
MODEL 3
REMARK VINA RESULT:      -6.8     27.207     29.333
REMARK  Name = 75536263
REMARK  7 active torsions:
REMARK  status: ('A' for Active; 'I' for Inactive)
REMARK    1  A    between atoms: O_3  and  C_9
REMARK    2  A    between atoms: N_6  and  C_13
REMARK    3  A    between atoms: N_6  and  C_14
REMARK    4  A    between atoms: C_8  and  C_13
REMARK    5  A    between atoms: C_10  and  C_15
REMARK    6  A    between atoms: C_15  and  C_20
REMARK    7  A    between atoms: C_22  and  C_23
REMARK                            x       y       z     vdW  Elec       q    Type
REMARK                         _______ _______ _______ _____ _____    ______ ____
ROOT
ATOM      2  O   UNL     1      -2.292 -11.410  15.631  0.00  0.00    -0.369 OA
ATOM      8  C   UNL     1      -1.970 -11.706  14.266  0.00  0.00    +0.161 C 
ATOM      9  C   UNL     1      -2.605 -13.029  13.818  0.00  0.00    +0.145 C 
ATOM     10  C   UNL     1      -3.688 -11.377  15.935  0.00  0.00    +0.125 C 
ATOM     11  C   UNL     1      -4.092 -13.103  14.156  0.00  0.00    +0.036 C 
ATOM     12  C   UNL     1      -4.341 -12.720  15.611  0.00  0.00    +0.034 C 
ENDROOT
BRANCH   9   3
ATOM      3  O   UNL     1      -1.951 -14.106  14.492  0.00  0.00    -0.389 OA
ATOM     30  H   UNL     1      -1.922 -14.862  13.880  0.00  0.00    +0.210 HD
ENDBRANCH   9   3
BRANCH   8  13
ATOM     13  C   UNL     1      -2.322 -10.535  13.351  0.00  0.00    +0.115 C 
BRANCH  13   6
ATOM      6  N   UNL     1      -2.182 -10.910  11.953  0.00  0.00    -0.311 NA
ATOM     29  H   UNL     1      -1.342 -10.470  11.577  0.00  0.00    +0.122 HD
BRANCH   6  14
ATOM      4  O   UNL     1      -5.194  -8.373  10.493  0.00  0.00    -0.380 OA
ATOM     14  C   UNL     1      -3.337 -10.467  11.175  0.00  0.00    +0.058 C 
ATOM     16  C   UNL     1      -4.477 -10.043  12.107  0.00  0.00    +0.047 C 
ATOM     17  C   UNL     1      -2.963  -9.307  10.245  0.00  0.00    +0.047 C 
ATOM     18  C   UNL     1      -5.635  -9.466  11.300  0.00  0.00    +0.161 C 
ATOM     19  C   UNL     1      -4.205  -8.769   9.542  0.00  0.00    +0.161 C 
ENDBRANCH   6  14
ENDBRANCH  13   6
ENDBRANCH   8  13
BRANCH  10  15
ATOM     15  C   UNL     1      -3.828 -11.048  17.416  0.00  0.00    +0.090 C 
BRANCH  15  20
ATOM      5  O   UNL     1      -7.026 -10.530  18.996  0.00  0.00    -0.354 OA
ATOM      7  N   UNL     1      -5.708 -10.971  19.003  0.00  0.00    -0.083 NA
ATOM     20  C   UNL     1      -5.247 -10.701  17.778  0.00  0.00    +0.087 A 
ATOM     21  C   UNL     1      -6.219 -10.096  16.963  0.00  0.00    +0.076 A 
ATOM     22  C   UNL     1      -7.318 -10.010  17.776  0.00  0.00    +0.167 A 
BRANCH  22  23
ATOM      1  F   UNL     1     -12.493  -8.063  17.163  0.00  0.00    -0.205 F 
ATOM     23  C   UNL     1      -8.652  -9.509  17.617  0.00  0.00    +0.020 A 
ATOM     24  C   UNL     1      -8.898  -8.439  16.758  0.00  0.00    +0.014 A 
ATOM     25  C   UNL     1      -9.705 -10.092  18.323  0.00  0.00    +0.014 A 
ATOM     26  C   UNL     1     -10.195  -7.950  16.604  0.00  0.00    +0.039 A 
ATOM     27  C   UNL     1     -11.002  -9.603  18.170  0.00  0.00    +0.039 A 
ATOM     28  C   UNL     1     -11.247  -8.532  17.310  0.00  0.00    +0.123 A 
ENDBRANCH  22  23
ENDBRANCH  15  20
ENDBRANCH  10  15
TORSDOF 7
ENDMDL
MODEL 4
REMARK VINA RESULT:      -6.8     27.063     28.982
REMARK  Name = 75536263
REMARK  7 active torsions:
REMARK  status: ('A' for Active; 'I' for Inactive)
REMARK    1  A    between atoms: O_3  and  C_9
REMARK    2  A    between atoms: N_6  and  C_13
REMARK    3  A    between atoms: N_6  and  C_14
REMARK    4  A    between atoms: C_8  and  C_13
REMARK    5  A    between atoms: C_10  and  C_15
REMARK    6  A    between atoms: C_15  and  C_20
REMARK    7  A    between atoms: C_22  and  C_23
REMARK                            x       y       z     vdW  Elec       q    Type
REMARK                         _______ _______ _______ _____ _____    ______ ____
ROOT
ATOM      2  O   UNL     1      -4.375  -9.281  11.424  0.00  0.00    -0.369 OA
ATOM      8  C   UNL     1      -5.642  -9.116  10.774  0.00  0.00    +0.161 C 
ATOM      9  C   UNL     1      -5.606  -9.653   9.337  0.00  0.00    +0.145 C 
ATOM     10  C   UNL     1      -3.870 -10.618  11.444  0.00  0.00    +0.125 C 
ATOM     11  C   UNL     1      -5.025 -11.062   9.259  0.00  0.00    +0.036 C 
ATOM     12  C   UNL     1      -3.707 -11.153  10.022  0.00  0.00    +0.034 C 
ENDROOT
BRANCH   9   3
ATOM      3  O   UNL     1      -4.780  -8.797   8.545  0.00  0.00    -0.389 OA
ATOM     30  H   UNL     1      -4.030  -8.518   9.098  0.00  0.00    +0.210 HD
ENDBRANCH   9   3
BRANCH   8  13
ATOM     13  C   UNL     1      -6.771  -9.718  11.608  0.00  0.00    +0.115 C 
BRANCH  13   6
ATOM      6  N   UNL     1      -6.926  -9.001  12.864  0.00  0.00    -0.311 NA
ATOM     29  H   UNL     1      -6.059  -8.504  13.069  0.00  0.00    +0.122 HD
BRANCH   6  14
ATOM      4  O   UNL     1      -8.959 -11.887  15.138  0.00  0.00    -0.380 OA
ATOM     14  C   UNL     1      -7.213  -9.922  13.961  0.00  0.00    +0.058 C 
ATOM     16  C   UNL     1      -8.533  -9.547  14.641  0.00  0.00    +0.047 C 
ATOM     17  C   UNL     1      -7.274 -11.371  13.463  0.00  0.00    +0.047 C 
ATOM     18  C   UNL     1      -8.894 -10.578  15.705  0.00  0.00    +0.161 C 
ATOM     19  C   UNL     1      -7.706 -12.301  14.591  0.00  0.00    +0.161 C 
ENDBRANCH   6  14
ENDBRANCH  13   6
ENDBRANCH   8  13
BRANCH  10  15
ATOM     15  C   UNL     1      -2.531 -10.592  12.171  0.00  0.00    +0.090 C 
BRANCH  15  20
ATOM      5  O   UNL     1      -2.185 -10.414  15.755  0.00  0.00    -0.354 OA
ATOM      7  N   UNL     1      -1.684 -10.297  14.464  0.00  0.00    -0.083 NA
ATOM     20  C   UNL     1      -2.709 -10.612  13.666  0.00  0.00    +0.087 A 
ATOM     21  C   UNL     1      -3.870 -10.933  14.390  0.00  0.00    +0.076 A 
ATOM     22  C   UNL     1      -3.487 -10.793  15.698  0.00  0.00    +0.167 A 
BRANCH  22  23
ATOM      1  F   UNL     1      -6.037 -11.422  20.602  0.00  0.00    -0.205 F 
ATOM     23  C   UNL     1      -4.144 -10.954  16.962  0.00  0.00    +0.020 A 
ATOM     24  C   UNL     1      -3.520 -11.665  17.987  0.00  0.00    +0.014 A 
ATOM     25  C   UNL     1      -5.408 -10.401  17.167  0.00  0.00    +0.014 A 
ATOM     26  C   UNL     1      -4.159 -11.823  19.216  0.00  0.00    +0.039 A 
ATOM     27  C   UNL     1      -6.048 -10.559  18.396  0.00  0.00    +0.039 A 
ATOM     28  C   UNL     1      -5.422 -11.270  19.421  0.00  0.00    +0.123 A 
ENDBRANCH  22  23
ENDBRANCH  15  20
ENDBRANCH  10  15
TORSDOF 7
ENDMDL
MODEL 5
REMARK VINA RESULT:      -6.7     17.443     20.759
REMARK  Name = 75536263
REMARK  7 active torsions:
REMARK  status: ('A' for Active; 'I' for Inactive)
REMARK    1  A    between atoms: O_3  and  C_9
REMARK    2  A    between atoms: N_6  and  C_13
REMARK    3  A    between atoms: N_6  and  C_14
REMARK    4  A    between atoms: C_8  and  C_13
REMARK    5  A    between atoms: C_10  and  C_15
REMARK    6  A    between atoms: C_15  and  C_20
REMARK    7  A    between atoms: C_22  and  C_23
REMARK                            x       y       z     vdW  Elec       q    Type
REMARK                         _______ _______ _______ _____ _____    ______ ____
ROOT
ATOM      2  O   UNL     1      12.794   2.947   0.660  0.00  0.00    -0.369 OA
ATOM      8  C   UNL     1      13.161   3.710   1.817  0.00  0.00    +0.161 C 
ATOM      9  C   UNL     1      14.608   4.212   1.719  0.00  0.00    +0.145 C 
ATOM     10  C   UNL     1      12.966   3.618  -0.590  0.00  0.00    +0.125 C 
ATOM     11  C   UNL     1      14.896   4.894   0.385  0.00  0.00    +0.036 C 
ATOM     12  C   UNL     1      14.424   4.033  -0.783  0.00  0.00    +0.034 C 
ENDROOT
BRANCH   9   3
ATOM      3  O   UNL     1      15.492   3.095   1.837  0.00  0.00    -0.389 OA
ATOM     30  H   UNL     1      15.318   2.501   1.086  0.00  0.00    +0.210 HD
ENDBRANCH   9   3
BRANCH   8  13
ATOM     13  C   UNL     1      12.157   4.831   2.079  0.00  0.00    +0.115 C 
BRANCH  13   6
ATOM      6  N   UNL     1      12.570   5.641   3.215  0.00  0.00    -0.311 NA
ATOM     29  H   UNL     1      13.233   5.106   3.776  0.00  0.00    +0.122 HD
BRANCH   6  14
ATOM      4  O   UNL     1       9.928   5.606   6.479  0.00  0.00    -0.380 OA
ATOM     14  C   UNL     1      11.423   5.995   4.048  0.00  0.00    +0.058 C 
ATOM     16  C   UNL     1      10.533   4.769   4.279  0.00  0.00    +0.047 C 
ATOM     17  C   UNL     1      11.876   6.573   5.393  0.00  0.00    +0.047 C 
ATOM     18  C   UNL     1       9.405   5.107   5.247  0.00  0.00    +0.161 C 
ATOM     19  C   UNL     1      10.674   6.811   6.300  0.00  0.00    +0.161 C 
ENDBRANCH   6  14
ENDBRANCH  13   6
ENDBRANCH   8  13
BRANCH  10  15
ATOM     15  C   UNL     1      12.525   2.658  -1.689  0.00  0.00    +0.090 C 
BRANCH  15  20
ATOM      5  O   UNL     1       9.322   2.922  -3.322  0.00  0.00    -0.354 OA
ATOM      7  N   UNL     1      10.389   2.187  -2.818  0.00  0.00    -0.083 NA
ATOM     20  C   UNL     1      11.235   3.098  -2.328  0.00  0.00    +0.087 A 
ATOM     21  C   UNL     1      10.760   4.410  -2.493  0.00  0.00    +0.076 A 
ATOM     22  C   UNL     1       9.555   4.244  -3.123  0.00  0.00    +0.167 A 
BRANCH  22  23
ATOM      1  F   UNL     1       5.593   7.697  -4.948  0.00  0.00    -0.205 F 
ATOM     23  C   UNL     1       8.533   5.133  -3.593  0.00  0.00    +0.020 A 
ATOM     24  C   UNL     1       8.010   4.979  -4.876  0.00  0.00    +0.014 A 
ATOM     25  C   UNL     1       8.063   6.154  -2.767  0.00  0.00    +0.014 A 
ATOM     26  C   UNL     1       7.017   5.845  -5.334  0.00  0.00    +0.039 A 
ATOM     27  C   UNL     1       7.070   7.020  -3.224  0.00  0.00    +0.039 A 
ATOM     28  C   UNL     1       6.547   6.865  -4.508  0.00  0.00    +0.123 A 
ENDBRANCH  22  23
ENDBRANCH  15  20
ENDBRANCH  10  15
TORSDOF 7
ENDMDL
MODEL 6
REMARK VINA RESULT:      -6.6      6.136      7.812
REMARK  Name = 75536263
REMARK  7 active torsions:
REMARK  status: ('A' for Active; 'I' for Inactive)
REMARK    1  A    between atoms: O_3  and  C_9
REMARK    2  A    between atoms: N_6  and  C_13
REMARK    3  A    between atoms: N_6  and  C_14
REMARK    4  A    between atoms: C_8  and  C_13
REMARK    5  A    between atoms: C_10  and  C_15
REMARK    6  A    between atoms: C_15  and  C_20
REMARK    7  A    between atoms: C_22  and  C_23
REMARK                            x       y       z     vdW  Elec       q    Type
REMARK                         _______ _______ _______ _____ _____    ______ ____
ROOT
ATOM      2  O   UNL     1      19.540   7.559  22.134  0.00  0.00    -0.369 OA
ATOM      8  C   UNL     1      20.072   8.790  22.641  0.00  0.00    +0.161 C 
ATOM      9  C   UNL     1      21.604   8.811  22.562  0.00  0.00    +0.145 C 
ATOM     10  C   UNL     1      19.938   7.228  20.802  0.00  0.00    +0.125 C 
ATOM     11  C   UNL     1      22.120   8.412  21.182  0.00  0.00    +0.036 C 
ATOM     12  C   UNL     1      21.460   7.122  20.704  0.00  0.00    +0.034 C 
ENDROOT
BRANCH   9   3
ATOM      3  O   UNL     1      22.127   7.877  23.509  0.00  0.00    -0.389 OA
ATOM     30  H   UNL     1      22.487   8.386  24.256  0.00  0.00    +0.210 HD
ENDBRANCH   9   3
BRANCH   8  13
ATOM     13  C   UNL     1      19.423   9.992  21.959  0.00  0.00    +0.115 C 
BRANCH  13   6
ATOM      6  N   UNL     1      18.377  10.560  22.795  0.00  0.00    -0.311 NA
ATOM     29  H   UNL     1      18.036   9.838  23.431  0.00  0.00    +0.122 HD
BRANCH   6  14
ATOM      4  O   UNL     1      15.558  10.697  19.685  0.00  0.00    -0.380 OA
ATOM     14  C   UNL     1      17.260  11.039  21.983  0.00  0.00    +0.058 C 
ATOM     16  C   UNL     1      17.732  11.346  20.558  0.00  0.00    +0.047 C 
ATOM     17  C   UNL     1      16.123  10.012  21.948  0.00  0.00    +0.047 C 
ATOM     18  C   UNL     1      16.547  11.728  19.678  0.00  0.00    +0.161 C 
ATOM     19  C   UNL     1      15.027  10.468  20.990  0.00  0.00    +0.161 C 
ENDBRANCH   6  14
ENDBRANCH  13   6
ENDBRANCH   8  13
BRANCH  10  15
ATOM     15  C   UNL     1      19.278   5.902  20.442  0.00  0.00    +0.090 C 
BRANCH  15  20
ATOM      5  O   UNL     1      16.226   5.904  18.525  0.00  0.00    -0.354 OA
ATOM      7  N   UNL     1      17.543   5.518  18.739  0.00  0.00    -0.083 NA
ATOM     20  C   UNL     1      17.892   6.102  19.888  0.00  0.00    +0.087 A 
ATOM     21  C   UNL     1      16.847   6.861  20.440  0.00  0.00    +0.076 A 
ATOM     22  C   UNL     1      15.822   6.703  19.545  0.00  0.00    +0.167 A 
BRANCH  22  23
ATOM      1  F   UNL     1      10.589   8.564  19.231  0.00  0.00    -0.205 F 
ATOM     23  C   UNL     1      14.473   7.182  19.463  0.00  0.00    +0.020 A 
ATOM     24  C   UNL     1      14.025   7.813  18.303  0.00  0.00    +0.014 A 
ATOM     25  C   UNL     1      13.608   7.017  20.546  0.00  0.00    +0.014 A 
ATOM     26  C   UNL     1      12.714   8.280  18.225  0.00  0.00    +0.039 A 
ATOM     27  C   UNL     1      12.296   7.485  20.467  0.00  0.00    +0.039 A 
ATOM     28  C   UNL     1      11.849   8.116  19.306  0.00  0.00    +0.123 A 
ENDBRANCH  22  23
ENDBRANCH  15  20
ENDBRANCH  10  15
TORSDOF 7
ENDMDL
MODEL 7
REMARK VINA RESULT:      -6.6     13.138     16.718
REMARK  Name = 75536263
REMARK  7 active torsions:
REMARK  status: ('A' for Active; 'I' for Inactive)
REMARK    1  A    between atoms: O_3  and  C_9
REMARK    2  A    between atoms: N_6  and  C_13
REMARK    3  A    between atoms: N_6  and  C_14
REMARK    4  A    between atoms: C_8  and  C_13
REMARK    5  A    between atoms: C_10  and  C_15
REMARK    6  A    between atoms: C_15  and  C_20
REMARK    7  A    between atoms: C_22  and  C_23
REMARK                            x       y       z     vdW  Elec       q    Type
REMARK                         _______ _______ _______ _____ _____    ______ ____
ROOT
ATOM      2  O   UNL     1      10.846   6.907   5.625  0.00  0.00    -0.369 OA
ATOM      8  C   UNL     1      11.289   7.117   6.972  0.00  0.00    +0.161 C 
ATOM      9  C   UNL     1      10.329   6.472   7.981  0.00  0.00    +0.145 C 
ATOM     10  C   UNL     1      10.639   5.542   5.257  0.00  0.00    +0.125 C 
ATOM     11  C   UNL     1      10.007   5.022   7.631  0.00  0.00    +0.036 C 
ATOM     12  C   UNL     1       9.598   4.891   6.167  0.00  0.00    +0.034 C 
ENDROOT
BRANCH   9   3
ATOM      3  O   UNL     1       9.101   7.203   7.981  0.00  0.00    -0.389 OA
ATOM     30  H   UNL     1       9.319   8.145   7.870  0.00  0.00    +0.210 HD
ENDBRANCH   9   3
BRANCH   8  13
ATOM     13  C   UNL     1      12.736   6.664   7.152  0.00  0.00    +0.115 C 
BRANCH  13   6
ATOM      6  N   UNL     1      13.647   7.795   7.070  0.00  0.00    -0.311 NA
ATOM     29  H   UNL     1      13.130   8.610   6.738  0.00  0.00    +0.122 HD
BRANCH   6  14
ATOM      4  O   UNL     1      16.229   8.268   3.792  0.00  0.00    -0.380 OA
ATOM     14  C   UNL     1      14.741   7.520   6.142  0.00  0.00    +0.058 C 
ATOM     16  C   UNL     1      14.198   7.312   4.725  0.00  0.00    +0.047 C 
ATOM     17  C   UNL     1      15.769   8.657   6.147  0.00  0.00    +0.047 C 
ATOM     18  C   UNL     1      15.346   7.146   3.736  0.00  0.00    +0.161 C 
ATOM     19  C   UNL     1      16.830   8.417   5.079  0.00  0.00    +0.161 C 
ENDBRANCH   6  14
ENDBRANCH  13   6
ENDBRANCH   8  13
BRANCH  10  15
ATOM     15  C   UNL     1      10.178   5.522   3.804  0.00  0.00    +0.090 C 
BRANCH  15  20
ATOM      5  O   UNL     1      12.323   3.345   1.893  0.00  0.00    -0.354 OA
ATOM      7  N   UNL     1      11.285   3.573   2.789  0.00  0.00    -0.083 NA
ATOM     20  C   UNL     1      11.210   4.902   2.901  0.00  0.00    +0.087 A 
ATOM     21  C   UNL     1      12.166   5.559   2.107  0.00  0.00    +0.076 A 
ATOM     22  C   UNL     1      12.839   4.536   1.494  0.00  0.00    +0.167 A 
BRANCH  22  23
ATOM      1  F   UNL     1      17.050   4.243  -2.129  0.00  0.00    -0.205 F 
ATOM     23  C   UNL     1      13.924   4.461   0.561  0.00  0.00    +0.020 A 
ATOM     24  C   UNL     1      13.759   4.932  -0.742  0.00  0.00    +0.014 A 
ATOM     25  C   UNL     1      15.147   3.917   0.955  0.00  0.00    +0.014 A 
ATOM     26  C   UNL     1      14.814   4.858  -1.650  0.00  0.00    +0.039 A 
ATOM     27  C   UNL     1      16.203   3.843   0.046  0.00  0.00    +0.039 A 
ATOM     28  C   UNL     1      16.036   4.314  -1.256  0.00  0.00    +0.123 A 
ENDBRANCH  22  23
ENDBRANCH  15  20
ENDBRANCH  10  15
TORSDOF 7
ENDMDL
MODEL 8
REMARK VINA RESULT:      -6.6     27.134     28.606
REMARK  Name = 75536263
REMARK  7 active torsions:
REMARK  status: ('A' for Active; 'I' for Inactive)
REMARK    1  A    between atoms: O_3  and  C_9
REMARK    2  A    between atoms: N_6  and  C_13
REMARK    3  A    between atoms: N_6  and  C_14
REMARK    4  A    between atoms: C_8  and  C_13
REMARK    5  A    between atoms: C_10  and  C_15
REMARK    6  A    between atoms: C_15  and  C_20
REMARK    7  A    between atoms: C_22  and  C_23
REMARK                            x       y       z     vdW  Elec       q    Type
REMARK                         _______ _______ _______ _____ _____    ______ ____
ROOT
ATOM      2  O   UNL     1      -6.403 -11.588  17.125  0.00  0.00    -0.369 OA
ATOM      8  C   UNL     1      -7.473 -10.892  17.778  0.00  0.00    +0.161 C 
ATOM      9  C   UNL     1      -7.364 -11.007  19.304  0.00  0.00    +0.145 C 
ATOM     10  C   UNL     1      -5.088 -11.194  17.523  0.00  0.00    +0.125 C 
ATOM     11  C   UNL     1      -5.968 -10.657  19.813  0.00  0.00    +0.036 C 
ATOM     12  C   UNL     1      -4.896 -11.403  19.025  0.00  0.00    +0.034 C 
ENDROOT
BRANCH   9   3
ATOM      3  O   UNL     1      -7.642 -12.356  19.686  0.00  0.00    -0.389 OA
ATOM     30  H   UNL     1      -7.620 -12.900  18.881  0.00  0.00    +0.210 HD
ENDBRANCH   9   3
BRANCH   8  13
ATOM     13  C   UNL     1      -7.567  -9.447  17.293  0.00  0.00    +0.115 C 
BRANCH  13   6
ATOM      6  N   UNL     1      -8.828  -8.846  17.699  0.00  0.00    -0.311 NA
ATOM     29  H   UNL     1      -9.439  -9.577  18.063  0.00  0.00    +0.122 HD
BRANCH   6  14
ATOM      4  O   UNL     1     -11.872  -7.805  14.999  0.00  0.00    -0.380 OA
ATOM     14  C   UNL     1      -9.488  -8.200  16.566  0.00  0.00    +0.058 C 
ATOM     16  C   UNL     1     -10.009  -9.252  15.582  0.00  0.00    +0.047 C 
ATOM     17  C   UNL     1     -10.641  -7.306  17.035  0.00  0.00    +0.047 C 
ATOM     18  C   UNL     1     -10.803  -8.587  14.464  0.00  0.00    +0.161 C 
ATOM     19  C   UNL     1     -11.401  -6.748  15.837  0.00  0.00    +0.161 C 
ENDBRANCH   6  14
ENDBRANCH  13   6
ENDBRANCH   8  13
BRANCH  10  15
ATOM     15  C   UNL     1      -4.097 -12.034  16.727  0.00  0.00    +0.090 C 
BRANCH  15  20
ATOM      5  O   UNL     1      -2.644 -10.353  13.888  0.00  0.00    -0.354 OA
ATOM      7  N   UNL     1      -2.604 -10.810  15.200  0.00  0.00    -0.083 NA
ATOM     20  C   UNL     1      -3.782 -11.408  15.394  0.00  0.00    +0.087 A 
ATOM     21  C   UNL     1      -4.600 -11.360  14.252  0.00  0.00    +0.076 A 
ATOM     22  C   UNL     1      -3.838 -10.686  13.334  0.00  0.00    +0.167 A 
BRANCH  22  23
ATOM      1  F   UNL     1      -4.575  -9.103   8.052  0.00  0.00    -0.205 F 
ATOM     23  C   UNL     1      -4.027 -10.279  11.973  0.00  0.00    +0.020 A 
ATOM     24  C   UNL     1      -2.967  -9.728  11.255  0.00  0.00    +0.014 A 
ATOM     25  C   UNL     1      -5.274 -10.434  11.366  0.00  0.00    +0.014 A 
ATOM     26  C   UNL     1      -3.151  -9.330   9.931  0.00  0.00    +0.039 A 
ATOM     27  C   UNL     1      -5.459 -10.037  10.042  0.00  0.00    +0.039 A 
ATOM     28  C   UNL     1      -4.397  -9.485   9.324  0.00  0.00    +0.123 A 
ENDBRANCH  22  23
ENDBRANCH  15  20
ENDBRANCH  10  15
TORSDOF 7
ENDMDL
MODEL 9
REMARK VINA RESULT:      -6.5     26.824     28.582
REMARK  Name = 75536263
REMARK  7 active torsions:
REMARK  status: ('A' for Active; 'I' for Inactive)
REMARK    1  A    between atoms: O_3  and  C_9
REMARK    2  A    between atoms: N_6  and  C_13
REMARK    3  A    between atoms: N_6  and  C_14
REMARK    4  A    between atoms: C_8  and  C_13
REMARK    5  A    between atoms: C_10  and  C_15
REMARK    6  A    between atoms: C_15  and  C_20
REMARK    7  A    between atoms: C_22  and  C_23
REMARK                            x       y       z     vdW  Elec       q    Type
REMARK                         _______ _______ _______ _____ _____    ______ ____
ROOT
ATOM      2  O   UNL     1      -4.233 -11.636  13.123  0.00  0.00    -0.369 OA
ATOM      8  C   UNL     1      -4.151 -11.459  14.543  0.00  0.00    +0.161 C 
ATOM      9  C   UNL     1      -2.694 -11.333  15.007  0.00  0.00    +0.145 C 
ATOM     10  C   UNL     1      -3.587 -10.626  12.345  0.00  0.00    +0.125 C 
ATOM     11  C   UNL     1      -1.910 -10.311  14.188  0.00  0.00    +0.036 C 
ATOM     12  C   UNL     1      -2.101 -10.547  12.693  0.00  0.00    +0.034 C 
ENDROOT
BRANCH   9   3
ATOM      3  O   UNL     1      -2.051 -12.600  14.853  0.00  0.00    -0.389 OA
ATOM     30  H   UNL     1      -2.745 -13.277  14.788  0.00  0.00    +0.210 HD
ENDBRANCH   9   3
BRANCH   8  13
ATOM     13  C   UNL     1      -5.026 -10.295  15.003  0.00  0.00    +0.115 C 
BRANCH  13   6
ATOM      6  N   UNL     1      -4.751  -9.958  16.392  0.00  0.00    -0.311 NA
ATOM     29  H   UNL     1      -3.792 -10.228  16.612  0.00  0.00    +0.122 HD
BRANCH   6  14
ATOM      4  O   UNL     1      -7.149 -10.711  19.756  0.00  0.00    -0.380 OA
ATOM     14  C   UNL     1      -5.660 -10.665  17.291  0.00  0.00    +0.058 C 
ATOM     16  C   UNL     1      -4.992 -10.894  18.651  0.00  0.00    +0.047 C 
ATOM     17  C   UNL     1      -6.969  -9.889  17.475  0.00  0.00    +0.047 C 
ATOM     18  C   UNL     1      -5.980 -11.522  19.628  0.00  0.00    +0.161 C 
ATOM     19  C   UNL     1      -7.848 -10.572  18.518  0.00  0.00    +0.161 C 
ENDBRANCH   6  14
ENDBRANCH  13   6
ENDBRANCH   8  13
BRANCH  10  15
ATOM     15  C   UNL     1      -3.782 -10.983  10.876  0.00  0.00    +0.090 C 
BRANCH  15  20
ATOM      5  O   UNL     1      -5.382  -8.008   9.617  0.00  0.00    -0.354 OA
ATOM      7  N   UNL     1      -4.472  -8.661  10.440  0.00  0.00    -0.083 NA
ATOM     20  C   UNL     1      -4.622  -9.959  10.161  0.00  0.00    +0.087 A 
ATOM     21  C   UNL     1      -5.603 -10.183   9.180  0.00  0.00    +0.076 A 
ATOM     22  C   UNL     1      -6.049  -8.925   8.872  0.00  0.00    +0.167 A 
BRANCH  22  23
ATOM      1  F   UNL     1      -9.844  -6.874   5.359  0.00  0.00    -0.205 F 
ATOM     23  C   UNL     1      -7.027  -8.398   7.967  0.00  0.00    +0.020 A 
ATOM     24  C   UNL     1      -7.215  -8.990   6.718  0.00  0.00    +0.014 A 
ATOM     25  C   UNL     1      -7.793  -7.290   8.335  0.00  0.00    +0.014 A 
ATOM     26  C   UNL     1      -8.165  -8.475   5.837  0.00  0.00    +0.039 A 
ATOM     27  C   UNL     1      -8.743  -6.776   7.454  0.00  0.00    +0.039 A 
ATOM     28  C   UNL     1      -8.930  -7.369   6.205  0.00  0.00    +0.123 A 
ENDBRANCH  22  23
ENDBRANCH  15  20
ENDBRANCH  10  15
TORSDOF 7
ENDMDL
MODEL 10
REMARK VINA RESULT:      -6.5     26.753     29.995
REMARK  Name = 75536263
REMARK  7 active torsions:
REMARK  status: ('A' for Active; 'I' for Inactive)
REMARK    1  A    between atoms: O_3  and  C_9
REMARK    2  A    between atoms: N_6  and  C_13
REMARK    3  A    between atoms: N_6  and  C_14
REMARK    4  A    between atoms: C_8  and  C_13
REMARK    5  A    between atoms: C_10  and  C_15
REMARK    6  A    between atoms: C_15  and  C_20
REMARK    7  A    between atoms: C_22  and  C_23
REMARK                            x       y       z     vdW  Elec       q    Type
REMARK                         _______ _______ _______ _____ _____    ______ ____
ROOT
ATOM      2  O   UNL     1      -5.529 -11.772  18.717  0.00  0.00    -0.369 OA
ATOM      8  C   UNL     1      -4.460 -11.972  17.783  0.00  0.00    +0.161 C 
ATOM      9  C   UNL     1      -4.653 -13.268  16.984  0.00  0.00    +0.145 C 
ATOM     10  C   UNL     1      -6.841 -11.773  18.150  0.00  0.00    +0.125 C 
ATOM     11  C   UNL     1      -6.054 -13.379  16.387  0.00  0.00    +0.036 C 
ATOM     12  C   UNL     1      -7.121 -13.098  17.441  0.00  0.00    +0.034 C 
ENDROOT
BRANCH   9   3
ATOM      3  O   UNL     1      -4.463 -14.382  17.859  0.00  0.00    -0.389 OA
ATOM     30  H   UNL     1      -5.265 -14.931  17.815  0.00  0.00    +0.210 HD
ENDBRANCH   9   3
BRANCH   8  13
ATOM     13  C   UNL     1      -4.269 -10.746  16.893  0.00  0.00    +0.115 C 
BRANCH  13   6
ATOM      6  N   UNL     1      -2.928 -10.718  16.330  0.00  0.00    -0.311 NA
ATOM     29  H   UNL     1      -2.540  -9.782  16.451  0.00  0.00    +0.122 HD
BRANCH   6  14
ATOM      4  O   UNL     1      -3.241 -10.148  12.181  0.00  0.00    -0.380 OA
ATOM     14  C   UNL     1      -2.953 -11.039  14.905  0.00  0.00    +0.058 C 
ATOM     16  C   UNL     1      -4.311 -10.672  14.299  0.00  0.00    +0.047 C 
ATOM     17  C   UNL     1      -1.832 -10.310  14.156  0.00  0.00    +0.047 C 
ATOM     18  C   UNL     1      -4.297 -10.892  12.791  0.00  0.00    +0.161 C 
ATOM     19  C   UNL     1      -1.955 -10.549  12.655  0.00  0.00    +0.161 C 
ENDBRANCH   6  14
ENDBRANCH  13   6
ENDBRANCH   8  13
BRANCH  10  15
ATOM     15  C   UNL     1      -7.832 -11.546  19.286  0.00  0.00    +0.090 C 
BRANCH  15  20
ATOM      5  O   UNL     1     -10.945  -9.771  18.891  0.00  0.00    -0.354 OA
ATOM      7  N   UNL     1     -10.124 -10.686  19.540  0.00  0.00    -0.083 NA
ATOM     20  C   UNL     1      -8.975 -10.664  18.859  0.00  0.00    +0.087 A 
ATOM     21  C   UNL     1      -9.011  -9.764  17.781  0.00  0.00    +0.076 A 
ATOM     22  C   UNL     1     -10.270  -9.229  17.845  0.00  0.00    +0.167 A 
BRANCH  22  23
ATOM      1  F   UNL     1     -13.073  -5.466  14.856  0.00  0.00    -0.205 F 
ATOM     23  C   UNL     1     -10.993  -8.259  17.076  0.00  0.00    +0.020 A 
ATOM     24  C   UNL     1     -12.347  -8.452  16.803  0.00  0.00    +0.014 A 
ATOM     25  C   UNL     1     -10.341  -7.121  16.599  0.00  0.00    +0.014 A 
ATOM     26  C   UNL     1     -13.049  -7.509  16.053  0.00  0.00    +0.039 A 
ATOM     27  C   UNL     1     -11.044  -6.178  15.849  0.00  0.00    +0.039 A 
ATOM     28  C   UNL     1     -12.398  -6.372  15.577  0.00  0.00    +0.123 A 
ENDBRANCH  22  23
ENDBRANCH  15  20
ENDBRANCH  10  15
TORSDOF 7
ENDMDL
