MODEL 1
REMARK VINA RESULT:      -6.6      0.000      0.000
REMARK  Name = 45784316
REMARK  4 active torsions:
REMARK  status: ('A' for Active; 'I' for Inactive)
REMARK    1  A    between atoms: N_1  and  C_6
REMARK    2  A    between atoms: C_5  and  C_6
REMARK    3  A    between atoms: C_7  and  C_16
REMARK    4  A    between atoms: C_21  and  C_23
REMARK                            x       y       z     vdW  Elec       q    Type
REMARK                         _______ _______ _______ _____ _____    ______ ____
ROOT
ATOM      1  N   UNL     1      11.696   9.864  21.230  0.00  0.00    -0.301 NA
ATOM      7  C   UNL     1      13.492   9.234  19.860  0.00  0.00    +0.070 C 
ATOM      8  C   UNL     1      13.153   9.713  21.278  0.00  0.00    +0.095 C 
ATOM      9  C   UNL     1      11.218   8.683  20.511  0.00  0.00    +0.085 C 
ATOM     12  C   UNL     1      12.200   8.570  19.353  0.00  0.00    +0.028 C 
ENDROOT
BRANCH   7  16
ATOM      2  N   UNL     1      15.785   8.575  20.642  0.00  0.00    -0.342 N 
ATOM      3  N   UNL     1      14.917   7.319  19.027  0.00  0.00    -0.232 NA
ATOM     16  C   UNL     1      14.719   8.352  19.815  0.00  0.00    +0.113 A 
ATOM     17  C   UNL     1      16.733   7.623  20.369  0.00  0.00    +0.067 A 
ATOM     18  C   UNL     1      16.167   6.851  19.357  0.00  0.00    +0.089 A 
ATOM     19  C   UNL     1      17.998   7.377  20.904  0.00  0.00    +0.046 A 
ATOM     20  C   UNL     1      16.893   5.767  18.837  0.00  0.00    +0.031 A 
ATOM     21  C   UNL     1      18.706   6.294  20.374  0.00  0.00    +0.054 A 
ATOM     22  C   UNL     1      18.165   5.502  19.358  0.00  0.00    +0.021 A 
ATOM     24  H   UNL     1      15.863   9.310  21.333  0.00  0.00    +0.167 HD
BRANCH  21  23
ATOM      4  N   UNL     1      21.066   5.750  21.296  0.00  0.00    -0.191 NA
ATOM     23  C   UNL     1      20.008   5.993  20.882  0.00  0.00    +0.099 C 
ENDBRANCH  21  23
ENDBRANCH   7  16
BRANCH   1   6
ATOM      6  C   UNL     1      11.106   9.983  22.554  0.00  0.00    +0.088 C 
BRANCH   6   5
ATOM      5  C   UNL     1      11.431  11.340  23.176  0.00  0.00    +0.003 C 
ATOM     10  C   UNL     1      10.913  11.415  24.619  0.00  0.00    +0.005 C 
ATOM     11  C   UNL     1      10.850  12.479  22.326  0.00  0.00    +0.005 C 
ATOM     13  C   UNL     1      11.180  12.782  25.243  0.00  0.00    +0.000 C 
ATOM     14  C   UNL     1      11.116  13.844  22.955  0.00  0.00    +0.000 C 
ATOM     15  C   UNL     1      10.608  13.912  24.392  0.00  0.00    +0.000 C 
ENDBRANCH   6   5
ENDBRANCH   1   6
TORSDOF 4
ENDMDL
MODEL 2
REMARK VINA RESULT:      -6.6     26.717     29.292
REMARK  Name = 45784316
REMARK  4 active torsions:
REMARK  status: ('A' for Active; 'I' for Inactive)
REMARK    1  A    between atoms: N_1  and  C_6
REMARK    2  A    between atoms: C_5  and  C_6
REMARK    3  A    between atoms: C_7  and  C_16
REMARK    4  A    between atoms: C_21  and  C_23
REMARK                            x       y       z     vdW  Elec       q    Type
REMARK                         _______ _______ _______ _____ _____    ______ ____
ROOT
ATOM      1  N   UNL     1      -2.091 -10.932  13.502  0.00  0.00    -0.301 NA
ATOM      7  C   UNL     1      -2.988 -10.283  15.569  0.00  0.00    +0.070 C 
ATOM      8  C   UNL     1      -3.381 -10.628  14.126  0.00  0.00    +0.095 C 
ATOM      9  C   UNL     1      -1.377 -11.744  14.487  0.00  0.00    +0.085 C 
ATOM     12  C   UNL     1      -1.651 -11.012  15.794  0.00  0.00    +0.028 C 
ENDROOT
BRANCH   7  16
ATOM      2  N   UNL     1      -5.306 -10.041  16.500  0.00  0.00    -0.342 N 
ATOM      3  N   UNL     1      -3.976 -11.457  17.578  0.00  0.00    -0.232 NA
ATOM     16  C   UNL     1      -4.070 -10.619  16.570  0.00  0.00    +0.113 A 
ATOM     17  C   UNL     1      -6.061 -10.539  17.531  0.00  0.00    +0.067 A 
ATOM     18  C   UNL     1      -5.208 -11.421  18.189  0.00  0.00    +0.089 A 
ATOM     19  C   UNL     1      -7.376 -10.301  17.932  0.00  0.00    +0.046 A 
ATOM     20  C   UNL     1      -5.678 -12.115  19.316  0.00  0.00    +0.031 A 
ATOM     21  C   UNL     1      -7.828 -11.001  19.056  0.00  0.00    +0.054 A 
ATOM     22  C   UNL     1      -6.995 -11.892  19.737  0.00  0.00    +0.021 A 
ATOM     24  H   UNL     1      -5.614  -9.366  15.812  0.00  0.00    +0.167 HD
BRANCH  21  23
ATOM      4  N   UNL     1     -10.254 -10.633  19.886  0.00  0.00    -0.191 NA
ATOM     23  C   UNL     1      -9.167 -10.798  19.515  0.00  0.00    +0.099 C 
ENDBRANCH  21  23
ENDBRANCH   7  16
BRANCH   1   6
ATOM      6  C   UNL     1      -2.239 -11.614  12.225  0.00  0.00    +0.088 C 
BRANCH   6   5
ATOM      5  C   UNL     1      -3.310 -10.940  11.369  0.00  0.00    +0.003 C 
ATOM     10  C   UNL     1      -3.870 -11.920  10.330  0.00  0.00    +0.005 C 
ATOM     11  C   UNL     1      -2.748  -9.683  10.689  0.00  0.00    +0.005 C 
ATOM     13  C   UNL     1      -4.905 -11.252   9.427  0.00  0.00    +0.000 C 
ATOM     14  C   UNL     1      -3.784  -9.021   9.785  0.00  0.00    +0.000 C 
ATOM     15  C   UNL     1      -4.346 -10.000   8.759  0.00  0.00    +0.000 C 
ENDBRANCH   6   5
ENDBRANCH   1   6
TORSDOF 4
ENDMDL
MODEL 3
REMARK VINA RESULT:      -6.6     16.339     19.834
REMARK  Name = 45784316
REMARK  4 active torsions:
REMARK  status: ('A' for Active; 'I' for Inactive)
REMARK    1  A    between atoms: N_1  and  C_6
REMARK    2  A    between atoms: C_5  and  C_6
REMARK    3  A    between atoms: C_7  and  C_16
REMARK    4  A    between atoms: C_21  and  C_23
REMARK                            x       y       z     vdW  Elec       q    Type
REMARK                         _______ _______ _______ _____ _____    ______ ____
ROOT
ATOM      1  N   UNL     1      10.863   5.529   0.450  0.00  0.00    -0.301 NA
ATOM      7  C   UNL     1       9.681   6.548   2.201  0.00  0.00    +0.070 C 
ATOM      8  C   UNL     1      10.103   5.178   1.653  0.00  0.00    +0.095 C 
ATOM      9  C   UNL     1      11.695   6.663   0.849  0.00  0.00    +0.085 C 
ATOM     12  C   UNL     1      10.731   7.528   1.649  0.00  0.00    +0.028 C 
ENDROOT
BRANCH   7  16
ATOM      2  N   UNL     1       9.977   5.518   4.471  0.00  0.00    -0.342 N 
ATOM      3  N   UNL     1       8.988   7.508   4.434  0.00  0.00    -0.232 NA
ATOM     16  C   UNL     1       9.531   6.559   3.705  0.00  0.00    +0.113 A 
ATOM     17  C   UNL     1       9.703   5.816   5.782  0.00  0.00    +0.067 A 
ATOM     18  C   UNL     1       9.086   7.062   5.732  0.00  0.00    +0.089 A 
ATOM     19  C   UNL     1       9.936   5.122   6.970  0.00  0.00    +0.046 A 
ATOM     20  C   UNL     1       8.669   7.667   6.929  0.00  0.00    +0.031 A 
ATOM     21  C   UNL     1       9.514   5.739   8.152  0.00  0.00    +0.054 A 
ATOM     22  C   UNL     1       8.891   6.990   8.134  0.00  0.00    +0.021 A 
ATOM     24  H   UNL     1      10.429   4.678   4.135  0.00  0.00    +0.167 HD
BRANCH  21  23
ATOM      4  N   UNL     1       9.896   4.539  10.416  0.00  0.00    -0.191 NA
ATOM     23  C   UNL     1       9.725   5.076   9.401  0.00  0.00    +0.099 C 
ENDBRANCH  21  23
ENDBRANCH   7  16
BRANCH   1   6
ATOM      6  C   UNL     1      11.650   4.414  -0.053  0.00  0.00    +0.088 C 
BRANCH   6   5
ATOM      5  C   UNL     1      13.121   4.570   0.326  0.00  0.00    +0.003 C 
ATOM     10  C   UNL     1      14.008   4.569  -0.926  0.00  0.00    +0.005 C 
ATOM     11  C   UNL     1      13.550   3.464   1.301  0.00  0.00    +0.005 C 
ATOM     13  C   UNL     1      15.489   4.671  -0.567  0.00  0.00    +0.000 C 
ATOM     14  C   UNL     1      15.031   3.567   1.655  0.00  0.00    +0.000 C 
ATOM     15  C   UNL     1      15.909   3.575   0.407  0.00  0.00    +0.000 C 
ENDBRANCH   6   5
ENDBRANCH   1   6
TORSDOF 4
ENDMDL
MODEL 4
REMARK VINA RESULT:      -6.5      3.834     10.779
REMARK  Name = 45784316
REMARK  4 active torsions:
REMARK  status: ('A' for Active; 'I' for Inactive)
REMARK    1  A    between atoms: N_1  and  C_6
REMARK    2  A    between atoms: C_5  and  C_6
REMARK    3  A    between atoms: C_7  and  C_16
REMARK    4  A    between atoms: C_21  and  C_23
REMARK                            x       y       z     vdW  Elec       q    Type
REMARK                         _______ _______ _______ _____ _____    ______ ____
ROOT
ATOM      1  N   UNL     1      21.721   4.698  21.475  0.00  0.00    -0.301 NA
ATOM      7  C   UNL     1      20.280   6.404  20.761  0.00  0.00    +0.070 C 
ATOM      8  C   UNL     1      20.500   4.887  20.687  0.00  0.00    +0.095 C 
ATOM      9  C   UNL     1      21.549   5.553  22.649  0.00  0.00    +0.085 C 
ATOM     12  C   UNL     1      20.993   6.839  22.054  0.00  0.00    +0.028 C 
ENDROOT
BRANCH   7  16
ATOM      2  N   UNL     1      17.994   6.250  19.735  0.00  0.00    -0.342 N 
ATOM      3  N   UNL     1      18.189   7.644  21.455  0.00  0.00    -0.232 NA
ATOM     16  C   UNL     1      18.821   6.791  20.680  0.00  0.00    +0.113 A 
ATOM     17  C   UNL     1      16.746   6.790  19.912  0.00  0.00    +0.067 A 
ATOM     18  C   UNL     1      16.894   7.658  20.991  0.00  0.00    +0.089 A 
ATOM     19  C   UNL     1      15.537   6.600  19.242  0.00  0.00    +0.046 A 
ATOM     20  C   UNL     1      15.781   8.386  21.441  0.00  0.00    +0.031 A 
ATOM     21  C   UNL     1      14.439   7.334  19.703  0.00  0.00    +0.054 A 
ATOM     22  C   UNL     1      14.557   8.212  20.783  0.00  0.00    +0.021 A 
ATOM     24  H   UNL     1      18.252   5.572  19.030  0.00  0.00    +0.167 HD
BRANCH  21  23
ATOM      4  N   UNL     1      12.146   7.057  18.528  0.00  0.00    -0.191 NA
ATOM     23  C   UNL     1      13.174   7.181  19.055  0.00  0.00    +0.099 C 
ENDBRANCH  21  23
ENDBRANCH   7  16
BRANCH   1   6
ATOM      6  C   UNL     1      21.940   3.304  21.832  0.00  0.00    +0.088 C 
BRANCH   6   5
ATOM      5  C   UNL     1      23.178   2.750  21.129  0.00  0.00    +0.003 C 
ATOM     10  C   UNL     1      24.015   1.899  22.094  0.00  0.00    +0.005 C 
ATOM     11  C   UNL     1      24.018   3.888  20.532  0.00  0.00    +0.005 C 
ATOM     13  C   UNL     1      25.286   1.378  21.427  0.00  0.00    +0.000 C 
ATOM     14  C   UNL     1      25.289   3.363  19.869  0.00  0.00    +0.000 C 
ATOM     15  C   UNL     1      26.114   2.511  20.829  0.00  0.00    +0.000 C 
ENDBRANCH   6   5
ENDBRANCH   1   6
TORSDOF 4
ENDMDL
MODEL 5
REMARK VINA RESULT:      -6.5      3.134     10.372
REMARK  Name = 45784316
REMARK  4 active torsions:
REMARK  status: ('A' for Active; 'I' for Inactive)
REMARK    1  A    between atoms: N_1  and  C_6
REMARK    2  A    between atoms: C_5  and  C_6
REMARK    3  A    between atoms: C_7  and  C_16
REMARK    4  A    between atoms: C_21  and  C_23
REMARK                            x       y       z     vdW  Elec       q    Type
REMARK                         _______ _______ _______ _____ _____    ______ ____
ROOT
ATOM      1  N   UNL     1      21.305   5.340  21.527  0.00  0.00    -0.301 NA
ATOM      7  C   UNL     1      19.598   6.791  20.834  0.00  0.00    +0.070 C 
ATOM      8  C   UNL     1      20.088   5.342  20.710  0.00  0.00    +0.095 C 
ATOM      9  C   UNL     1      20.954   6.100  22.727  0.00  0.00    +0.085 C 
ATOM     12  C   UNL     1      20.190   7.291  22.163  0.00  0.00    +0.028 C 
ENDROOT
BRANCH   7  16
ATOM      2  N   UNL     1      17.346   7.417  21.749  0.00  0.00    -0.342 N 
ATOM      3  N   UNL     1      17.354   6.581  19.690  0.00  0.00    -0.232 NA
ATOM     16  C   UNL     1      18.096   6.915  20.722  0.00  0.00    +0.113 A 
ATOM     17  C   UNL     1      16.033   7.405  21.353  0.00  0.00    +0.067 A 
ATOM     18  C   UNL     1      16.064   6.879  20.065  0.00  0.00    +0.089 A 
ATOM     19  C   UNL     1      14.857   7.798  21.993  0.00  0.00    +0.046 A 
ATOM     20  C   UNL     1      14.860   6.728  19.358  0.00  0.00    +0.031 A 
ATOM     21  C   UNL     1      13.667   7.640  21.274  0.00  0.00    +0.054 A 
ATOM     22  C   UNL     1      13.666   7.115  19.980  0.00  0.00    +0.021 A 
ATOM     24  H   UNL     1      17.694   7.740  22.642  0.00  0.00    +0.167 HD
BRANCH  21  23
ATOM      4  N   UNL     1      11.424   8.338  22.368  0.00  0.00    -0.191 NA
ATOM     23  C   UNL     1      12.429   8.025  21.878  0.00  0.00    +0.099 C 
ENDBRANCH  21  23
ENDBRANCH   7  16
BRANCH   1   6
ATOM      6  C   UNL     1      21.761   3.994  21.839  0.00  0.00    +0.088 C 
BRANCH   6   5
ATOM      5  C   UNL     1      23.231   3.816  21.460  0.00  0.00    +0.003 C 
ATOM     10  C   UNL     1      23.653   4.860  20.418  0.00  0.00    +0.005 C 
ATOM     11  C   UNL     1      23.490   2.394  20.946  0.00  0.00    +0.005 C 
ATOM     13  C   UNL     1      25.105   4.668  19.985  0.00  0.00    +0.000 C 
ATOM     14  C   UNL     1      24.941   2.206  20.512  0.00  0.00    +0.000 C 
ATOM     15  C   UNL     1      25.360   3.251  19.482  0.00  0.00    +0.000 C 
ENDBRANCH   6   5
ENDBRANCH   1   6
TORSDOF 4
ENDMDL
MODEL 6
REMARK VINA RESULT:      -6.5     13.932     16.829
REMARK  Name = 45784316
REMARK  4 active torsions:
REMARK  status: ('A' for Active; 'I' for Inactive)
REMARK    1  A    between atoms: N_1  and  C_6
REMARK    2  A    between atoms: C_5  and  C_6
REMARK    3  A    between atoms: C_7  and  C_16
REMARK    4  A    between atoms: C_21  and  C_23
REMARK                            x       y       z     vdW  Elec       q    Type
REMARK                         _______ _______ _______ _____ _____    ______ ____
ROOT
ATOM      1  N   UNL     1      16.181   8.843   5.028  0.00  0.00    -0.301 NA
ATOM      7  C   UNL     1      14.110   7.744   4.982  0.00  0.00    +0.070 C 
ATOM      8  C   UNL     1      15.369   7.932   5.839  0.00  0.00    +0.095 C 
ATOM      9  C   UNL     1      15.239   9.847   4.533  0.00  0.00    +0.085 C 
ATOM     12  C   UNL     1      14.042   9.009   4.107  0.00  0.00    +0.028 C 
ENDROOT
BRANCH   7  16
ATOM      2  N   UNL     1      12.820   6.434   6.691  0.00  0.00    -0.342 N 
ATOM      3  N   UNL     1      11.750   8.159   5.787  0.00  0.00    -0.232 NA
ATOM     16  C   UNL     1      12.872   7.475   5.806  0.00  0.00    +0.113 A 
ATOM     17  C   UNL     1      11.583   6.447   7.281  0.00  0.00    +0.067 A 
ATOM     18  C   UNL     1      10.934   7.533   6.701  0.00  0.00    +0.089 A 
ATOM     19  C   UNL     1      10.994   5.628   8.245  0.00  0.00    +0.046 A 
ATOM     20  C   UNL     1       9.619   7.834   7.092  0.00  0.00    +0.031 A 
ATOM     21  C   UNL     1       9.684   5.942   8.623  0.00  0.00    +0.054 A 
ATOM     22  C   UNL     1       9.007   7.025   8.057  0.00  0.00    +0.021 A 
ATOM     24  H   UNL     1      13.560   5.770   6.879  0.00  0.00    +0.167 HD
BRANCH  21  23
ATOM      4  N   UNL     1       8.495   4.483  10.404  0.00  0.00    -0.191 NA
ATOM     23  C   UNL     1       9.027   5.137   9.606  0.00  0.00    +0.099 C 
ENDBRANCH  21  23
ENDBRANCH   7  16
BRANCH   1   6
ATOM      6  C   UNL     1      17.274   9.435   5.785  0.00  0.00    +0.088 C 
BRANCH   6   5
ATOM      5  C   UNL     1      18.458   8.474   5.873  0.00  0.00    +0.003 C 
ATOM     10  C   UNL     1      19.530   9.021   6.825  0.00  0.00    +0.005 C 
ATOM     11  C   UNL     1      19.046   8.209   4.481  0.00  0.00    +0.005 C 
ATOM     13  C   UNL     1      20.748   8.102   6.888  0.00  0.00    +0.000 C 
ATOM     14  C   UNL     1      20.265   7.293   4.548  0.00  0.00    +0.000 C 
ATOM     15  C   UNL     1      21.326   7.835   5.502  0.00  0.00    +0.000 C 
ENDBRANCH   6   5
ENDBRANCH   1   6
TORSDOF 4
ENDMDL
MODEL 7
REMARK VINA RESULT:      -6.4     28.035     30.069
REMARK  Name = 45784316
REMARK  4 active torsions:
REMARK  status: ('A' for Active; 'I' for Inactive)
REMARK    1  A    between atoms: N_1  and  C_6
REMARK    2  A    between atoms: C_5  and  C_6
REMARK    3  A    between atoms: C_7  and  C_16
REMARK    4  A    between atoms: C_21  and  C_23
REMARK                            x       y       z     vdW  Elec       q    Type
REMARK                         _______ _______ _______ _____ _____    ______ ____
ROOT
ATOM      1  N   UNL     1     -11.843  -7.443  15.191  0.00  0.00    -0.301 NA
ATOM      7  C   UNL     1     -10.431  -8.478  16.751  0.00  0.00    +0.070 C 
ATOM      8  C   UNL     1     -10.935  -8.588  15.306  0.00  0.00    +0.095 C 
ATOM      9  C   UNL     1     -11.141  -6.339  15.846  0.00  0.00    +0.085 C 
ATOM     12  C   UNL     1     -10.588  -6.989  17.107  0.00  0.00    +0.028 C 
ENDROOT
BRANCH   7  16
ATOM      2  N   UNL     1      -8.668  -9.672  18.081  0.00  0.00    -0.342 N 
ATOM      3  N   UNL     1      -8.049  -8.972  16.065  0.00  0.00    -0.232 NA
ATOM     16  C   UNL     1      -9.035  -9.030  16.931  0.00  0.00    +0.113 A 
ATOM     17  C   UNL     1      -7.358 -10.054  17.947  0.00  0.00    +0.067 A 
ATOM     18  C   UNL     1      -6.994  -9.605  16.680  0.00  0.00    +0.089 A 
ATOM     19  C   UNL     1      -6.487 -10.733  18.800  0.00  0.00    +0.046 A 
ATOM     20  C   UNL     1      -5.688  -9.839  16.221  0.00  0.00    +0.031 A 
ATOM     21  C   UNL     1      -5.190 -10.957  18.326  0.00  0.00    +0.054 A 
ATOM     22  C   UNL     1      -4.795 -10.518  17.059  0.00  0.00    +0.021 A 
ATOM     24  H   UNL     1      -9.255  -9.839  18.887  0.00  0.00    +0.167 HD
BRANCH  21  23
ATOM      4  N   UNL     1      -3.489 -12.207  19.829  0.00  0.00    -0.191 NA
ATOM     23  C   UNL     1      -4.251 -11.647  19.155  0.00  0.00    +0.099 C 
ENDBRANCH  21  23
ENDBRANCH   7  16
BRANCH   1   6
ATOM      6  C   UNL     1     -12.182  -7.142  13.809  0.00  0.00    +0.088 C 
BRANCH   6   5
ATOM      5  C   UNL     1     -12.769  -5.737  13.686  0.00  0.00    +0.003 C 
ATOM     10  C   UNL     1     -14.287  -5.800  13.468  0.00  0.00    +0.005 C 
ATOM     11  C   UNL     1     -12.086  -4.961  12.551  0.00  0.00    +0.005 C 
ATOM     13  C   UNL     1     -14.888  -4.408  13.289  0.00  0.00    +0.000 C 
ATOM     14  C   UNL     1     -12.692  -3.571  12.373  0.00  0.00    +0.000 C 
ATOM     15  C   UNL     1     -14.202  -3.637  12.166  0.00  0.00    +0.000 C 
ENDBRANCH   6   5
ENDBRANCH   1   6
TORSDOF 4
ENDMDL
MODEL 8
REMARK VINA RESULT:      -6.4     17.200     20.617
REMARK  Name = 45784316
REMARK  4 active torsions:
REMARK  status: ('A' for Active; 'I' for Inactive)
REMARK    1  A    between atoms: N_1  and  C_6
REMARK    2  A    between atoms: C_5  and  C_6
REMARK    3  A    between atoms: C_7  and  C_16
REMARK    4  A    between atoms: C_21  and  C_23
REMARK                            x       y       z     vdW  Elec       q    Type
REMARK                         _______ _______ _______ _____ _____    ______ ____
ROOT
ATOM      1  N   UNL     1      11.778   4.622   0.809  0.00  0.00    -0.301 NA
ATOM      7  C   UNL     1      10.259   5.578   2.319  0.00  0.00    +0.070 C 
ATOM      8  C   UNL     1      11.014   4.277   2.011  0.00  0.00    +0.095 C 
ATOM      9  C   UNL     1      12.307   5.961   1.070  0.00  0.00    +0.085 C 
ATOM     12  C   UNL     1      11.113   6.685   1.677  0.00  0.00    +0.028 C 
ENDROOT
BRANCH   7  16
ATOM      2  N   UNL     1      10.338   4.810   4.708  0.00  0.00    -0.342 N 
ATOM      3  N   UNL     1       9.405   6.797   4.362  0.00  0.00    -0.232 NA
ATOM     16  C   UNL     1       9.984   5.763   3.794  0.00  0.00    +0.113 A 
ATOM     17  C   UNL     1       9.962   5.259   5.948  0.00  0.00    +0.067 A 
ATOM     18  C   UNL     1       9.383   6.501   5.706  0.00  0.00    +0.089 A 
ATOM     19  C   UNL     1      10.077   4.702   7.222  0.00  0.00    +0.046 A 
ATOM     20  C   UNL     1       8.882   7.245   6.786  0.00  0.00    +0.031 A 
ATOM     21  C   UNL     1       9.573   5.457   8.287  0.00  0.00    +0.054 A 
ATOM     22  C   UNL     1       8.986   6.706   8.075  0.00  0.00    +0.021 A 
ATOM     24  H   UNL     1      10.795   3.930   4.509  0.00  0.00    +0.167 HD
BRANCH  21  23
ATOM      4  N   UNL     1       9.734   4.515  10.695  0.00  0.00    -0.191 NA
ATOM     23  C   UNL     1       9.662   4.937   9.616  0.00  0.00    +0.099 C 
ENDBRANCH  21  23
ENDBRANCH   7  16
BRANCH   1   6
ATOM      6  C   UNL     1      12.828   3.657   0.524  0.00  0.00    +0.088 C 
BRANCH   6   5
ATOM      5  C   UNL     1      12.792   3.229  -0.942  0.00  0.00    +0.003 C 
ATOM     10  C   UNL     1      13.686   4.138  -1.796  0.00  0.00    +0.005 C 
ATOM     11  C   UNL     1      11.351   3.226  -1.470  0.00  0.00    +0.005 C 
ATOM     13  C   UNL     1      13.623   3.761  -3.274  0.00  0.00    +0.000 C 
ATOM     14  C   UNL     1      11.293   2.852  -2.949  0.00  0.00    +0.000 C 
ATOM     15  C   UNL     1      12.189   3.752  -3.793  0.00  0.00    +0.000 C 
ENDBRANCH   6   5
ENDBRANCH   1   6
TORSDOF 4
ENDMDL
MODEL 9
REMARK VINA RESULT:      -6.4     26.341     29.868
REMARK  Name = 45784316
REMARK  4 active torsions:
REMARK  status: ('A' for Active; 'I' for Inactive)
REMARK    1  A    between atoms: N_1  and  C_6
REMARK    2  A    between atoms: C_5  and  C_6
REMARK    3  A    between atoms: C_7  and  C_16
REMARK    4  A    between atoms: C_21  and  C_23
REMARK                            x       y       z     vdW  Elec       q    Type
REMARK                         _______ _______ _______ _____ _____    ______ ____
ROOT
ATOM      1  N   UNL     1     -13.296   6.880  20.748  0.00  0.00    -0.301 NA
ATOM      7  C   UNL     1     -14.854   5.360  21.621  0.00  0.00    +0.070 C 
ATOM      8  C   UNL     1     -13.405   5.843  21.777  0.00  0.00    +0.095 C 
ATOM      9  C   UNL     1     -14.541   7.641  20.846  0.00  0.00    +0.085 C 
ATOM     12  C   UNL     1     -15.595   6.551  20.987  0.00  0.00    +0.028 C 
ENDROOT
BRANCH   7  16
ATOM      2  N   UNL     1     -15.431   3.530  23.239  0.00  0.00    -0.342 N 
ATOM      3  N   UNL     1     -16.028   5.583  23.849  0.00  0.00    -0.232 NA
ATOM     16  C   UNL     1     -15.450   4.859  22.917  0.00  0.00    +0.113 A 
ATOM     17  C   UNL     1     -16.039   3.388  24.461  0.00  0.00    +0.067 A 
ATOM     18  C   UNL     1     -16.402   4.683  24.820  0.00  0.00    +0.089 A 
ATOM     19  C   UNL     1     -16.293   2.271  25.258  0.00  0.00    +0.046 A 
ATOM     20  C   UNL     1     -17.060   4.895  26.043  0.00  0.00    +0.031 A 
ATOM     21  C   UNL     1     -16.948   2.501  26.472  0.00  0.00    +0.054 A 
ATOM     22  C   UNL     1     -17.326   3.789  26.859  0.00  0.00    +0.021 A 
ATOM     24  H   UNL     1     -15.040   2.783  22.681  0.00  0.00    +0.167 HD
BRANCH  21  23
ATOM      4  N   UNL     1     -17.470   0.496  28.029  0.00  0.00    -0.191 NA
ATOM     23  C   UNL     1     -17.237   1.395  27.332  0.00  0.00    +0.099 C 
ENDBRANCH  21  23
ENDBRANCH   7  16
BRANCH   1   6
ATOM      6  C   UNL     1     -12.120   7.717  20.927  0.00  0.00    +0.088 C 
BRANCH   6   5
ATOM      5  C   UNL     1     -11.792   8.478  19.644  0.00  0.00    +0.003 C 
ATOM     10  C   UNL     1     -11.434   7.506  18.512  0.00  0.00    +0.005 C 
ATOM     11  C   UNL     1     -10.654   9.481  19.884  0.00  0.00    +0.005 C 
ATOM     13  C   UNL     1     -11.051   8.247  17.233  0.00  0.00    +0.000 C 
ATOM     14  C   UNL     1     -10.272  10.217  18.603  0.00  0.00    +0.000 C 
ATOM     15  C   UNL     1      -9.925   9.247  17.477  0.00  0.00    +0.000 C 
ENDBRANCH   6   5
ENDBRANCH   1   6
TORSDOF 4
ENDMDL
MODEL 10
REMARK VINA RESULT:      -6.2     28.184     31.553
REMARK  Name = 45784316
REMARK  4 active torsions:
REMARK  status: ('A' for Active; 'I' for Inactive)
REMARK    1  A    between atoms: N_1  and  C_6
REMARK    2  A    between atoms: C_5  and  C_6
REMARK    3  A    between atoms: C_7  and  C_16
REMARK    4  A    between atoms: C_21  and  C_23
REMARK                            x       y       z     vdW  Elec       q    Type
REMARK                         _______ _______ _______ _____ _____    ______ ____
ROOT
ATOM      1  N   UNL     1      -9.282  -8.678  16.788  0.00  0.00    -0.301 NA
ATOM      7  C   UNL     1     -10.979  -7.070  16.601  0.00  0.00    +0.070 C 
ATOM      8  C   UNL     1      -9.703  -7.577  15.917  0.00  0.00    +0.095 C 
ATOM      9  C   UNL     1     -10.514  -9.401  17.102  0.00  0.00    +0.085 C 
ATOM     12  C   UNL     1     -11.500  -8.279  17.399  0.00  0.00    +0.028 C 
ENDROOT
BRANCH   7  16
ATOM      2  N   UNL     1     -11.593  -5.532  14.715  0.00  0.00    -0.342 N 
ATOM      3  N   UNL     1     -13.251  -6.766  15.534  0.00  0.00    -0.232 NA
ATOM     16  C   UNL     1     -11.972  -6.476  15.629  0.00  0.00    +0.113 A 
ATOM     17  C   UNL     1     -12.701  -5.190  13.983  0.00  0.00    +0.067 A 
ATOM     18  C   UNL     1     -13.723  -5.973  14.513  0.00  0.00    +0.089 A 
ATOM     19  C   UNL     1     -12.891  -4.291  12.933  0.00  0.00    +0.046 A 
ATOM     20  C   UNL     1     -15.016  -5.865  13.978  0.00  0.00    +0.031 A 
ATOM     21  C   UNL     1     -14.186  -4.196  12.412  0.00  0.00    +0.054 A 
ATOM     22  C   UNL     1     -15.231  -4.968  12.924  0.00  0.00    +0.021 A 
ATOM     24  H   UNL     1     -10.663  -5.152  14.597  0.00  0.00    +0.167 HD
BRANCH  21  23
ATOM      4  N   UNL     1     -14.650  -2.554  10.462  0.00  0.00    -0.191 NA
ATOM     23  C   UNL     1     -14.442  -3.290  11.336  0.00  0.00    +0.099 C 
ENDBRANCH  21  23
ENDBRANCH   7  16
BRANCH   1   6
ATOM      6  C   UNL     1      -8.284  -9.531  16.161  0.00  0.00    +0.088 C 
BRANCH   6   5
ATOM      5  C   UNL     1      -7.008  -9.583  16.999  0.00  0.00    +0.003 C 
ATOM     10  C   UNL     1      -5.825 -10.079  16.156  0.00  0.00    +0.005 C 
ATOM     11  C   UNL     1      -7.208 -10.470  18.236  0.00  0.00    +0.005 C 
ATOM     13  C   UNL     1      -4.549 -10.190  16.988  0.00  0.00    +0.000 C 
ATOM     14  C   UNL     1      -5.930 -10.581  19.063  0.00  0.00    +0.000 C 
ATOM     15  C   UNL     1      -4.754 -11.066  18.220  0.00  0.00    +0.000 C 
ENDBRANCH   6   5
ENDBRANCH   1   6
TORSDOF 4
ENDMDL
