MODEL 1
REMARK VINA RESULT:      -7.7      0.000      0.000
REMARK  Name = 11912192
REMARK  6 active torsions:
REMARK  status: ('A' for Active; 'I' for Inactive)
REMARK    1  A    between atoms: S_1  and  N_8
REMARK    2  A    between atoms: S_1  and  C_20
REMARK    3  A    between atoms: N_8  and  C_15
REMARK    4  A    between atoms: N_9  and  C_16
REMARK    5  A    between atoms: C_21  and  C_30
REMARK    6  A    between atoms: C_23  and  C_28
REMARK                            x       y       z     vdW  Elec       q    Type
REMARK                         _______ _______ _______ _____ _____    ______ ____
ROOT
ATOM      2  O   UNL     1      -6.548 -11.769  10.831  0.00  0.00    -0.370 OA
ATOM      3  O   UNL     1      -5.385  -8.895  10.445  0.00  0.00    -0.370 OA
ATOM     13  C   UNL     1      -5.106 -10.163   9.829  0.00  0.00    +0.170 C 
ATOM     14  C   UNL     1      -5.221 -11.224  10.907  0.00  0.00    +0.171 C 
ATOM     15  C   UNL     1      -6.198 -10.516   8.847  0.00  0.00    +0.133 C 
ATOM     16  C   UNL     1      -5.041 -10.460  12.197  0.00  0.00    +0.130 C 
ATOM     17  C   UNL     1      -7.244 -11.169   9.729  0.00  0.00    +0.183 C 
ATOM     18  C   UNL     1      -5.591  -9.088  11.852  0.00  0.00    +0.185 C 
ENDROOT
BRANCH  16   9
ATOM      9  N   UNL     1      -3.635 -10.367  12.526  0.00  0.00    -0.306 N 
ATOM     10  N   UNL     1      -4.039 -10.667  14.818  0.00  0.00    -0.214 NA
ATOM     11  N   UNL     1      -1.797 -10.367  13.985  0.00  0.00    -0.223 NA
ATOM     19  C   UNL     1      -3.142 -10.470  13.815  0.00  0.00    +0.216 A 
ATOM     23  C   UNL     1      -3.523 -10.763  16.062  0.00  0.00    +0.076 A 
ATOM     24  C   UNL     1      -1.351 -10.471  15.254  0.00  0.00    +0.116 A 
ATOM     26  C   UNL     1      -2.175 -10.672  16.342  0.00  0.00    +0.048 A 
ATOM     38  H   UNL     1      -2.955 -10.273  11.781  0.00  0.00    +0.149 HD
BRANCH  23  28
ATOM      6  O   UNL     1      -8.034 -10.488  17.949  0.00  0.00    -0.453 OA
ATOM      7  O   UNL     1      -7.344 -11.509  20.019  0.00  0.00    -0.453 OA
ATOM     28  C   UNL     1      -4.491 -10.973  17.112  0.00  0.00    +0.004 A 
ATOM     31  C   UNL     1      -5.821 -10.583  16.921  0.00  0.00    +0.059 A 
ATOM     32  C   UNL     1      -4.091 -11.569  18.323  0.00  0.00    +0.014 A 
ATOM     33  C   UNL     1      -6.710 -10.803  17.954  0.00  0.00    +0.167 A 
ATOM     34  C   UNL     1      -6.315 -11.385  19.136  0.00  0.00    +0.166 A 
ATOM     35  C   UNL     1      -5.011 -11.781  19.352  0.00  0.00    +0.050 A 
ATOM     36  C   UNL     1      -8.430 -10.940  19.259  0.00  0.00    +0.466 C 
ENDBRANCH  23  28
ENDBRANCH  16   9
BRANCH  15   8
ATOM      8  N   UNL     1      -5.686 -11.505   7.868  0.00  0.00    -0.182 NA
ATOM     37  H   UNL     1      -5.289 -12.383   8.223  0.00  0.00    +0.148 HD
BRANCH   8   1
ATOM      1  S   UNL     1      -6.216 -11.369   6.246  0.00  0.00    +0.060 S 
ATOM      4  O   UNL     1      -6.319  -9.968   5.888  0.00  0.00    -0.153 OA
ATOM      5  O   UNL     1      -7.320 -12.285   6.037  0.00  0.00    -0.153 OA
BRANCH   1  20
ATOM     20  C   UNL     1      -4.915 -12.035   5.207  0.00  0.00    +0.123 A 
ATOM     21  C   UNL     1      -5.101 -12.156   3.850  0.00  0.00    +0.078 A 
ATOM     22  C   UNL     1      -3.751 -12.410   5.838  0.00  0.00    +0.030 A 
ATOM     25  C   UNL     1      -4.064 -12.680   3.079  0.00  0.00    +0.021 A 
ATOM     27  C   UNL     1      -2.714 -12.934   5.067  0.00  0.00    +0.002 A 
ATOM     29  C   UNL     1      -2.870 -13.069   3.687  0.00  0.00    +0.001 A 
BRANCH  21  30
ATOM     12  N   UNL     1      -7.293 -11.452   2.663  0.00  0.00    -0.191 NA
ATOM     30  C   UNL     1      -6.313 -11.767   3.194  0.00  0.00    +0.101 C 
ENDBRANCH  21  30
ENDBRANCH   1  20
ENDBRANCH   8   1
ENDBRANCH  15   8
TORSDOF 6
ENDMDL
MODEL 2
REMARK VINA RESULT:      -7.6     28.675     32.580
REMARK  Name = 11912192
REMARK  6 active torsions:
REMARK  status: ('A' for Active; 'I' for Inactive)
REMARK    1  A    between atoms: S_1  and  N_8
REMARK    2  A    between atoms: S_1  and  C_20
REMARK    3  A    between atoms: N_8  and  C_15
REMARK    4  A    between atoms: N_9  and  C_16
REMARK    5  A    between atoms: C_21  and  C_30
REMARK    6  A    between atoms: C_23  and  C_28
REMARK                            x       y       z     vdW  Elec       q    Type
REMARK                         _______ _______ _______ _____ _____    ______ ____
ROOT
ATOM      2  O   UNL     1      19.545   6.268  20.116  0.00  0.00    -0.370 OA
ATOM      3  O   UNL     1      19.317   8.450  22.341  0.00  0.00    -0.370 OA
ATOM     13  C   UNL     1      19.447   7.019  22.372  0.00  0.00    +0.170 C 
ATOM     14  C   UNL     1      18.639   6.467  21.213  0.00  0.00    +0.171 C 
ATOM     15  C   UNL     1      20.868   6.617  22.055  0.00  0.00    +0.133 C 
ATOM     16  C   UNL     1      17.658   7.570  20.889  0.00  0.00    +0.130 C 
ATOM     17  C   UNL     1      20.878   6.590  20.539  0.00  0.00    +0.183 C 
ATOM     18  C   UNL     1      18.421   8.821  21.284  0.00  0.00    +0.185 C 
ENDROOT
BRANCH  16   9
ATOM      9  N   UNL     1      16.470   7.431  21.701  0.00  0.00    -0.306 N 
ATOM     10  N   UNL     1      15.085   8.306  20.021  0.00  0.00    -0.214 NA
ATOM     11  N   UNL     1      14.171   7.605  22.139  0.00  0.00    -0.223 NA
ATOM     19  C   UNL     1      15.204   7.791  21.274  0.00  0.00    +0.216 A 
ATOM     23  C   UNL     1      13.836   8.646  19.638  0.00  0.00    +0.076 A 
ATOM     24  C   UNL     1      12.952   7.968  21.690  0.00  0.00    +0.116 A 
ATOM     26  C   UNL     1      12.721   8.498  20.437  0.00  0.00    +0.048 A 
ATOM     38  H   UNL     1      16.540   7.000  22.616  0.00  0.00    +0.149 HD
BRANCH  23  28
ATOM      6  O   UNL     1      15.397  11.453  15.941  0.00  0.00    -0.453 OA
ATOM      7  O   UNL     1      13.551  10.809  14.533  0.00  0.00    -0.453 OA
ATOM     28  C   UNL     1      13.732   9.189  18.305  0.00  0.00    +0.004 A 
ATOM     31  C   UNL     1      14.701  10.084  17.839  0.00  0.00    +0.059 A 
ATOM     32  C   UNL     1      12.654   8.815  17.480  0.00  0.00    +0.014 A 
ATOM     33  C   UNL     1      14.559  10.577  16.557  0.00  0.00    +0.167 A 
ATOM     34  C   UNL     1      13.503  10.209  15.754  0.00  0.00    +0.166 A 
ATOM     35  C   UNL     1      12.533   9.329  16.186  0.00  0.00    +0.050 A 
ATOM     36  C   UNL     1      14.754  11.595  14.659  0.00  0.00    +0.466 C 
ENDBRANCH  23  28
ENDBRANCH  16   9
BRANCH  15   8
ATOM      8  N   UNL     1      21.128   5.254  22.578  0.00  0.00    -0.182 NA
ATOM     37  H   UNL     1      20.585   4.472  22.193  0.00  0.00    +0.148 HD
BRANCH   8   1
ATOM      1  S   UNL     1      22.605   4.983  23.398  0.00  0.00    +0.060 S 
ATOM      4  O   UNL     1      22.332   4.539  24.751  0.00  0.00    -0.153 OA
ATOM      5  O   UNL     1      23.497   6.095  23.135  0.00  0.00    -0.153 OA
BRANCH   1  20
ATOM     20  C   UNL     1      23.411   3.598  22.593  0.00  0.00    +0.123 A 
ATOM     21  C   UNL     1      24.594   3.099  23.084  0.00  0.00    +0.078 A 
ATOM     22  C   UNL     1      22.787   3.081  21.480  0.00  0.00    +0.030 A 
ATOM     25  C   UNL     1      25.188   2.022  22.427  0.00  0.00    +0.021 A 
ATOM     27  C   UNL     1      23.381   2.004  20.823  0.00  0.00    +0.002 A 
ATOM     29  C   UNL     1      24.582   1.474  21.297  0.00  0.00    +0.001 A 
BRANCH  21  30
ATOM     12  N   UNL     1      25.770   4.074  25.177  0.00  0.00    -0.191 NA
ATOM     30  C   UNL     1      25.244   3.638  24.241  0.00  0.00    +0.101 C 
ENDBRANCH  21  30
ENDBRANCH   1  20
ENDBRANCH   8   1
ENDBRANCH  15   8
TORSDOF 6
ENDMDL
MODEL 3
REMARK VINA RESULT:      -7.5     27.408     29.808
REMARK  Name = 11912192
REMARK  6 active torsions:
REMARK  status: ('A' for Active; 'I' for Inactive)
REMARK    1  A    between atoms: S_1  and  N_8
REMARK    2  A    between atoms: S_1  and  C_20
REMARK    3  A    between atoms: N_8  and  C_15
REMARK    4  A    between atoms: N_9  and  C_16
REMARK    5  A    between atoms: C_21  and  C_30
REMARK    6  A    between atoms: C_23  and  C_28
REMARK                            x       y       z     vdW  Elec       q    Type
REMARK                         _______ _______ _______ _____ _____    ______ ____
ROOT
ATOM      2  O   UNL     1      15.953  10.019  22.087  0.00  0.00    -0.370 OA
ATOM      3  O   UNL     1      16.372   8.013  19.728  0.00  0.00    -0.370 OA
ATOM     13  C   UNL     1      15.462   9.104  19.945  0.00  0.00    +0.170 C 
ATOM     14  C   UNL     1      15.085   9.092  21.414  0.00  0.00    +0.171 C 
ATOM     15  C   UNL     1      16.175  10.422  19.759  0.00  0.00    +0.133 C 
ATOM     16  C   UNL     1      15.382   7.679  21.860  0.00  0.00    +0.130 C 
ATOM     17  C   UNL     1      16.796  10.663  21.121  0.00  0.00    +0.183 C 
ATOM     18  C   UNL     1      16.527   7.276  20.950  0.00  0.00    +0.185 C 
ENDROOT
BRANCH  16   9
ATOM      9  N   UNL     1      14.233   6.833  21.623  0.00  0.00    -0.306 N 
ATOM     10  N   UNL     1      12.722   8.558  22.118  0.00  0.00    -0.214 NA
ATOM     11  N   UNL     1      11.937   6.366  21.494  0.00  0.00    -0.223 NA
ATOM     19  C   UNL     1      12.925   7.265  21.748  0.00  0.00    +0.216 A 
ATOM     23  C   UNL     1      11.434   8.946  22.231  0.00  0.00    +0.076 A 
ATOM     24  C   UNL     1      10.674   6.821  21.626  0.00  0.00    +0.116 A 
ATOM     26  C   UNL     1      10.359   8.113  21.995  0.00  0.00    +0.048 A 
ATOM     38  H   UNL     1      14.373   5.883  21.296  0.00  0.00    +0.149 HD
BRANCH  23  28
ATOM      6  O   UNL     1      10.475  12.446  25.518  0.00  0.00    -0.453 OA
ATOM      7  O   UNL     1      10.663  14.193  23.870  0.00  0.00    -0.453 OA
ATOM     28  C   UNL     1      11.240  10.321  22.623  0.00  0.00    +0.004 A 
ATOM     31  C   UNL     1      10.945  10.631  23.954  0.00  0.00    +0.059 A 
ATOM     32  C   UNL     1      11.349  11.344  21.662  0.00  0.00    +0.014 A 
ATOM     33  C   UNL     1      10.768  11.961  24.282  0.00  0.00    +0.167 A 
ATOM     34  C   UNL     1      10.875  12.958  23.339  0.00  0.00    +0.166 A 
ATOM     35  C   UNL     1      11.166  12.682  22.019  0.00  0.00    +0.050 A 
ATOM     36  C   UNL     1      10.411  13.862  25.250  0.00  0.00    +0.466 C 
ENDBRANCH  23  28
ENDBRANCH  16   9
BRANCH  15   8
ATOM      8  N   UNL     1      15.184  11.487  19.469  0.00  0.00    -0.182 NA
ATOM     37  H   UNL     1      15.060  12.238  20.159  0.00  0.00    +0.148 HD
BRANCH   8   1
ATOM      1  S   UNL     1      14.678  11.687  17.847  0.00  0.00    +0.060 S 
ATOM      4  O   UNL     1      15.767  11.335  16.956  0.00  0.00    -0.153 OA
ATOM      5  O   UNL     1      13.984  12.954  17.726  0.00  0.00    -0.153 OA
BRANCH   1  20
ATOM     20  C   UNL     1      13.395  10.473  17.540  0.00  0.00    +0.123 A 
ATOM     21  C   UNL     1      13.015  10.172  16.253  0.00  0.00    +0.078 A 
ATOM     22  C   UNL     1      12.828   9.879  18.644  0.00  0.00    +0.030 A 
ATOM     25  C   UNL     1      12.012   9.223  16.058  0.00  0.00    +0.021 A 
ATOM     27  C   UNL     1      11.825   8.930  18.449  0.00  0.00    +0.002 A 
ATOM     29  C   UNL     1      11.417   8.602  17.156  0.00  0.00    +0.001 A 
BRANCH  21  30
ATOM     12  N   UNL     1      14.080  11.292  14.174  0.00  0.00    -0.191 NA
ATOM     30  C   UNL     1      13.604  10.791  15.104  0.00  0.00    +0.101 C 
ENDBRANCH  21  30
ENDBRANCH   1  20
ENDBRANCH   8   1
ENDBRANCH  15   8
TORSDOF 6
ENDMDL
MODEL 4
REMARK VINA RESULT:      -7.4     27.581     31.057
REMARK  Name = 11912192
REMARK  6 active torsions:
REMARK  status: ('A' for Active; 'I' for Inactive)
REMARK    1  A    between atoms: S_1  and  N_8
REMARK    2  A    between atoms: S_1  and  C_20
REMARK    3  A    between atoms: N_8  and  C_15
REMARK    4  A    between atoms: N_9  and  C_16
REMARK    5  A    between atoms: C_21  and  C_30
REMARK    6  A    between atoms: C_23  and  C_28
REMARK                            x       y       z     vdW  Elec       q    Type
REMARK                         _______ _______ _______ _____ _____    ______ ____
ROOT
ATOM      2  O   UNL     1      12.728  12.970  20.586  0.00  0.00    -0.370 OA
ATOM      3  O   UNL     1      13.348  12.443  23.603  0.00  0.00    -0.370 OA
ATOM     13  C   UNL     1      13.742  11.788  22.386  0.00  0.00    +0.170 C 
ATOM     14  C   UNL     1      12.553  11.831  21.445  0.00  0.00    +0.171 C 
ATOM     15  C   UNL     1      14.802  12.597  21.677  0.00  0.00    +0.133 C 
ATOM     16  C   UNL     1      11.367  12.041  22.358  0.00  0.00    +0.130 C 
ATOM     17  C   UNL     1      13.985  13.596  20.881  0.00  0.00    +0.183 C 
ATOM     18  C   UNL     1      11.968  12.825  23.509  0.00  0.00    +0.185 C 
ENDROOT
BRANCH  16   9
ATOM      9  N   UNL     1      10.870  10.766  22.826  0.00  0.00    -0.306 N 
ATOM     10  N   UNL     1      11.655   9.637  20.924  0.00  0.00    -0.214 NA
ATOM     11  N   UNL     1      10.500   8.453  22.677  0.00  0.00    -0.223 NA
ATOM     19  C   UNL     1      11.013   9.584  22.121  0.00  0.00    +0.216 A 
ATOM     23  C   UNL     1      11.776   8.466  20.264  0.00  0.00    +0.076 A 
ATOM     24  C   UNL     1      10.657   7.319  21.964  0.00  0.00    +0.116 A 
ATOM     26  C   UNL     1      11.293   7.264  20.740  0.00  0.00    +0.048 A 
ATOM     38  H   UNL     1      10.437  10.705  23.740  0.00  0.00    +0.149 HD
BRANCH  23  28
ATOM      6  O   UNL     1      13.843  10.935  16.575  0.00  0.00    -0.453 OA
ATOM      7  O   UNL     1      14.408   8.911  15.397  0.00  0.00    -0.453 OA
ATOM     28  C   UNL     1      12.461   8.545  18.997  0.00  0.00    +0.004 A 
ATOM     31  C   UNL     1      12.793   9.794  18.460  0.00  0.00    +0.059 A 
ATOM     32  C   UNL     1      12.793   7.364  18.306  0.00  0.00    +0.014 A 
ATOM     33  C   UNL     1      13.447   9.820  17.245  0.00  0.00    +0.167 A 
ATOM     34  C   UNL     1      13.769   8.663  16.573  0.00  0.00    +0.166 A 
ATOM     35  C   UNL     1      13.455   7.418  17.077  0.00  0.00    +0.050 A 
ATOM     36  C   UNL     1      14.452  10.352  15.405  0.00  0.00    +0.466 C 
ENDBRANCH  23  28
ENDBRANCH  16   9
BRANCH  15   8
ATOM      8  N   UNL     1      15.559  11.722  20.749  0.00  0.00    -0.182 NA
ATOM     37  H   UNL     1      15.327  11.756  19.750  0.00  0.00    +0.148 HD
BRANCH   8   1
ATOM      1  S   UNL     1      17.058  11.097  21.287  0.00  0.00    +0.060 S 
ATOM      4  O   UNL     1      17.164  11.265  22.723  0.00  0.00    -0.153 OA
ATOM      5  O   UNL     1      18.103  11.559  20.394  0.00  0.00    -0.153 OA
BRANCH   1  20
ATOM     20  C   UNL     1      17.022   9.326  21.013  0.00  0.00    +0.123 A 
ATOM     21  C   UNL     1      18.057   8.533  21.448  0.00  0.00    +0.078 A 
ATOM     22  C   UNL     1      15.922   8.824  20.355  0.00  0.00    +0.030 A 
ATOM     25  C   UNL     1      17.990   7.160  21.214  0.00  0.00    +0.021 A 
ATOM     27  C   UNL     1      15.855   7.451  20.120  0.00  0.00    +0.002 A 
ATOM     29  C   UNL     1      16.889   6.619  20.550  0.00  0.00    +0.001 A 
BRANCH  21  30
ATOM     12  N   UNL     1      20.129   9.477  22.685  0.00  0.00    -0.191 NA
ATOM     30  C   UNL     1      19.202   9.055  22.132  0.00  0.00    +0.101 C 
ENDBRANCH  21  30
ENDBRANCH   1  20
ENDBRANCH   8   1
ENDBRANCH  15   8
TORSDOF 6
ENDMDL
MODEL 5
REMARK VINA RESULT:      -7.3     21.500     23.054
REMARK  Name = 11912192
REMARK  6 active torsions:
REMARK  status: ('A' for Active; 'I' for Inactive)
REMARK    1  A    between atoms: S_1  and  N_8
REMARK    2  A    between atoms: S_1  and  C_20
REMARK    3  A    between atoms: N_8  and  C_15
REMARK    4  A    between atoms: N_9  and  C_16
REMARK    5  A    between atoms: C_21  and  C_30
REMARK    6  A    between atoms: C_23  and  C_28
REMARK                            x       y       z     vdW  Elec       q    Type
REMARK                         _______ _______ _______ _____ _____    ______ ____
ROOT
ATOM      2  O   UNL     1     -15.046   7.584  22.682  0.00  0.00    -0.370 OA
ATOM      3  O   UNL     1     -13.200   5.121  22.141  0.00  0.00    -0.370 OA
ATOM     13  C   UNL     1     -14.014   5.949  21.294  0.00  0.00    +0.170 C 
ATOM     14  C   UNL     1     -15.266   6.300  22.075  0.00  0.00    +0.171 C 
ATOM     15  C   UNL     1     -13.339   7.280  21.061  0.00  0.00    +0.133 C 
ATOM     16  C   UNL     1     -15.353   5.227  23.135  0.00  0.00    +0.130 C 
ATOM     17  C   UNL     1     -13.767   8.089  22.270  0.00  0.00    +0.183 C 
ATOM     18  C   UNL     1     -13.897   4.873  23.370  0.00  0.00    +0.185 C 
ENDROOT
BRANCH  16   9
ATOM      9  N   UNL     1     -16.071   4.082  22.622  0.00  0.00    -0.306 N 
ATOM     10  N   UNL     1     -16.322   3.143  24.758  0.00  0.00    -0.214 NA
ATOM     11  N   UNL     1     -17.209   2.038  22.808  0.00  0.00    -0.223 NA
ATOM     19  C   UNL     1     -16.548   3.057  23.420  0.00  0.00    +0.216 A 
ATOM     23  C   UNL     1     -16.801   2.127  25.506  0.00  0.00    +0.076 A 
ATOM     24  C   UNL     1     -17.661   1.057  23.616  0.00  0.00    +0.116 A 
ATOM     26  C   UNL     1     -17.485   1.048  24.985  0.00  0.00    +0.048 A 
ATOM     38  H   UNL     1     -16.291   4.034  21.633  0.00  0.00    +0.149 HD
BRANCH  23  28
ATOM      6  O   UNL     1     -15.773   4.671  29.562  0.00  0.00    -0.453 OA
ATOM      7  O   UNL     1     -15.818   2.695  30.940  0.00  0.00    -0.453 OA
ATOM     28  C   UNL     1     -16.551   2.239  26.922  0.00  0.00    +0.004 A 
ATOM     31  C   UNL     1     -16.284   3.491  27.487  0.00  0.00    +0.059 A 
ATOM     32  C   UNL     1     -16.576   1.086  27.730  0.00  0.00    +0.014 A 
ATOM     33  C   UNL     1     -16.050   3.548  28.846  0.00  0.00    +0.167 A 
ATOM     34  C   UNL     1     -16.075   2.418  29.632  0.00  0.00    +0.166 A 
ATOM     35  C   UNL     1     -16.336   1.171  29.104  0.00  0.00    +0.050 A 
ATOM     36  C   UNL     1     -15.629   4.123  30.888  0.00  0.00    +0.466 C 
ENDBRANCH  23  28
ENDBRANCH  16   9
BRANCH  15   8
ATOM      8  N   UNL     1     -13.881   7.904  19.829  0.00  0.00    -0.182 NA
ATOM     37  H   UNL     1     -14.730   8.476  19.905  0.00  0.00    +0.148 HD
BRANCH   8   1
ATOM      1  S   UNL     1     -12.833   8.056  18.485  0.00  0.00    +0.060 S 
ATOM      4  O   UNL     1     -13.606   7.987  17.260  0.00  0.00    -0.153 OA
ATOM      5  O   UNL     1     -11.677   7.207  18.696  0.00  0.00    -0.153 OA
BRANCH   1  20
ATOM     20  C   UNL     1     -12.152   9.713  18.530  0.00  0.00    +0.123 A 
ATOM     21  C   UNL     1     -11.258  10.125  17.570  0.00  0.00    +0.078 A 
ATOM     22  C   UNL     1     -12.568  10.526  19.560  0.00  0.00    +0.030 A 
ATOM     25  C   UNL     1     -10.751  11.422  17.642  0.00  0.00    +0.021 A 
ATOM     27  C   UNL     1     -12.061  11.823  19.633  0.00  0.00    +0.002 A 
ATOM     29  C   UNL     1     -11.153  12.272  18.673  0.00  0.00    +0.001 A 
BRANCH  21  30
ATOM     12  N   UNL     1     -10.474   8.597  15.631  0.00  0.00    -0.191 NA
ATOM     30  C   UNL     1     -10.825   9.280  16.498  0.00  0.00    +0.101 C 
ENDBRANCH  21  30
ENDBRANCH   1  20
ENDBRANCH   8   1
ENDBRANCH  15   8
TORSDOF 6
ENDMDL
MODEL 6
REMARK VINA RESULT:      -7.2     23.198     26.834
REMARK  Name = 11912192
REMARK  6 active torsions:
REMARK  status: ('A' for Active; 'I' for Inactive)
REMARK    1  A    between atoms: S_1  and  N_8
REMARK    2  A    between atoms: S_1  and  C_20
REMARK    3  A    between atoms: N_8  and  C_15
REMARK    4  A    between atoms: N_9  and  C_16
REMARK    5  A    between atoms: C_21  and  C_30
REMARK    6  A    between atoms: C_23  and  C_28
REMARK                            x       y       z     vdW  Elec       q    Type
REMARK                         _______ _______ _______ _____ _____    ______ ____
ROOT
ATOM      2  O   UNL     1       8.881   3.060  -3.694  0.00  0.00    -0.370 OA
ATOM      3  O   UNL     1      10.283   5.019  -5.684  0.00  0.00    -0.370 OA
ATOM     13  C   UNL     1      10.300   4.887  -4.253  0.00  0.00    +0.170 C 
ATOM     14  C   UNL     1       8.902   4.492  -3.819  0.00  0.00    +0.171 C 
ATOM     15  C   UNL     1      11.158   3.711  -3.849  0.00  0.00    +0.133 C 
ATOM     16  C   UNL     1       8.021   4.930  -4.966  0.00  0.00    +0.130 C 
ATOM     17  C   UNL     1      10.195   2.544  -3.950  0.00  0.00    +0.183 C 
ATOM     18  C   UNL     1       8.947   4.805  -6.162  0.00  0.00    +0.185 C 
ENDROOT
BRANCH  16   9
ATOM      9  N   UNL     1       7.620   6.307  -4.785  0.00  0.00    -0.306 N 
ATOM     10  N   UNL     1       5.340   5.755  -4.754  0.00  0.00    -0.214 NA
ATOM     11  N   UNL     1       6.063   8.041  -4.508  0.00  0.00    -0.223 NA
ATOM     19  C   UNL     1       6.302   6.713  -4.679  0.00  0.00    +0.216 A 
ATOM     23  C   UNL     1       4.066   6.187  -4.648  0.00  0.00    +0.076 A 
ATOM     24  C   UNL     1       4.767   8.402  -4.410  0.00  0.00    +0.116 A 
ATOM     26  C   UNL     1       3.716   7.510  -4.472  0.00  0.00    +0.048 A 
ATOM     38  H   UNL     1       8.331   7.022  -4.675  0.00  0.00    +0.149 HD
BRANCH  23  28
ATOM      6  O   UNL     1       2.539   1.671  -5.771  0.00  0.00    -0.453 OA
ATOM      7  O   UNL     1       0.296   2.128  -5.019  0.00  0.00    -0.453 OA
ATOM     28  C   UNL     1       3.061   5.154  -4.729  0.00  0.00    +0.004 A 
ATOM     31  C   UNL     1       3.394   3.896  -5.243  0.00  0.00    +0.059 A 
ATOM     32  C   UNL     1       1.749   5.418  -4.291  0.00  0.00    +0.014 A 
ATOM     33  C   UNL     1       2.400   2.940  -5.301  0.00  0.00    +0.167 A 
ATOM     34  C   UNL     1       1.119   3.203  -4.873  0.00  0.00    +0.166 A 
ATOM     35  C   UNL     1       0.761   4.433  -4.361  0.00  0.00    +0.050 A 
ATOM     36  C   UNL     1       1.203   1.161  -5.587  0.00  0.00    +0.466 C 
ENDBRANCH  23  28
ENDBRANCH  16   9
BRANCH  15   8
ATOM      8  N   UNL     1      11.595   3.875  -2.441  0.00  0.00    -0.182 NA
ATOM     37  H   UNL     1      11.299   3.172  -1.754  0.00  0.00    +0.148 HD
BRANCH   8   1
ATOM      1  S   UNL     1      12.929   4.901  -2.134  0.00  0.00    +0.060 S 
ATOM      4  O   UNL     1      12.451   6.240  -1.846  0.00  0.00    -0.153 OA
ATOM      5  O   UNL     1      13.943   4.663  -3.141  0.00  0.00    -0.153 OA
BRANCH   1  20
ATOM     20  C   UNL     1      13.697   4.330  -0.618  0.00  0.00    +0.123 A 
ATOM     21  C   UNL     1      12.927   4.000   0.472  0.00  0.00    +0.078 A 
ATOM     22  C   UNL     1      15.071   4.248  -0.614  0.00  0.00    +0.030 A 
ATOM     25  C   UNL     1      13.565   3.562   1.632  0.00  0.00    +0.021 A 
ATOM     27  C   UNL     1      15.709   3.810   0.546  0.00  0.00    +0.002 A 
ATOM     29  C   UNL     1      14.956   3.466   1.669  0.00  0.00    +0.001 A 
BRANCH  21  30
ATOM     12  N   UNL     1      10.341   4.157   0.466  0.00  0.00    -0.191 NA
ATOM     30  C   UNL     1      11.498   4.087   0.468  0.00  0.00    +0.101 C 
ENDBRANCH  21  30
ENDBRANCH   1  20
ENDBRANCH   8   1
ENDBRANCH  15   8
TORSDOF 6
ENDMDL
MODEL 7
REMARK VINA RESULT:      -7.1      3.188     10.898
REMARK  Name = 11912192
REMARK  6 active torsions:
REMARK  status: ('A' for Active; 'I' for Inactive)
REMARK    1  A    between atoms: S_1  and  N_8
REMARK    2  A    between atoms: S_1  and  C_20
REMARK    3  A    between atoms: N_8  and  C_15
REMARK    4  A    between atoms: N_9  and  C_16
REMARK    5  A    between atoms: C_21  and  C_30
REMARK    6  A    between atoms: C_23  and  C_28
REMARK                            x       y       z     vdW  Elec       q    Type
REMARK                         _______ _______ _______ _____ _____    ______ ____
ROOT
ATOM      2  O   UNL     1      -3.057 -13.068  12.784  0.00  0.00    -0.370 OA
ATOM      3  O   UNL     1      -2.178 -10.274  13.872  0.00  0.00    -0.370 OA
ATOM     13  C   UNL     1      -3.328 -11.105  14.102  0.00  0.00    +0.170 C 
ATOM     14  C   UNL     1      -3.675 -11.770  12.784  0.00  0.00    +0.171 C 
ATOM     15  C   UNL     1      -2.966 -12.255  15.012  0.00  0.00    +0.133 C 
ATOM     16  C   UNL     1      -3.033 -10.884  11.743  0.00  0.00    +0.130 C 
ATOM     17  C   UNL     1      -2.410 -13.284  14.046  0.00  0.00    +0.183 C 
ATOM     18  C   UNL     1      -1.832 -10.320  12.481  0.00  0.00    +0.185 C 
ENDROOT
BRANCH  16   9
ATOM      9  N   UNL     1      -3.938  -9.819  11.372  0.00  0.00    -0.306 N 
ATOM     10  N   UNL     1      -4.279 -10.707   9.227  0.00  0.00    -0.214 NA
ATOM     11  N   UNL     1      -5.384  -8.679   9.917  0.00  0.00    -0.223 NA
ATOM     19  C   UNL     1      -4.552  -9.733  10.135  0.00  0.00    +0.216 A 
ATOM     23  C   UNL     1      -4.896 -10.591   8.032  0.00  0.00    +0.076 A 
ATOM     24  C   UNL     1      -5.966  -8.626   8.701  0.00  0.00    +0.116 A 
ATOM     26  C   UNL     1      -5.757  -9.563   7.709  0.00  0.00    +0.048 A 
ATOM     38  H   UNL     1      -4.189  -9.117  12.059  0.00  0.00    +0.149 HD
BRANCH  23  28
ATOM      6  O   UNL     1      -4.651 -12.423   3.497  0.00  0.00    -0.453 OA
ATOM      7  O   UNL     1      -3.777 -14.527   4.280  0.00  0.00    -0.453 OA
ATOM     28  C   UNL     1      -4.593 -11.636   7.083  0.00  0.00    +0.004 A 
ATOM     31  C   UNL     1      -4.808 -11.422   5.718  0.00  0.00    +0.059 A 
ATOM     32  C   UNL     1      -4.082 -12.867   7.537  0.00  0.00    +0.014 A 
ATOM     33  C   UNL     1      -4.504 -12.450   4.849  0.00  0.00    +0.167 A 
ATOM     34  C   UNL     1      -4.006 -13.652   5.297  0.00  0.00    +0.166 A 
ATOM     35  C   UNL     1      -3.783 -13.892   6.637  0.00  0.00    +0.050 A 
ATOM     36  C   UNL     1      -4.187 -13.741   3.142  0.00  0.00    +0.466 C 
ENDBRANCH  23  28
ENDBRANCH  16   9
BRANCH  15   8
ATOM      8  N   UNL     1      -4.192 -12.788  15.653  0.00  0.00    -0.182 NA
ATOM     37  H   UNL     1      -4.573 -13.679  15.312  0.00  0.00    +0.148 HD
BRANCH   8   1
ATOM      1  S   UNL     1      -4.614 -12.181  17.196  0.00  0.00    +0.060 S 
ATOM      4  O   UNL     1      -3.541 -11.343  17.694  0.00  0.00    -0.153 OA
ATOM      5  O   UNL     1      -5.156 -13.265  17.992  0.00  0.00    -0.153 OA
BRANCH   1  20
ATOM     20  C   UNL     1      -6.013 -11.084  16.969  0.00  0.00    +0.123 A 
ATOM     21  C   UNL     1      -6.662 -10.549  18.057  0.00  0.00    +0.078 A 
ATOM     22  C   UNL     1      -6.389 -10.821  15.671  0.00  0.00    +0.030 A 
ATOM     25  C   UNL     1      -7.747  -9.701  17.836  0.00  0.00    +0.021 A 
ATOM     27  C   UNL     1      -7.474  -9.973  15.451  0.00  0.00    +0.002 A 
ATOM     29  C   UNL     1      -8.153  -9.413  16.533  0.00  0.00    +0.001 A 
BRANCH  21  30
ATOM     12  N   UNL     1      -5.957 -11.047  20.500  0.00  0.00    -0.191 NA
ATOM     30  C   UNL     1      -6.272 -10.824  19.407  0.00  0.00    +0.101 C 
ENDBRANCH  21  30
ENDBRANCH   1  20
ENDBRANCH   8   1
ENDBRANCH  15   8
TORSDOF 6
ENDMDL
MODEL 8
REMARK VINA RESULT:      -7.1     28.148     31.760
REMARK  Name = 11912192
REMARK  6 active torsions:
REMARK  status: ('A' for Active; 'I' for Inactive)
REMARK    1  A    between atoms: S_1  and  N_8
REMARK    2  A    between atoms: S_1  and  C_20
REMARK    3  A    between atoms: N_8  and  C_15
REMARK    4  A    between atoms: N_9  and  C_16
REMARK    5  A    between atoms: C_21  and  C_30
REMARK    6  A    between atoms: C_23  and  C_28
REMARK                            x       y       z     vdW  Elec       q    Type
REMARK                         _______ _______ _______ _____ _____    ______ ____
ROOT
ATOM      2  O   UNL     1      16.022  12.087  20.835  0.00  0.00    -0.370 OA
ATOM      3  O   UNL     1      17.021  13.785  23.261  0.00  0.00    -0.370 OA
ATOM     13  C   UNL     1      16.686  12.397  23.100  0.00  0.00    +0.170 C 
ATOM     14  C   UNL     1      15.502  12.325  22.154  0.00  0.00    +0.171 C 
ATOM     15  C   UNL     1      17.790  11.676  22.364  0.00  0.00    +0.133 C 
ATOM     16  C   UNL     1      14.883  13.700  22.233  0.00  0.00    +0.130 C 
ATOM     17  C   UNL     1      17.447  11.933  20.910  0.00  0.00    +0.183 C 
ATOM     18  C   UNL     1      16.076  14.586  22.537  0.00  0.00    +0.185 C 
ENDROOT
BRANCH  16   9
ATOM      9  N   UNL     1      13.930  13.753  23.319  0.00  0.00    -0.306 N 
ATOM     10  N   UNL     1      12.916  11.737  22.675  0.00  0.00    -0.214 NA
ATOM     11  N   UNL     1      12.131  12.957  24.599  0.00  0.00    -0.223 NA
ATOM     19  C   UNL     1      12.964  12.787  23.538  0.00  0.00    +0.216 A 
ATOM     23  C   UNL     1      11.962  10.814  22.918  0.00  0.00    +0.076 A 
ATOM     24  C   UNL     1      11.202  11.997  24.783  0.00  0.00    +0.116 A 
ATOM     26  C   UNL     1      11.069  10.892  23.967  0.00  0.00    +0.048 A 
ATOM     38  H   UNL     1      13.990  14.503  23.999  0.00  0.00    +0.149 HD
BRANCH  23  28
ATOM      6  O   UNL     1      12.965   8.705  18.614  0.00  0.00    -0.453 OA
ATOM      7  O   UNL     1      11.904   6.640  19.258  0.00  0.00    -0.453 OA
ATOM     28  C   UNL     1      11.930   9.708  21.991  0.00  0.00    +0.004 A 
ATOM     31  C   UNL     1      12.513   9.841  20.727  0.00  0.00    +0.059 A 
ATOM     32  C   UNL     1      11.310   8.501  22.364  0.00  0.00    +0.014 A 
ATOM     33  C   UNL     1      12.457   8.757  19.874  0.00  0.00    +0.167 A 
ATOM     34  C   UNL     1      11.850   7.578  20.243  0.00  0.00    +0.166 A 
ATOM     35  C   UNL     1      11.267   7.418  21.483  0.00  0.00    +0.050 A 
ATOM     36  C   UNL     1      12.613   7.361  18.229  0.00  0.00    +0.466 C 
ENDBRANCH  23  28
ENDBRANCH  16   9
BRANCH  15   8
ATOM      8  N   UNL     1      17.709  10.222  22.644  0.00  0.00    -0.182 NA
ATOM     37  H   UNL     1      16.821   9.841  22.989  0.00  0.00    +0.148 HD
BRANCH   8   1
ATOM      1  S   UNL     1      18.888   9.206  21.933  0.00  0.00    +0.060 S 
ATOM      4  O   UNL     1      19.554   8.441  22.969  0.00  0.00    -0.153 OA
ATOM      5  O   UNL     1      19.641   9.973  20.960  0.00  0.00    -0.153 OA
BRANCH   1  20
ATOM     20  C   UNL     1      18.015   8.000  20.934  0.00  0.00    +0.123 A 
ATOM     21  C   UNL     1      18.679   6.915  20.413  0.00  0.00    +0.078 A 
ATOM     22  C   UNL     1      16.673   8.225  20.726  0.00  0.00    +0.030 A 
ATOM     25  C   UNL     1      17.962   6.002  19.640  0.00  0.00    +0.021 A 
ATOM     27  C   UNL     1      15.956   7.312  19.953  0.00  0.00    +0.002 A 
ATOM     29  C   UNL     1      16.600   6.200  19.410  0.00  0.00    +0.001 A 
BRANCH  21  30
ATOM     12  N   UNL     1      21.205   6.493  20.803  0.00  0.00    -0.191 NA
ATOM     30  C   UNL     1      20.075   6.682  20.629  0.00  0.00    +0.101 C 
ENDBRANCH  21  30
ENDBRANCH   1  20
ENDBRANCH   8   1
ENDBRANCH  15   8
TORSDOF 6
ENDMDL
MODEL 9
REMARK VINA RESULT:      -7.0     23.292     24.959
REMARK  Name = 11912192
REMARK  6 active torsions:
REMARK  status: ('A' for Active; 'I' for Inactive)
REMARK    1  A    between atoms: S_1  and  N_8
REMARK    2  A    between atoms: S_1  and  C_20
REMARK    3  A    between atoms: N_8  and  C_15
REMARK    4  A    between atoms: N_9  and  C_16
REMARK    5  A    between atoms: C_21  and  C_30
REMARK    6  A    between atoms: C_23  and  C_28
REMARK                            x       y       z     vdW  Elec       q    Type
REMARK                         _______ _______ _______ _____ _____    ______ ____
ROOT
ATOM      2  O   UNL     1       4.659  10.332   3.584  0.00  0.00    -0.370 OA
ATOM      3  O   UNL     1       5.946  12.017   1.288  0.00  0.00    -0.370 OA
ATOM     13  C   UNL     1       5.009  10.928   1.306  0.00  0.00    +0.170 C 
ATOM     14  C   UNL     1       5.430   9.989   2.421  0.00  0.00    +0.171 C 
ATOM     15  C   UNL     1       3.646  11.418   1.733  0.00  0.00    +0.133 C 
ATOM     16  C   UNL     1       6.888  10.312   2.645  0.00  0.00    +0.130 C 
ATOM     17  C   UNL     1       3.732  11.375   3.246  0.00  0.00    +0.183 C 
ATOM     18  C   UNL     1       6.965  11.780   2.270  0.00  0.00    +0.185 C 
ENDROOT
BRANCH  16   9
ATOM      9  N   UNL     1       7.713   9.524   1.755  0.00  0.00    -0.306 N 
ATOM     10  N   UNL     1       8.464   8.142   3.496  0.00  0.00    -0.214 NA
ATOM     11  N   UNL     1       9.214   7.798   1.232  0.00  0.00    -0.223 NA
ATOM     19  C   UNL     1       8.487   8.456   2.174  0.00  0.00    +0.216 A 
ATOM     23  C   UNL     1       9.230   7.095   3.869  0.00  0.00    +0.076 A 
ATOM     24  C   UNL     1       9.957   6.763   1.674  0.00  0.00    +0.116 A 
ATOM     26  C   UNL     1      10.005   6.362   2.994  0.00  0.00    +0.048 A 
ATOM     38  H   UNL     1       7.696   9.716   0.760  0.00  0.00    +0.149 HD
BRANCH  23  28
ATOM      6  O   UNL     1       9.874   4.085   7.678  0.00  0.00    -0.453 OA
ATOM      7  O   UNL     1       9.124   5.746   9.253  0.00  0.00    -0.453 OA
ATOM     28  C   UNL     1       9.191   6.778   5.276  0.00  0.00    +0.004 A 
ATOM     31  C   UNL     1       9.588   5.511   5.717  0.00  0.00    +0.059 A 
ATOM     32  C   UNL     1       8.753   7.747   6.200  0.00  0.00    +0.014 A 
ATOM     33  C   UNL     1       9.532   5.254   7.072  0.00  0.00    +0.167 A 
ATOM     34  C   UNL     1       9.103   6.203   7.971  0.00  0.00    +0.166 A 
ATOM     35  C   UNL     1       8.706   7.461   7.566  0.00  0.00    +0.050 A 
ATOM     36  C   UNL     1       9.614   4.404   9.059  0.00  0.00    +0.466 C 
ENDBRANCH  23  28
ENDBRANCH  16   9
BRANCH  15   8
ATOM      8  N   UNL     1       2.606  10.469   1.267  0.00  0.00    -0.182 NA
ATOM     37  H   UNL     1       2.888   9.506   1.049  0.00  0.00    +0.148 HD
BRANCH   8   1
ATOM      1  S   UNL     1       0.970  10.858   1.584  0.00  0.00    +0.060 S 
ATOM      4  O   UNL     1       0.822  12.299   1.650  0.00  0.00    -0.153 OA
ATOM      5  O   UNL     1       0.483  10.001   2.646  0.00  0.00    -0.153 OA
BRANCH   1  20
ATOM     20  C   UNL     1       0.018  10.343   0.156  0.00  0.00    +0.123 A 
ATOM     21  C   UNL     1       0.382  10.747  -1.107  0.00  0.00    +0.078 A 
ATOM     22  C   UNL     1      -1.074   9.540   0.397  0.00  0.00    +0.030 A 
ATOM     25  C   UNL     1      -0.387  10.325  -2.190  0.00  0.00    +0.021 A 
ATOM     27  C   UNL     1      -1.843   9.118  -0.687  0.00  0.00    +0.002 A 
ATOM     29  C   UNL     1      -1.500   9.510  -1.981  0.00  0.00    +0.001 A 
BRANCH  21  30
ATOM     12  N   UNL     1       2.435  12.261  -1.561  0.00  0.00    -0.191 NA
ATOM     30  C   UNL     1       1.517  11.584  -1.358  0.00  0.00    +0.101 C 
ENDBRANCH  21  30
ENDBRANCH   1  20
ENDBRANCH   8   1
ENDBRANCH  15   8
TORSDOF 6
ENDMDL
MODEL 10
REMARK VINA RESULT:      -6.8      3.926     10.630
REMARK  Name = 11912192
REMARK  6 active torsions:
REMARK  status: ('A' for Active; 'I' for Inactive)
REMARK    1  A    between atoms: S_1  and  N_8
REMARK    2  A    between atoms: S_1  and  C_20
REMARK    3  A    between atoms: N_8  and  C_15
REMARK    4  A    between atoms: N_9  and  C_16
REMARK    5  A    between atoms: C_21  and  C_30
REMARK    6  A    between atoms: C_23  and  C_28
REMARK                            x       y       z     vdW  Elec       q    Type
REMARK                         _______ _______ _______ _____ _____    ______ ____
ROOT
ATOM      2  O   UNL     1      -7.041 -11.855  14.674  0.00  0.00    -0.370 OA
ATOM      3  O   UNL     1      -4.767 -13.647  15.851  0.00  0.00    -0.370 OA
ATOM     13  C   UNL     1      -5.285 -12.353  16.202  0.00  0.00    +0.170 C 
ATOM     14  C   UNL     1      -5.639 -11.642  14.909  0.00  0.00    +0.171 C 
ATOM     15  C   UNL     1      -6.607 -12.497  16.917  0.00  0.00    +0.133 C 
ATOM     16  C   UNL     1      -4.818 -12.354  13.860  0.00  0.00    +0.130 C 
ATOM     17  C   UNL     1      -7.599 -12.589  15.774  0.00  0.00    +0.183 C 
ATOM     18  C   UNL     1      -4.706 -13.760  14.422  0.00  0.00    +0.185 C 
ENDROOT
BRANCH  16   9
ATOM      9  N   UNL     1      -3.508 -11.749  13.760  0.00  0.00    -0.306 N 
ATOM     10  N   UNL     1      -4.020 -10.716  11.717  0.00  0.00    -0.214 NA
ATOM     11  N   UNL     1      -1.855 -10.435  12.739  0.00  0.00    -0.223 NA
ATOM     19  C   UNL     1      -3.116 -10.942  12.707  0.00  0.00    +0.216 A 
ATOM     23  C   UNL     1      -3.603  -9.925  10.705  0.00  0.00    +0.076 A 
ATOM     24  C   UNL     1      -1.505  -9.653  11.696  0.00  0.00    +0.116 A 
ATOM     26  C   UNL     1      -2.346  -9.360  10.642  0.00  0.00    +0.048 A 
ATOM     38  H   UNL     1      -2.846 -11.868  14.518  0.00  0.00    +0.149 HD
BRANCH  23  28
ATOM      6  O   UNL     1      -7.502  -7.647   8.811  0.00  0.00    -0.453 OA
ATOM      7  O   UNL     1      -7.412  -8.950   6.787  0.00  0.00    -0.453 OA
ATOM     28  C   UNL     1      -4.577  -9.697   9.666  0.00  0.00    +0.004 A 
ATOM     31  C   UNL     1      -5.566  -8.722   9.839  0.00  0.00    +0.059 A 
ATOM     32  C   UNL     1      -4.528 -10.456   8.482  0.00  0.00    +0.014 A 
ATOM     33  C   UNL     1      -6.477  -8.541   8.817  0.00  0.00    +0.167 A 
ATOM     34  C   UNL     1      -6.425  -9.286   7.661  0.00  0.00    +0.166 A 
ATOM     35  C   UNL     1      -5.461 -10.253   7.462  0.00  0.00    +0.050 A 
ATOM     36  C   UNL     1      -8.090  -7.910   7.521  0.00  0.00    +0.466 C 
ENDBRANCH  23  28
ENDBRANCH  16   9
BRANCH  15   8
ATOM      8  N   UNL     1      -6.878 -11.275  17.713  0.00  0.00    -0.182 NA
ATOM     37  H   UNL     1      -6.962 -10.380  17.218  0.00  0.00    +0.148 HD
BRANCH   8   1
ATOM      1  S   UNL     1      -7.514 -11.475  19.289  0.00  0.00    +0.060 S 
ATOM      4  O   UNL     1      -6.850 -10.560  20.197  0.00  0.00    -0.153 OA
ATOM      5  O   UNL     1      -7.607 -12.892  19.579  0.00  0.00    -0.153 OA
BRANCH   1  20
ATOM     20  C   UNL     1      -9.225 -10.942  19.240  0.00  0.00    +0.123 A 
ATOM     21  C   UNL     1      -9.625  -9.963  18.362  0.00  0.00    +0.078 A 
ATOM     22  C   UNL     1     -10.091 -11.558  20.115  0.00  0.00    +0.030 A 
ATOM     25  C   UNL     1     -10.965  -9.576  18.358  0.00  0.00    +0.021 A 
ATOM     27  C   UNL     1     -11.431 -11.172  20.111  0.00  0.00    +0.002 A 
ATOM     29  C   UNL     1     -11.868 -10.181  19.232  0.00  0.00    +0.001 A 
BRANCH  21  30
ATOM     12  N   UNL     1      -7.996  -8.800  16.716  0.00  0.00    -0.191 NA
ATOM     30  C   UNL     1      -8.725  -9.320  17.452  0.00  0.00    +0.101 C 
ENDBRANCH  21  30
ENDBRANCH   1  20
ENDBRANCH   8   1
ENDBRANCH  15   8
TORSDOF 6
ENDMDL
