MODEL 1
REMARK VINA RESULT:      -7.2      0.000      0.000
REMARK  Name = 28962277
REMARK  11 active torsions:
REMARK  status: ('A' for Active; 'I' for Inactive)
REMARK    1  A    between atoms: O_4  and  C_13
REMARK    2  A    between atoms: O_5  and  C_16
REMARK    3  A    between atoms: N_7  and  C_11
REMARK    4  A    between atoms: N_7  and  C_17
REMARK    5  A    between atoms: N_7  and  C_18
REMARK    6  A    between atoms: N_8  and  C_15
REMARK    7  A    between atoms: N_9  and  C_24
REMARK    8  A    between atoms: C_12  and  C_15
REMARK    9  A    between atoms: C_14  and  C_16
REMARK   10  A    between atoms: C_17  and  C_19
REMARK   11  A    between atoms: C_19  and  C_20
REMARK                            x       y       z     vdW  Elec       q    Type
REMARK                         _______ _______ _______ _____ _____    ______ ____
ROOT
ATOM      3  O   UNL     1     -17.380   4.898  23.465  0.00  0.00    -0.365 OA
ATOM     11  C   UNL     1     -17.463   2.985  24.880  0.00  0.00    +0.118 C 
ATOM     12  C   UNL     1     -16.762   4.329  24.642  0.00  0.00    +0.155 C 
ATOM     13  C   UNL     1     -17.947   2.600  23.490  0.00  0.00    +0.165 C 
ATOM     14  C   UNL     1     -18.346   3.966  22.943  0.00  0.00    +0.174 C 
ENDROOT
BRANCH  13   4
ATOM      4  O   UNL     1     -16.898   2.041  22.708  0.00  0.00    -0.388 OA
ATOM     32  H   UNL     1     -16.203   1.743  23.319  0.00  0.00    +0.210 HD
ENDBRANCH  13   4
BRANCH  11   7
ATOM      7  N   UNL     1     -16.686   1.969  25.567  0.00  0.00    -0.297 NA
ATOM     18  C   UNL     1     -17.316   0.652  25.436  0.00  0.00    +0.105 C 
BRANCH   7  17
ATOM     17  C   UNL     1     -16.522   2.308  26.984  0.00  0.00    +0.090 C 
BRANCH  17  19
ATOM     19  C   UNL     1     -16.756   1.084  27.871  0.00  0.00    +0.071 C 
BRANCH  19  20
ATOM     10  N   UNL     1     -15.933   0.030  29.906  0.00  0.00    -0.260 NA
ATOM     20  C   UNL     1     -15.880   1.113  29.098  0.00  0.00    +0.042 A 
ATOM     22  C   UNL     1     -15.082   2.220  29.335  0.00  0.00    +0.023 A 
ATOM     23  C   UNL     1     -14.284   2.214  30.474  0.00  0.00    +0.003 A 
ATOM     25  C   UNL     1     -15.144   0.061  31.003  0.00  0.00    +0.111 A 
ATOM     26  C   UNL     1     -14.310   1.118  31.329  0.00  0.00    +0.020 A 
ENDBRANCH  19  20
ENDBRANCH  17  19
ENDBRANCH   7  17
ENDBRANCH  11   7
BRANCH  12  15
ATOM     15  C   UNL     1     -15.261   4.281  24.386  0.00  0.00    +0.139 C 
BRANCH  15   8
ATOM      6  O   UNL     1     -14.288   4.434  21.696  0.00  0.00    -0.253 OA
ATOM      8  N   UNL     1     -14.817   5.459  23.702  0.00  0.00    -0.297 N 
ATOM      9  N   UNL     1     -13.989   6.745  21.976  0.00  0.00    -0.267 N 
ATOM     21  C   UNL     1     -14.351   5.456  22.375  0.00  0.00    +0.304 C 
ATOM     33  H   UNL     1     -14.829   6.340  24.205  0.00  0.00    +0.150 HD
ATOM     35  H   UNL     1     -14.103   7.487  22.663  0.00  0.00    +0.156 HD
BRANCH   9  24
ATOM      1  F   UNL     1     -11.285   6.492  21.351  0.00  0.00    -0.203 F 
ATOM      2  F   UNL     1     -11.994   8.347  17.058  0.00  0.00    -0.205 F 
ATOM     24  C   UNL     1     -13.478   7.153  20.722  0.00  0.00    +0.070 A 
ATOM     27  C   UNL     1     -12.119   7.013  20.441  0.00  0.00    +0.147 A 
ATOM     28  C   UNL     1     -14.335   7.698  19.766  0.00  0.00    +0.029 A 
ATOM     29  C   UNL     1     -11.617   7.416  19.203  0.00  0.00    +0.078 A 
ATOM     30  C   UNL     1     -13.834   8.100  18.528  0.00  0.00    +0.040 A 
ATOM     31  C   UNL     1     -12.475   7.960  18.247  0.00  0.00    +0.126 A 
ENDBRANCH   9  24
ENDBRANCH  15   8
ENDBRANCH  12  15
BRANCH  14  16
ATOM     16  C   UNL     1     -18.382   4.079  21.430  0.00  0.00    +0.190 C 
BRANCH  16   5
ATOM      5  O   UNL     1     -17.066   4.316  20.956  0.00  0.00    -0.392 OA
ATOM     34  H   UNL     1     -17.146   4.639  20.042  0.00  0.00    +0.210 HD
ENDBRANCH  16   5
ENDBRANCH  14  16
TORSDOF 10
ENDMDL
MODEL 2
REMARK VINA RESULT:      -6.8     17.321     18.715
REMARK  Name = 28962277
REMARK  11 active torsions:
REMARK  status: ('A' for Active; 'I' for Inactive)
REMARK    1  A    between atoms: O_4  and  C_13
REMARK    2  A    between atoms: O_5  and  C_16
REMARK    3  A    between atoms: N_7  and  C_11
REMARK    4  A    between atoms: N_7  and  C_17
REMARK    5  A    between atoms: N_7  and  C_18
REMARK    6  A    between atoms: N_8  and  C_15
REMARK    7  A    between atoms: N_9  and  C_24
REMARK    8  A    between atoms: C_12  and  C_15
REMARK    9  A    between atoms: C_14  and  C_16
REMARK   10  A    between atoms: C_17  and  C_19
REMARK   11  A    between atoms: C_19  and  C_20
REMARK                            x       y       z     vdW  Elec       q    Type
REMARK                         _______ _______ _______ _____ _____    ______ ____
ROOT
ATOM      3  O   UNL     1      -8.010 -11.012  19.872  0.00  0.00    -0.365 OA
ATOM     11  C   UNL     1      -7.440 -12.752  18.350  0.00  0.00    +0.118 C 
ATOM     12  C   UNL     1      -6.989 -11.403  18.926  0.00  0.00    +0.155 C 
ATOM     13  C   UNL     1      -8.952 -12.705  18.513  0.00  0.00    +0.165 C 
ATOM     14  C   UNL     1      -9.069 -11.989  19.853  0.00  0.00    +0.174 C 
ENDROOT
BRANCH  13   4
ATOM      4  O   UNL     1      -9.565 -11.937  17.486  0.00  0.00    -0.388 OA
ATOM     32  H   UNL     1      -9.016 -11.148  17.341  0.00  0.00    +0.210 HD
ENDBRANCH  13   4
BRANCH  11   7
ATOM      7  N   UNL     1      -6.972 -13.066  17.012  0.00  0.00    -0.297 NA
ATOM     18  C   UNL     1      -7.592 -14.300  16.518  0.00  0.00    +0.105 C 
BRANCH   7  17
ATOM     17  C   UNL     1      -5.512 -13.195  16.988  0.00  0.00    +0.090 C 
BRANCH  17  19
ATOM     19  C   UNL     1      -4.979 -13.121  15.556  0.00  0.00    +0.071 C 
BRANCH  19  20
ATOM     10  N   UNL     1      -2.804 -12.702  14.544  0.00  0.00    -0.260 NA
ATOM     20  C   UNL     1      -3.703 -12.321  15.480  0.00  0.00    +0.042 A 
ATOM     22  C   UNL     1      -3.515 -11.260  16.351  0.00  0.00    +0.023 A 
ATOM     23  C   UNL     1      -2.327 -10.542  16.254  0.00  0.00    +0.003 A 
ATOM     25  C   UNL     1      -1.663 -11.981  14.480  0.00  0.00    +0.111 A 
ATOM     26  C   UNL     1      -1.379 -10.903  15.303  0.00  0.00    +0.020 A 
ENDBRANCH  19  20
ENDBRANCH  17  19
ENDBRANCH   7  17
ENDBRANCH  11   7
BRANCH  12  15
ATOM     15  C   UNL     1      -6.828 -10.256  17.935  0.00  0.00    +0.139 C 
BRANCH  15   8
ATOM      6  O   UNL     1      -8.731  -9.516  15.926  0.00  0.00    -0.253 OA
ATOM      8  N   UNL     1      -7.890  -9.305  18.072  0.00  0.00    -0.297 N 
ATOM      9  N   UNL     1      -9.714  -8.034  17.458  0.00  0.00    -0.267 N 
ATOM     21  C   UNL     1      -8.789  -8.993  17.036  0.00  0.00    +0.304 C 
ATOM     33  H   UNL     1      -7.992  -8.822  18.958  0.00  0.00    +0.150 HD
ATOM     35  H   UNL     1      -9.625  -7.700  18.414  0.00  0.00    +0.156 HD
BRANCH   9  24
ATOM      1  F   UNL     1     -12.313  -9.026  17.623  0.00  0.00    -0.203 F 
ATOM      2  F   UNL     1     -13.857  -5.791  14.537  0.00  0.00    -0.205 F 
ATOM     24  C   UNL     1     -10.772  -7.463  16.713  0.00  0.00    +0.070 A 
ATOM     27  C   UNL     1     -12.063  -7.983  16.819  0.00  0.00    +0.147 A 
ATOM     28  C   UNL     1     -10.525  -6.378  15.872  0.00  0.00    +0.029 A 
ATOM     29  C   UNL     1     -13.105  -7.418  16.084  0.00  0.00    +0.078 A 
ATOM     30  C   UNL     1     -11.567  -5.813  15.138  0.00  0.00    +0.040 A 
ATOM     31  C   UNL     1     -12.857  -6.333  15.243  0.00  0.00    +0.126 A 
ENDBRANCH   9  24
ENDBRANCH  15   8
ENDBRANCH  12  15
BRANCH  14  16
ATOM     16  C   UNL     1     -10.394 -11.295  20.110  0.00  0.00    +0.190 C 
BRANCH  16   5
ATOM      5  O   UNL     1     -10.225  -9.899  19.922  0.00  0.00    -0.392 OA
ATOM     34  H   UNL     1     -10.681  -9.665  19.097  0.00  0.00    +0.210 HD
ENDBRANCH  16   5
ENDBRANCH  14  16
TORSDOF 10
ENDMDL
MODEL 3
REMARK VINA RESULT:      -6.6     18.385     20.489
REMARK  Name = 28962277
REMARK  11 active torsions:
REMARK  status: ('A' for Active; 'I' for Inactive)
REMARK    1  A    between atoms: O_4  and  C_13
REMARK    2  A    between atoms: O_5  and  C_16
REMARK    3  A    between atoms: N_7  and  C_11
REMARK    4  A    between atoms: N_7  and  C_17
REMARK    5  A    between atoms: N_7  and  C_18
REMARK    6  A    between atoms: N_8  and  C_15
REMARK    7  A    between atoms: N_9  and  C_24
REMARK    8  A    between atoms: C_12  and  C_15
REMARK    9  A    between atoms: C_14  and  C_16
REMARK   10  A    between atoms: C_17  and  C_19
REMARK   11  A    between atoms: C_19  and  C_20
REMARK                            x       y       z     vdW  Elec       q    Type
REMARK                         _______ _______ _______ _____ _____    ______ ____
ROOT
ATOM      3  O   UNL     1      -4.839 -10.297  18.242  0.00  0.00    -0.365 OA
ATOM     11  C   UNL     1      -4.384 -12.098  16.752  0.00  0.00    +0.118 C 
ATOM     12  C   UNL     1      -4.529 -10.574  16.857  0.00  0.00    +0.155 C 
ATOM     13  C   UNL     1      -5.246 -12.603  17.899  0.00  0.00    +0.165 C 
ATOM     14  C   UNL     1      -4.959 -11.543  18.955  0.00  0.00    +0.174 C 
ENDROOT
BRANCH  13   4
ATOM      4  O   UNL     1      -6.626 -12.600  17.556  0.00  0.00    -0.388 OA
ATOM     32  H   UNL     1      -6.691 -12.746  16.597  0.00  0.00    +0.210 HD
ENDBRANCH  13   4
BRANCH  11   7
ATOM      7  N   UNL     1      -4.676 -12.682  15.455  0.00  0.00    -0.297 NA
ATOM     18  C   UNL     1      -4.664 -14.146  15.527  0.00  0.00    +0.105 C 
BRANCH   7  17
ATOM     17  C   UNL     1      -3.715 -12.221  14.448  0.00  0.00    +0.090 C 
BRANCH  17  19
ATOM     19  C   UNL     1      -4.400 -11.995  13.099  0.00  0.00    +0.071 C 
BRANCH  19  20
ATOM     10  N   UNL     1      -4.333 -10.349  11.306  0.00  0.00    -0.260 NA
ATOM     20  C   UNL     1      -3.628 -11.025  12.241  0.00  0.00    +0.042 A 
ATOM     22  C   UNL     1      -2.266 -10.875  12.445  0.00  0.00    +0.023 A 
ATOM     23  C   UNL     1      -1.583  -9.971  11.638  0.00  0.00    +0.003 A 
ATOM     25  C   UNL     1      -3.635  -9.480  10.541  0.00  0.00    +0.111 A 
ATOM     26  C   UNL     1      -2.274  -9.257  10.665  0.00  0.00    +0.020 A 
ENDBRANCH  19  20
ENDBRANCH  17  19
ENDBRANCH   7  17
ENDBRANCH  11   7
BRANCH  12  15
ATOM     15  C   UNL     1      -5.622  -9.931  16.012  0.00  0.00    +0.139 C 
BRANCH  15   8
ATOM      6  O   UNL     1      -8.379 -10.708  16.028  0.00  0.00    -0.253 OA
ATOM      8  N   UNL     1      -6.659  -9.388  16.838  0.00  0.00    -0.297 N 
ATOM      9  N   UNL     1      -8.779  -9.115  17.705  0.00  0.00    -0.267 N 
ATOM     21  C   UNL     1      -7.996  -9.823  16.789  0.00  0.00    +0.304 C 
ATOM     33  H   UNL     1      -6.419  -8.643  17.483  0.00  0.00    +0.150 HD
ATOM     35  H   UNL     1      -8.305  -8.409  18.264  0.00  0.00    +0.156 HD
BRANCH   9  24
ATOM      1  F   UNL     1      -9.720 -10.503  19.931  0.00  0.00    -0.203 F 
ATOM      2  F   UNL     1     -14.207  -9.670  18.684  0.00  0.00    -0.205 F 
ATOM     24  C   UNL     1     -10.163  -9.258  17.957  0.00  0.00    +0.070 A 
ATOM     27  C   UNL     1     -10.602  -9.959  19.080  0.00  0.00    +0.147 A 
ATOM     28  C   UNL     1     -11.091  -8.697  17.079  0.00  0.00    +0.029 A 
ATOM     29  C   UNL     1     -11.968 -10.098  19.326  0.00  0.00    +0.078 A 
ATOM     30  C   UNL     1     -12.456  -8.836  17.325  0.00  0.00    +0.040 A 
ATOM     31  C   UNL     1     -12.895  -9.537  18.448  0.00  0.00    +0.126 A 
ENDBRANCH   9  24
ENDBRANCH  15   8
ENDBRANCH  12  15
BRANCH  14  16
ATOM     16  C   UNL     1      -6.011 -11.399  20.039  0.00  0.00    +0.190 C 
BRANCH  16   5
ATOM      5  O   UNL     1      -6.690 -10.166  19.858  0.00  0.00    -0.392 OA
ATOM     34  H   UNL     1      -6.040  -9.458  20.002  0.00  0.00    +0.210 HD
ENDBRANCH  16   5
ENDBRANCH  14  16
TORSDOF 10
ENDMDL
MODEL 4
REMARK VINA RESULT:      -6.5     29.791     32.600
REMARK  Name = 28962277
REMARK  11 active torsions:
REMARK  status: ('A' for Active; 'I' for Inactive)
REMARK    1  A    between atoms: O_4  and  C_13
REMARK    2  A    between atoms: O_5  and  C_16
REMARK    3  A    between atoms: N_7  and  C_11
REMARK    4  A    between atoms: N_7  and  C_17
REMARK    5  A    between atoms: N_7  and  C_18
REMARK    6  A    between atoms: N_8  and  C_15
REMARK    7  A    between atoms: N_9  and  C_24
REMARK    8  A    between atoms: C_12  and  C_15
REMARK    9  A    between atoms: C_14  and  C_16
REMARK   10  A    between atoms: C_17  and  C_19
REMARK   11  A    between atoms: C_19  and  C_20
REMARK                            x       y       z     vdW  Elec       q    Type
REMARK                         _______ _______ _______ _____ _____    ______ ____
ROOT
ATOM      3  O   UNL     1       8.947   6.229   7.023  0.00  0.00    -0.365 OA
ATOM     11  C   UNL     1      10.711   7.799   7.320  0.00  0.00    +0.118 C 
ATOM     12  C   UNL     1       9.338   7.576   6.673  0.00  0.00    +0.155 C 
ATOM     13  C   UNL     1      11.274   6.390   7.425  0.00  0.00    +0.165 C 
ATOM     14  C   UNL     1      10.011   5.608   7.769  0.00  0.00    +0.174 C 
ENDROOT
BRANCH  13   4
ATOM      4  O   UNL     1      11.808   5.947   6.185  0.00  0.00    -0.388 OA
ATOM     32  H   UNL     1      12.338   6.674   5.816  0.00  0.00    +0.210 HD
ENDBRANCH  13   4
BRANCH  11   7
ATOM      7  N   UNL     1      11.579   8.764   6.668  0.00  0.00    -0.297 NA
ATOM     18  C   UNL     1      12.972   8.581   7.086  0.00  0.00    +0.105 C 
BRANCH   7  17
ATOM     17  C   UNL     1      11.145  10.135   6.957  0.00  0.00    +0.090 C 
BRANCH  17  19
ATOM     19  C   UNL     1      11.945  10.730   8.116  0.00  0.00    +0.071 C 
BRANCH  19  20
ATOM     10  N   UNL     1      11.647  11.720  10.321  0.00  0.00    -0.260 NA
ATOM     20  C   UNL     1      11.047  11.145   9.254  0.00  0.00    +0.042 A 
ATOM     22  C   UNL     1       9.683  10.922   9.157  0.00  0.00    +0.023 A 
ATOM     23  C   UNL     1       8.882  11.318  10.223  0.00  0.00    +0.003 A 
ATOM     25  C   UNL     1      10.836  12.091  11.337  0.00  0.00    +0.111 A 
ATOM     26  C   UNL     1       9.462  11.914  11.337  0.00  0.00    +0.020 A 
ENDBRANCH  19  20
ENDBRANCH  17  19
ENDBRANCH   7  17
ENDBRANCH  11   7
BRANCH  12  15
ATOM     15  C   UNL     1       9.272   7.686   5.154  0.00  0.00    +0.139 C 
BRANCH  15   8
ATOM      6  O   UNL     1      10.810   7.269   2.773  0.00  0.00    -0.253 OA
ATOM      8  N   UNL     1       9.565   6.429   4.533  0.00  0.00    -0.297 N 
ATOM      9  N   UNL     1      10.449   4.960   2.990  0.00  0.00    -0.267 N 
ATOM     21  C   UNL     1      10.331   6.303   3.361  0.00  0.00    +0.304 C 
ATOM     33  H   UNL     1       9.190   5.586   4.956  0.00  0.00    +0.150 HD
ATOM     35  H   UNL     1       9.989   4.277   3.588  0.00  0.00    +0.156 HD
BRANCH   9  24
ATOM      1  F   UNL     1       9.408   5.137   0.412  0.00  0.00    -0.203 F 
ATOM      2  F   UNL     1      13.152   2.861  -1.370  0.00  0.00    -0.205 F 
ATOM     24  C   UNL     1      11.137   4.425   1.877  0.00  0.00    +0.070 A 
ATOM     27  C   UNL     1      10.588   4.531   0.598  0.00  0.00    +0.147 A 
ATOM     28  C   UNL     1      12.366   3.791   2.058  0.00  0.00    +0.029 A 
ATOM     29  C   UNL     1      11.269   4.002  -0.499  0.00  0.00    +0.078 A 
ATOM     30  C   UNL     1      13.047   3.263   0.961  0.00  0.00    +0.040 A 
ATOM     31  C   UNL     1      12.499   3.369  -0.317  0.00  0.00    +0.126 A 
ENDBRANCH   9  24
ENDBRANCH  15   8
ENDBRANCH  12  15
BRANCH  14  16
ATOM     16  C   UNL     1      10.052   4.126   7.445  0.00  0.00    +0.190 C 
BRANCH  16   5
ATOM      5  O   UNL     1       9.967   3.962   6.038  0.00  0.00    -0.392 OA
ATOM     34  H   UNL     1      10.366   3.101   5.826  0.00  0.00    +0.210 HD
ENDBRANCH  16   5
ENDBRANCH  14  16
TORSDOF 10
ENDMDL
MODEL 5
REMARK VINA RESULT:      -6.5     30.198     35.715
REMARK  Name = 28962277
REMARK  11 active torsions:
REMARK  status: ('A' for Active; 'I' for Inactive)
REMARK    1  A    between atoms: O_4  and  C_13
REMARK    2  A    between atoms: O_5  and  C_16
REMARK    3  A    between atoms: N_7  and  C_11
REMARK    4  A    between atoms: N_7  and  C_17
REMARK    5  A    between atoms: N_7  and  C_18
REMARK    6  A    between atoms: N_8  and  C_15
REMARK    7  A    between atoms: N_9  and  C_24
REMARK    8  A    between atoms: C_12  and  C_15
REMARK    9  A    between atoms: C_14  and  C_16
REMARK   10  A    between atoms: C_17  and  C_19
REMARK   11  A    between atoms: C_19  and  C_20
REMARK                            x       y       z     vdW  Elec       q    Type
REMARK                         _______ _______ _______ _____ _____    ______ ____
ROOT
ATOM      3  O   UNL     1      13.223   7.372   2.343  0.00  0.00    -0.365 OA
ATOM     11  C   UNL     1      13.808   5.884   0.578  0.00  0.00    +0.118 C 
ATOM     12  C   UNL     1      12.637   6.456   1.389  0.00  0.00    +0.155 C 
ATOM     13  C   UNL     1      14.982   6.008   1.537  0.00  0.00    +0.165 C 
ATOM     14  C   UNL     1      14.657   7.336   2.210  0.00  0.00    +0.174 C 
ENDROOT
BRANCH  13   4
ATOM      4  O   UNL     1      14.987   4.956   2.495  0.00  0.00    -0.388 OA
ATOM     32  H   UNL     1      14.531   5.280   3.289  0.00  0.00    +0.210 HD
ENDBRANCH  13   4
BRANCH  11   7
ATOM      7  N   UNL     1      13.609   4.562   0.011  0.00  0.00    -0.297 NA
ATOM     18  C   UNL     1      14.882   3.989  -0.436  0.00  0.00    +0.105 C 
BRANCH   7  17
ATOM     17  C   UNL     1      12.661   4.611  -1.107  0.00  0.00    +0.090 C 
BRANCH  17  19
ATOM     19  C   UNL     1      12.990   3.543  -2.151  0.00  0.00    +0.071 C 
BRANCH  19  20
ATOM     10  N   UNL     1      11.709   3.934  -4.185  0.00  0.00    -0.260 NA
ATOM     20  C   UNL     1      11.801   3.241  -3.028  0.00  0.00    +0.042 A 
ATOM     22  C   UNL     1      10.880   2.290  -2.617  0.00  0.00    +0.023 A 
ATOM     23  C   UNL     1       9.796   2.034  -3.449  0.00  0.00    +0.003 A 
ATOM     25  C   UNL     1      10.642   3.658  -4.967  0.00  0.00    +0.111 A 
ATOM     26  C   UNL     1       9.667   2.727  -4.648  0.00  0.00    +0.020 A 
ENDBRANCH  19  20
ENDBRANCH  17  19
ENDBRANCH   7  17
ENDBRANCH  11   7
BRANCH  12  15
ATOM     15  C   UNL     1      11.799   5.457   2.178  0.00  0.00    +0.139 C 
BRANCH  15   8
ATOM      6  O   UNL     1       9.806   4.859   4.147  0.00  0.00    -0.253 OA
ATOM      8  N   UNL     1      11.883   5.711   3.585  0.00  0.00    -0.297 N 
ATOM      9  N   UNL     1      11.221   5.751   5.794  0.00  0.00    -0.267 N 
ATOM     21  C   UNL     1      10.860   5.388   4.494  0.00  0.00    +0.304 C 
ATOM     33  H   UNL     1      12.720   6.159   3.943  0.00  0.00    +0.150 HD
ATOM     35  H   UNL     1      12.134   6.183   5.912  0.00  0.00    +0.156 HD
BRANCH   9  24
ATOM      1  F   UNL     1       9.992   7.919   7.041  0.00  0.00    -0.203 F 
ATOM      2  F   UNL     1       8.269   5.120  10.443  0.00  0.00    -0.205 F 
ATOM     24  C   UNL     1      10.468   5.592   6.980  0.00  0.00    +0.070 A 
ATOM     27  C   UNL     1       9.865   6.698   7.579  0.00  0.00    +0.147 A 
ATOM     28  C   UNL     1      10.328   4.327   7.551  0.00  0.00    +0.029 A 
ATOM     29  C   UNL     1       9.121   6.539   8.749  0.00  0.00    +0.078 A 
ATOM     30  C   UNL     1       9.585   4.167   8.720  0.00  0.00    +0.040 A 
ATOM     31  C   UNL     1       8.982   5.273   9.319  0.00  0.00    +0.126 A 
ENDBRANCH   9  24
ENDBRANCH  15   8
ENDBRANCH  12  15
BRANCH  14  16
ATOM     16  C   UNL     1      15.291   7.552   3.571  0.00  0.00    +0.190 C 
BRANCH  16   5
ATOM      5  O   UNL     1      14.508   6.889   4.552  0.00  0.00    -0.392 OA
ATOM     34  H   UNL     1      13.922   7.556   4.948  0.00  0.00    +0.210 HD
ENDBRANCH  16   5
ENDBRANCH  14  16
TORSDOF 10
ENDMDL
MODEL 6
REMARK VINA RESULT:      -6.2     30.634     34.205
REMARK  Name = 28962277
REMARK  11 active torsions:
REMARK  status: ('A' for Active; 'I' for Inactive)
REMARK    1  A    between atoms: O_4  and  C_13
REMARK    2  A    between atoms: O_5  and  C_16
REMARK    3  A    between atoms: N_7  and  C_11
REMARK    4  A    between atoms: N_7  and  C_17
REMARK    5  A    between atoms: N_7  and  C_18
REMARK    6  A    between atoms: N_8  and  C_15
REMARK    7  A    between atoms: N_9  and  C_24
REMARK    8  A    between atoms: C_12  and  C_15
REMARK    9  A    between atoms: C_14  and  C_16
REMARK   10  A    between atoms: C_17  and  C_19
REMARK   11  A    between atoms: C_19  and  C_20
REMARK                            x       y       z     vdW  Elec       q    Type
REMARK                         _______ _______ _______ _____ _____    ______ ____
ROOT
ATOM      3  O   UNL     1      14.313   6.981   6.481  0.00  0.00    -0.365 OA
ATOM     11  C   UNL     1      13.167   9.034   6.855  0.00  0.00    +0.118 C 
ATOM     12  C   UNL     1      13.022   7.507   6.865  0.00  0.00    +0.155 C 
ATOM     13  C   UNL     1      14.293   9.265   5.858  0.00  0.00    +0.165 C 
ATOM     14  C   UNL     1      15.195   8.077   6.174  0.00  0.00    +0.174 C 
ENDROOT
BRANCH  13   4
ATOM      4  O   UNL     1      13.827   9.189   4.517  0.00  0.00    -0.388 OA
ATOM     32  H   UNL     1      14.408   8.575   4.037  0.00  0.00    +0.210 HD
ENDBRANCH  13   4
BRANCH  11   7
ATOM      7  N   UNL     1      11.954   9.792   6.604  0.00  0.00    -0.297 NA
ATOM     18  C   UNL     1      12.268  11.182   6.258  0.00  0.00    +0.105 C 
BRANCH   7  17
ATOM     17  C   UNL     1      11.065   9.754   7.768  0.00  0.00    +0.090 C 
BRANCH  17  19
ATOM     19  C   UNL     1       9.612  10.000   7.357  0.00  0.00    +0.071 C 
BRANCH  19  20
ATOM     10  N   UNL     1       8.829   7.695   7.365  0.00  0.00    -0.260 NA
ATOM     20  C   UNL     1       9.033   8.812   6.632  0.00  0.00    +0.042 A 
ATOM     22  C   UNL     1       8.743   8.918   5.281  0.00  0.00    +0.023 A 
ATOM     23  C   UNL     1       8.208   7.804   4.642  0.00  0.00    +0.003 A 
ATOM     25  C   UNL     1       8.308   6.634   6.710  0.00  0.00    +0.111 A 
ATOM     26  C   UNL     1       7.984   6.637   5.363  0.00  0.00    +0.020 A 
ENDBRANCH  19  20
ENDBRANCH  17  19
ENDBRANCH   7  17
ENDBRANCH  11   7
BRANCH  12  15
ATOM     15  C   UNL     1      11.990   6.911   5.915  0.00  0.00    +0.139 C 
BRANCH  15   8
ATOM      6  O   UNL     1      10.795   5.363   3.822  0.00  0.00    -0.253 OA
ATOM      8  N   UNL     1      12.584   6.570   4.657  0.00  0.00    -0.297 N 
ATOM      9  N   UNL     1      12.755   5.631   2.557  0.00  0.00    -0.267 N 
ATOM     21  C   UNL     1      11.933   5.803   3.675  0.00  0.00    +0.304 C 
ATOM     33  H   UNL     1      13.529   6.888   4.471  0.00  0.00    +0.150 HD
ATOM     35  H   UNL     1      13.675   6.062   2.595  0.00  0.00    +0.156 HD
BRANCH   9  24
ATOM      1  F   UNL     1      14.048   3.246   1.924  0.00  0.00    -0.203 F 
ATOM      2  F   UNL     1      11.608   2.870  -2.111  0.00  0.00    -0.205 F 
ATOM     24  C   UNL     1      12.464   4.926   1.367  0.00  0.00    +0.070 A 
ATOM     27  C   UNL     1      13.129   3.734   1.080  0.00  0.00    +0.147 A 
ATOM     28  C   UNL     1      11.510   5.423   0.479  0.00  0.00    +0.029 A 
ATOM     29  C   UNL     1      12.840   3.039  -0.095  0.00  0.00    +0.078 A 
ATOM     30  C   UNL     1      11.220   4.729  -0.695  0.00  0.00    +0.040 A 
ATOM     31  C   UNL     1      11.886   3.537  -0.982  0.00  0.00    +0.126 A 
ENDBRANCH   9  24
ENDBRANCH  15   8
ENDBRANCH  12  15
BRANCH  14  16
ATOM     16  C   UNL     1      16.141   7.662   5.062  0.00  0.00    +0.190 C 
BRANCH  16   5
ATOM      5  O   UNL     1      15.520   6.651   4.285  0.00  0.00    -0.392 OA
ATOM     34  H   UNL     1      15.497   5.845   4.829  0.00  0.00    +0.210 HD
ENDBRANCH  16   5
ENDBRANCH  14  16
TORSDOF 10
ENDMDL
MODEL 7
REMARK VINA RESULT:      -6.1     29.989     33.539
REMARK  Name = 28962277
REMARK  11 active torsions:
REMARK  status: ('A' for Active; 'I' for Inactive)
REMARK    1  A    between atoms: O_4  and  C_13
REMARK    2  A    between atoms: O_5  and  C_16
REMARK    3  A    between atoms: N_7  and  C_11
REMARK    4  A    between atoms: N_7  and  C_17
REMARK    5  A    between atoms: N_7  and  C_18
REMARK    6  A    between atoms: N_8  and  C_15
REMARK    7  A    between atoms: N_9  and  C_24
REMARK    8  A    between atoms: C_12  and  C_15
REMARK    9  A    between atoms: C_14  and  C_16
REMARK   10  A    between atoms: C_17  and  C_19
REMARK   11  A    between atoms: C_19  and  C_20
REMARK                            x       y       z     vdW  Elec       q    Type
REMARK                         _______ _______ _______ _____ _____    ______ ____
ROOT
ATOM      3  O   UNL     1       9.097   5.354   6.813  0.00  0.00    -0.365 OA
ATOM     11  C   UNL     1      10.596   7.144   6.351  0.00  0.00    +0.118 C 
ATOM     12  C   UNL     1       9.766   6.019   5.718  0.00  0.00    +0.155 C 
ATOM     13  C   UNL     1      10.849   6.632   7.761  0.00  0.00    +0.165 C 
ATOM     14  C   UNL     1       9.518   5.950   8.055  0.00  0.00    +0.174 C 
ENDROOT
BRANCH  13   4
ATOM      4  O   UNL     1      11.908   5.684   7.790  0.00  0.00    -0.388 OA
ATOM     32  H   UNL     1      11.855   5.210   8.637  0.00  0.00    +0.210 HD
ENDBRANCH  13   4
BRANCH  11   7
ATOM      7  N   UNL     1      11.782   7.555   5.620  0.00  0.00    -0.297 NA
ATOM     18  C   UNL     1      12.798   8.089   6.532  0.00  0.00    +0.105 C 
BRANCH   7  17
ATOM     17  C   UNL     1      11.447   8.555   4.602  0.00  0.00    +0.090 C 
BRANCH  17  19
ATOM     19  C   UNL     1      10.501   9.616   5.166  0.00  0.00    +0.071 C 
BRANCH  19  20
ATOM     10  N   UNL     1       8.181  10.338   5.013  0.00  0.00    -0.260 NA
ATOM     20  C   UNL     1       9.173   9.610   4.452  0.00  0.00    +0.042 A 
ATOM     22  C   UNL     1       9.035   8.879   3.284  0.00  0.00    +0.023 A 
ATOM     23  C   UNL     1       7.797   8.897   2.649  0.00  0.00    +0.003 A 
ATOM     25  C   UNL     1       6.993  10.330   4.367  0.00  0.00    +0.111 A 
ATOM     26  C   UNL     1       6.752   9.633   3.195  0.00  0.00    +0.020 A 
ENDBRANCH  19  20
ENDBRANCH  17  19
ENDBRANCH   7  17
ENDBRANCH  11   7
BRANCH  12  15
ATOM     15  C   UNL     1      10.535   4.955   4.944  0.00  0.00    +0.139 C 
BRANCH  15   8
ATOM      6  O   UNL     1      11.294   3.294   2.737  0.00  0.00    -0.253 OA
ATOM      8  N   UNL     1      10.795   5.381   3.602  0.00  0.00    -0.297 N 
ATOM      9  N   UNL     1      11.352   5.202   1.371  0.00  0.00    -0.267 N 
ATOM     21  C   UNL     1      11.164   4.504   2.567  0.00  0.00    +0.304 C 
ATOM     33  H   UNL     1      10.720   6.371   3.390  0.00  0.00    +0.150 HD
ATOM     35  H   UNL     1      11.204   6.208   1.399  0.00  0.00    +0.156 HD
BRANCH   9  24
ATOM      1  F   UNL     1       9.516   4.968  -0.712  0.00  0.00    -0.203 F 
ATOM      2  F   UNL     1      12.824   3.154  -3.565  0.00  0.00    -0.205 F 
ATOM     24  C   UNL     1      11.725   4.679   0.111  0.00  0.00    +0.070 A 
ATOM     27  C   UNL     1      10.782   4.576  -0.911  0.00  0.00    +0.147 A 
ATOM     28  C   UNL     1      13.040   4.267  -0.109  0.00  0.00    +0.029 A 
ATOM     29  C   UNL     1      11.152   4.061  -2.153  0.00  0.00    +0.078 A 
ATOM     30  C   UNL     1      13.411   3.752  -1.350  0.00  0.00    +0.040 A 
ATOM     31  C   UNL     1      12.467   3.649  -2.373  0.00  0.00    +0.126 A 
ENDBRANCH   9  24
ENDBRANCH  15   8
ENDBRANCH  12  15
BRANCH  14  16
ATOM     16  C   UNL     1       9.554   4.884   9.135  0.00  0.00    +0.190 C 
BRANCH  16   5
ATOM      5  O   UNL     1      10.226   3.741   8.628  0.00  0.00    -0.392 OA
ATOM     34  H   UNL     1      10.818   3.423   9.331  0.00  0.00    +0.210 HD
ENDBRANCH  16   5
ENDBRANCH  14  16
TORSDOF 10
ENDMDL
MODEL 8
REMARK VINA RESULT:      -6.1     30.200     34.544
REMARK  Name = 28962277
REMARK  11 active torsions:
REMARK  status: ('A' for Active; 'I' for Inactive)
REMARK    1  A    between atoms: O_4  and  C_13
REMARK    2  A    between atoms: O_5  and  C_16
REMARK    3  A    between atoms: N_7  and  C_11
REMARK    4  A    between atoms: N_7  and  C_17
REMARK    5  A    between atoms: N_7  and  C_18
REMARK    6  A    between atoms: N_8  and  C_15
REMARK    7  A    between atoms: N_9  and  C_24
REMARK    8  A    between atoms: C_12  and  C_15
REMARK    9  A    between atoms: C_14  and  C_16
REMARK   10  A    between atoms: C_17  and  C_19
REMARK   11  A    between atoms: C_19  and  C_20
REMARK                            x       y       z     vdW  Elec       q    Type
REMARK                         _______ _______ _______ _____ _____    ______ ____
ROOT
ATOM      3  O   UNL     1       9.056   5.490   6.884  0.00  0.00    -0.365 OA
ATOM     11  C   UNL     1      10.709   7.138   6.414  0.00  0.00    +0.118 C 
ATOM     12  C   UNL     1       9.778   6.093   5.786  0.00  0.00    +0.155 C 
ATOM     13  C   UNL     1      10.922   6.604   7.823  0.00  0.00    +0.165 C 
ATOM     14  C   UNL     1       9.536   6.045   8.124  0.00  0.00    +0.174 C 
ENDROOT
BRANCH  13   4
ATOM      4  O   UNL     1      11.891   5.564   7.847  0.00  0.00    -0.388 OA
ATOM     32  H   UNL     1      11.595   4.901   8.491  0.00  0.00    +0.210 HD
ENDBRANCH  13   4
BRANCH  11   7
ATOM      7  N   UNL     1      11.924   7.440   5.678  0.00  0.00    -0.297 NA
ATOM     18  C   UNL     1      12.958   7.972   6.571  0.00  0.00    +0.105 C 
BRANCH   7  17
ATOM     17  C   UNL     1      11.655   8.395   4.598  0.00  0.00    +0.090 C 
BRANCH  17  19
ATOM     19  C   UNL     1      12.772   8.370   3.554  0.00  0.00    +0.071 C 
BRANCH  19  20
ATOM     10  N   UNL     1      10.871   8.322   2.033  0.00  0.00    -0.260 NA
ATOM     20  C   UNL     1      12.218   8.336   2.151  0.00  0.00    +0.042 A 
ATOM     22  C   UNL     1      13.092   8.320   1.077  0.00  0.00    +0.023 A 
ATOM     23  C   UNL     1      12.549   8.290  -0.203  0.00  0.00    +0.003 A 
ATOM     25  C   UNL     1      10.380   8.293   0.773  0.00  0.00    +0.111 A 
ATOM     26  C   UNL     1      11.168   8.276  -0.366  0.00  0.00    +0.020 A 
ENDBRANCH  19  20
ENDBRANCH  17  19
ENDBRANCH   7  17
ENDBRANCH  11   7
BRANCH  12  15
ATOM     15  C   UNL     1      10.443   4.964   5.007  0.00  0.00    +0.139 C 
BRANCH  15   8
ATOM      6  O   UNL     1      11.283   3.269   2.856  0.00  0.00    -0.253 OA
ATOM      8  N   UNL     1      10.736   5.367   3.664  0.00  0.00    -0.297 N 
ATOM      9  N   UNL     1      11.357   5.150   1.454  0.00  0.00    -0.267 N 
ATOM     21  C   UNL     1      11.144   4.474   2.658  0.00  0.00    +0.304 C 
ATOM     33  H   UNL     1      10.656   6.351   3.430  0.00  0.00    +0.150 HD
ATOM     35  H   UNL     1      11.197   6.155   1.457  0.00  0.00    +0.156 HD
BRANCH   9  24
ATOM      1  F   UNL     1       9.601   4.921  -0.698  0.00  0.00    -0.203 F 
ATOM      2  F   UNL     1      12.989   3.022  -3.397  0.00  0.00    -0.205 F 
ATOM     24  C   UNL     1      11.771   4.607   0.216  0.00  0.00    +0.070 A 
ATOM     27  C   UNL     1      10.867   4.507  -0.842  0.00  0.00    +0.147 A 
ATOM     28  C   UNL     1      13.086   4.172   0.052  0.00  0.00    +0.029 A 
ATOM     29  C   UNL     1      11.278   3.971  -2.063  0.00  0.00    +0.078 A 
ATOM     30  C   UNL     1      13.498   3.637  -1.168  0.00  0.00    +0.040 A 
ATOM     31  C   UNL     1      12.594   3.537  -2.226  0.00  0.00    +0.126 A 
ENDBRANCH   9  24
ENDBRANCH  15   8
ENDBRANCH  12  15
BRANCH  14  16
ATOM     16  C   UNL     1       9.481   4.980   9.203  0.00  0.00    +0.190 C 
BRANCH  16   5
ATOM      5  O   UNL     1      10.009   3.771   8.680  0.00  0.00    -0.392 OA
ATOM     34  H   UNL     1      10.533   3.358   9.388  0.00  0.00    +0.210 HD
ENDBRANCH  16   5
ENDBRANCH  14  16
TORSDOF 10
ENDMDL
MODEL 9
REMARK VINA RESULT:      -6.1     21.331     23.764
REMARK  Name = 28962277
REMARK  11 active torsions:
REMARK  status: ('A' for Active; 'I' for Inactive)
REMARK    1  A    between atoms: O_4  and  C_13
REMARK    2  A    between atoms: O_5  and  C_16
REMARK    3  A    between atoms: N_7  and  C_11
REMARK    4  A    between atoms: N_7  and  C_17
REMARK    5  A    between atoms: N_7  and  C_18
REMARK    6  A    between atoms: N_8  and  C_15
REMARK    7  A    between atoms: N_9  and  C_24
REMARK    8  A    between atoms: C_12  and  C_15
REMARK    9  A    between atoms: C_14  and  C_16
REMARK   10  A    between atoms: C_17  and  C_19
REMARK   11  A    between atoms: C_19  and  C_20
REMARK                            x       y       z     vdW  Elec       q    Type
REMARK                         _______ _______ _______ _____ _____    ______ ____
ROOT
ATOM      3  O   UNL     1      -3.607  -9.569  11.573  0.00  0.00    -0.365 OA
ATOM     11  C   UNL     1      -4.207 -11.200   9.945  0.00  0.00    +0.118 C 
ATOM     12  C   UNL     1      -4.658  -9.907  10.639  0.00  0.00    +0.155 C 
ATOM     13  C   UNL     1      -3.282 -11.835  10.972  0.00  0.00    +0.165 C 
ATOM     14  C   UNL     1      -2.598 -10.596  11.540  0.00  0.00    +0.174 C 
ENDROOT
BRANCH  13   4
ATOM      4  O   UNL     1      -4.014 -12.506  11.990  0.00  0.00    -0.388 OA
ATOM     32  H   UNL     1      -3.894 -13.462  11.857  0.00  0.00    +0.210 HD
ENDBRANCH  13   4
BRANCH  11   7
ATOM      7  N   UNL     1      -5.263 -12.062   9.447  0.00  0.00    -0.297 NA
ATOM     18  C   UNL     1      -4.746 -13.401   9.147  0.00  0.00    +0.105 C 
BRANCH   7  17
ATOM     17  C   UNL     1      -5.887 -11.486   8.252  0.00  0.00    +0.090 C 
BRANCH  17  19
ATOM     19  C   UNL     1      -4.828 -10.962   7.280  0.00  0.00    +0.071 C 
BRANCH  19  20
ATOM     10  N   UNL     1      -6.352 -11.200   5.396  0.00  0.00    -0.260 NA
ATOM     20  C   UNL     1      -5.102 -11.412   5.867  0.00  0.00    +0.042 A 
ATOM     22  C   UNL     1      -4.087 -12.006   5.135  0.00  0.00    +0.023 A 
ATOM     23  C   UNL     1      -4.373 -12.407   3.834  0.00  0.00    +0.003 A 
ATOM     25  C   UNL     1      -6.592 -11.604   4.128  0.00  0.00    +0.111 A 
ATOM     26  C   UNL     1      -5.646 -12.206   3.314  0.00  0.00    +0.020 A 
ENDBRANCH  19  20
ENDBRANCH  17  19
ENDBRANCH   7  17
ENDBRANCH  11   7
BRANCH  12  15
ATOM     15  C   UNL     1      -5.960  -9.974  11.428  0.00  0.00    +0.139 C 
BRANCH  15   8
ATOM      6  O   UNL     1      -6.261 -11.446  13.867  0.00  0.00    -0.253 OA
ATOM      8  N   UNL     1      -5.783  -9.472  12.758  0.00  0.00    -0.297 N 
ATOM      9  N   UNL     1      -5.710  -9.503  15.063  0.00  0.00    -0.267 N 
ATOM     21  C   UNL     1      -5.948 -10.259  13.912  0.00  0.00    +0.304 C 
ATOM     33  H   UNL     1      -5.536  -8.495  12.874  0.00  0.00    +0.150 HD
ATOM     35  H   UNL     1      -5.460  -8.527  14.927  0.00  0.00    +0.156 HD
BRANCH   9  24
ATOM      1  F   UNL     1      -8.016  -9.164  16.591  0.00  0.00    -0.203 F 
ATOM      2  F   UNL     1      -5.956 -11.181  20.341  0.00  0.00    -0.205 F 
ATOM     24  C   UNL     1      -5.775  -9.930  16.410  0.00  0.00    +0.070 A 
ATOM     27  C   UNL     1      -6.945  -9.746  17.147  0.00  0.00    +0.147 A 
ATOM     28  C   UNL     1      -4.667 -10.537  17.001  0.00  0.00    +0.029 A 
ATOM     29  C   UNL     1      -7.006 -10.168  18.475  0.00  0.00    +0.078 A 
ATOM     30  C   UNL     1      -4.728 -10.959  18.328  0.00  0.00    +0.040 A 
ATOM     31  C   UNL     1      -5.897 -10.775  19.066  0.00  0.00    +0.126 A 
ENDBRANCH   9  24
ENDBRANCH  15   8
ENDBRANCH  12  15
BRANCH  14  16
ATOM     16  C   UNL     1      -2.001 -10.756  12.925  0.00  0.00    +0.190 C 
BRANCH  16   5
ATOM      5  O   UNL     1      -2.895 -10.200  13.877  0.00  0.00    -0.392 OA
ATOM     34  H   UNL     1      -3.791 -10.281  13.508  0.00  0.00    +0.210 HD
ENDBRANCH  16   5
ENDBRANCH  14  16
TORSDOF 10
ENDMDL
MODEL 10
REMARK VINA RESULT:      -6.1     19.126     20.631
REMARK  Name = 28962277
REMARK  11 active torsions:
REMARK  status: ('A' for Active; 'I' for Inactive)
REMARK    1  A    between atoms: O_4  and  C_13
REMARK    2  A    between atoms: O_5  and  C_16
REMARK    3  A    between atoms: N_7  and  C_11
REMARK    4  A    between atoms: N_7  and  C_17
REMARK    5  A    between atoms: N_7  and  C_18
REMARK    6  A    between atoms: N_8  and  C_15
REMARK    7  A    between atoms: N_9  and  C_24
REMARK    8  A    between atoms: C_12  and  C_15
REMARK    9  A    between atoms: C_14  and  C_16
REMARK   10  A    between atoms: C_17  and  C_19
REMARK   11  A    between atoms: C_19  and  C_20
REMARK                            x       y       z     vdW  Elec       q    Type
REMARK                         _______ _______ _______ _____ _____    ______ ____
ROOT
ATOM      3  O   UNL     1      -6.189 -10.631   9.911  0.00  0.00    -0.365 OA
ATOM     11  C   UNL     1      -4.579 -11.009  11.624  0.00  0.00    +0.118 C 
ATOM     12  C   UNL     1      -6.029 -10.591  11.347  0.00  0.00    +0.155 C 
ATOM     13  C   UNL     1      -3.861 -10.626  10.339  0.00  0.00    +0.165 C 
ATOM     14  C   UNL     1      -4.926 -10.974   9.307  0.00  0.00    +0.174 C 
ENDROOT
BRANCH  13   4
ATOM      4  O   UNL     1      -3.568  -9.235  10.300  0.00  0.00    -0.388 OA
ATOM     32  H   UNL     1      -3.512  -8.920  11.218  0.00  0.00    +0.210 HD
ENDBRANCH  13   4
BRANCH  11   7
ATOM      7  N   UNL     1      -3.984 -10.492  12.844  0.00  0.00    -0.297 NA
ATOM     18  C   UNL     1      -2.521 -10.515  12.761  0.00  0.00    +0.105 C 
BRANCH   7  17
ATOM     17  C   UNL     1      -4.433 -11.259  14.009  0.00  0.00    +0.090 C 
BRANCH  17  19
ATOM     19  C   UNL     1      -3.642 -10.870  15.259  0.00  0.00    +0.071 C 
BRANCH  19  20
ATOM     10  N   UNL     1      -4.501 -12.626  16.711  0.00  0.00    -0.260 NA
ATOM     20  C   UNL     1      -4.353 -11.296  16.520  0.00  0.00    +0.042 A 
ATOM     22  C   UNL     1      -4.809 -10.328  17.400  0.00  0.00    +0.023 A 
ATOM     23  C   UNL     1      -5.459 -10.755  18.554  0.00  0.00    +0.003 A 
ATOM     25  C   UNL     1      -5.138 -13.001  17.843  0.00  0.00    +0.111 A 
ATOM     26  C   UNL     1      -5.631 -12.115  18.787  0.00  0.00    +0.020 A 
ENDBRANCH  19  20
ENDBRANCH  17  19
ENDBRANCH   7  17
ENDBRANCH  11   7
BRANCH  12  15
ATOM     15  C   UNL     1      -6.438  -9.197  11.808  0.00  0.00    +0.139 C 
BRANCH  15   8
ATOM      6  O   UNL     1      -8.788  -9.798  13.333  0.00  0.00    -0.253 OA
ATOM      8  N   UNL     1      -6.571  -9.144  13.234  0.00  0.00    -0.297 N 
ATOM      9  N   UNL     1      -7.592  -9.315  15.294  0.00  0.00    -0.267 N 
ATOM     21  C   UNL     1      -7.761  -9.455  13.914  0.00  0.00    +0.304 C 
ATOM     33  H   UNL     1      -5.766  -8.855  13.780  0.00  0.00    +0.150 HD
ATOM     35  H   UNL     1      -6.674  -9.020  15.616  0.00  0.00    +0.156 HD
BRANCH   9  24
ATOM      1  F   UNL     1      -7.972 -11.837  16.418  0.00  0.00    -0.203 F 
ATOM      2  F   UNL     1     -11.345 -10.167  19.284  0.00  0.00    -0.205 F 
ATOM     24  C   UNL     1      -8.549  -9.535  16.312  0.00  0.00    +0.070 A 
ATOM     27  C   UNL     1      -8.715 -10.810  16.854  0.00  0.00    +0.147 A 
ATOM     28  C   UNL     1      -9.328  -8.474  16.775  0.00  0.00    +0.029 A 
ATOM     29  C   UNL     1      -9.659 -11.024  17.858  0.00  0.00    +0.078 A 
ATOM     30  C   UNL     1     -10.272  -8.688  17.778  0.00  0.00    +0.040 A 
ATOM     31  C   UNL     1     -10.438  -9.962  18.320  0.00  0.00    +0.126 A 
ENDBRANCH   9  24
ENDBRANCH  15   8
ENDBRANCH  12  15
BRANCH  14  16
ATOM     16  C   UNL     1      -4.801 -10.261   7.973  0.00  0.00    +0.190 C 
BRANCH  16   5
ATOM      5  O   UNL     1      -5.303  -8.941   8.109  0.00  0.00    -0.392 OA
ATOM     34  H   UNL     1      -5.092  -8.647   9.012  0.00  0.00    +0.210 HD
ENDBRANCH  16   5
ENDBRANCH  14  16
TORSDOF 10
ENDMDL
