MODEL 1
REMARK VINA RESULT:      -6.3      0.000      0.000
REMARK  Name = 75536044
REMARK  8 active torsions:
REMARK  status: ('A' for Active; 'I' for Inactive)
REMARK    1  A    between atoms: O_3  and  C_11
REMARK    2  A    between atoms: O_4  and  C_18
REMARK    3  A    between atoms: N_6  and  C_9
REMARK    4  A    between atoms: N_7  and  C_19
REMARK    5  A    between atoms: N_8  and  C_15
REMARK    6  A    between atoms: C_10  and  C_15
REMARK    7  A    between atoms: C_12  and  C_18
REMARK    8  A    between atoms: C_20  and  C_25
REMARK                            x       y       z     vdW  Elec       q    Type
REMARK                         _______ _______ _______ _____ _____    ______ ____
ROOT
ATOM      2  O   UNL     1     -10.405 -11.576  17.585  0.00  0.00    -0.365 OA
ATOM      9  C   UNL     1     -11.574  -9.659  16.792  0.00  0.00    +0.118 C 
ATOM     10  C   UNL     1     -10.750 -10.881  16.366  0.00  0.00    +0.155 C 
ATOM     11  C   UNL     1     -11.088  -9.397  18.210  0.00  0.00    +0.165 C 
ATOM     12  C   UNL     1     -10.899 -10.824  18.710  0.00  0.00    +0.174 C 
ENDROOT
BRANCH   9   6
ATOM      6  N   UNL     1     -11.531  -8.513  15.901  0.00  0.00    -0.292 NA
ATOM      7  N   UNL     1     -12.616  -6.382  14.340  0.00  0.00    -0.327 N 
ATOM     13  C   UNL     1     -12.258  -8.799  14.659  0.00  0.00    +0.104 C 
ATOM     14  C   UNL     1     -12.104  -7.330  16.555  0.00  0.00    +0.104 C 
ATOM     16  C   UNL     1     -12.171  -7.620  13.688  0.00  0.00    +0.120 C 
ATOM     17  C   UNL     1     -12.014  -6.102  15.647  0.00  0.00    +0.120 C 
BRANCH   7  19
ATOM     19  C   UNL     1     -13.032  -5.322  13.526  0.00  0.00    +0.030 A 
ATOM     21  C   UNL     1     -14.383  -4.980  13.462  0.00  0.00    +0.023 A 
ATOM     22  C   UNL     1     -12.096  -4.608  12.778  0.00  0.00    +0.023 A 
ATOM     23  C   UNL     1     -14.797  -3.924  12.651  0.00  0.00    +0.002 A 
ATOM     24  C   UNL     1     -12.511  -3.552  11.967  0.00  0.00    +0.002 A 
ATOM     26  C   UNL     1     -13.861  -3.210  11.902  0.00  0.00    +0.000 A 
ENDBRANCH   7  19
ENDBRANCH   9   6
BRANCH  11   3
ATOM      3  O   UNL     1      -9.848  -8.701  18.217  0.00  0.00    -0.388 OA
ATOM     30  H   UNL     1      -9.139  -9.364  18.260  0.00  0.00    +0.210 HD
ENDBRANCH  11   3
BRANCH  10  15
ATOM     15  C   UNL     1      -9.450 -10.604  15.620  0.00  0.00    +0.137 C 
BRANCH  15   8
ATOM      5  O   UNL     1      -7.279  -9.179  16.847  0.00  0.00    -0.270 OA
ATOM      8  N   UNL     1      -8.330 -11.176  16.305  0.00  0.00    -0.308 N 
ATOM     20  C   UNL     1      -7.317 -10.406  16.874  0.00  0.00    +0.251 C 
ATOM     31  H   UNL     1      -8.271 -12.188  16.361  0.00  0.00    +0.149 HD
BRANCH  20  25
ATOM      1  S   UNL     1      -6.064 -12.836  17.249  0.00  0.00    -0.092 S 
ATOM     25  C   UNL     1      -6.210 -11.152  17.526  0.00  0.00    +0.074 A 
ATOM     27  C   UNL     1      -5.227 -10.679  18.365  0.00  0.00    +0.021 A 
ATOM     28  C   UNL     1      -4.340 -11.712  18.787  0.00  0.00    +0.008 A 
ATOM     29  C   UNL     1      -4.682 -12.935  18.254  0.00  0.00    +0.046 A 
ENDBRANCH  20  25
ENDBRANCH  15   8
ENDBRANCH  10  15
BRANCH  12  18
ATOM     18  C   UNL     1      -9.943 -10.986  19.878  0.00  0.00    +0.190 C 
BRANCH  18   4
ATOM      4  O   UNL     1     -10.222  -9.984  20.842  0.00  0.00    -0.392 OA
ATOM     32  H   UNL     1      -9.427  -9.429  20.917  0.00  0.00    +0.210 HD
ENDBRANCH  18   4
ENDBRANCH  12  18
TORSDOF 8
ENDMDL
MODEL 2
REMARK VINA RESULT:      -6.2     28.770     30.929
REMARK  Name = 75536044
REMARK  8 active torsions:
REMARK  status: ('A' for Active; 'I' for Inactive)
REMARK    1  A    between atoms: O_3  and  C_11
REMARK    2  A    between atoms: O_4  and  C_18
REMARK    3  A    between atoms: N_6  and  C_9
REMARK    4  A    between atoms: N_7  and  C_19
REMARK    5  A    between atoms: N_8  and  C_15
REMARK    6  A    between atoms: C_10  and  C_15
REMARK    7  A    between atoms: C_12  and  C_18
REMARK    8  A    between atoms: C_20  and  C_25
REMARK                            x       y       z     vdW  Elec       q    Type
REMARK                         _______ _______ _______ _____ _____    ______ ____
ROOT
ATOM      2  O   UNL     1      12.515   8.257  21.865  0.00  0.00    -0.365 OA
ATOM      9  C   UNL     1      13.509   8.608  19.731  0.00  0.00    +0.118 C 
ATOM     10  C   UNL     1      13.073   9.296  21.031  0.00  0.00    +0.155 C 
ATOM     11  C   UNL     1      12.592   7.396  19.662  0.00  0.00    +0.165 C 
ATOM     12  C   UNL     1      12.518   7.015  21.136  0.00  0.00    +0.174 C 
ENDROOT
BRANCH   9   6
ATOM      6  N   UNL     1      13.528   9.439  18.540  0.00  0.00    -0.292 NA
ATOM      7  N   UNL     1      14.681  10.656  16.228  0.00  0.00    -0.327 N 
ATOM     13  C   UNL     1      14.509  10.521  18.682  0.00  0.00    +0.104 C 
ATOM     14  C   UNL     1      13.843   8.632  17.354  0.00  0.00    +0.104 C 
ATOM     16  C   UNL     1      14.498  11.438  17.457  0.00  0.00    +0.120 C 
ATOM     17  C   UNL     1      13.811   9.486  16.084  0.00  0.00    +0.120 C 
BRANCH   7  19
ATOM     19  C   UNL     1      15.142  11.323  15.087  0.00  0.00    +0.030 A 
ATOM     21  C   UNL     1      16.512  11.466  14.867  0.00  0.00    +0.023 A 
ATOM     22  C   UNL     1      14.231  11.846  14.170  0.00  0.00    +0.023 A 
ATOM     23  C   UNL     1      16.971  12.131  13.730  0.00  0.00    +0.002 A 
ATOM     24  C   UNL     1      14.689  12.511  13.033  0.00  0.00    +0.002 A 
ATOM     26  C   UNL     1      16.059  12.654  12.813  0.00  0.00    +0.000 A 
ENDBRANCH   7  19
ENDBRANCH   9   6
BRANCH  11   3
ATOM      3  O   UNL     1      11.303   7.744  19.175  0.00  0.00    -0.388 OA
ATOM     30  H   UNL     1      11.040   8.575  19.605  0.00  0.00    +0.210 HD
ENDBRANCH  11   3
BRANCH  10  15
ATOM     15  C   UNL     1      12.020  10.391  20.906  0.00  0.00    +0.137 C 
BRANCH  15   8
ATOM      5  O   UNL     1      10.390  10.270  23.267  0.00  0.00    -0.270 OA
ATOM      8  N   UNL     1      12.068  11.283  22.024  0.00  0.00    -0.308 N 
ATOM     20  C   UNL     1      11.237  11.151  23.135  0.00  0.00    +0.251 C 
ATOM     31  H   UNL     1      12.729  12.053  21.992  0.00  0.00    +0.149 HD
BRANCH  20  25
ATOM      1  S   UNL     1      12.910  12.351  24.972  0.00  0.00    -0.092 S 
ATOM     25  C   UNL     1      11.391  12.175  24.200  0.00  0.00    +0.074 A 
ATOM     27  C   UNL     1      10.455  13.055  24.694  0.00  0.00    +0.021 A 
ATOM     28  C   UNL     1      10.990  13.886  25.721  0.00  0.00    +0.008 A 
ATOM     29  C   UNL     1      12.316  13.608  25.971  0.00  0.00    +0.046 A 
ENDBRANCH  20  25
ENDBRANCH  15   8
ENDBRANCH  10  15
BRANCH  12  18
ATOM     18  C   UNL     1      11.307   6.194  21.539  0.00  0.00    +0.190 C 
BRANCH  18   4
ATOM      4  O   UNL     1      11.156   5.120  20.625  0.00  0.00    -0.392 OA
ATOM     32  H   UNL     1      11.962   4.580  20.681  0.00  0.00    +0.210 HD
ENDBRANCH  18   4
ENDBRANCH  12  18
TORSDOF 8
ENDMDL
MODEL 3
REMARK VINA RESULT:      -5.9      8.107     12.006
REMARK  Name = 75536044
REMARK  8 active torsions:
REMARK  status: ('A' for Active; 'I' for Inactive)
REMARK    1  A    between atoms: O_3  and  C_11
REMARK    2  A    between atoms: O_4  and  C_18
REMARK    3  A    between atoms: N_6  and  C_9
REMARK    4  A    between atoms: N_7  and  C_19
REMARK    5  A    between atoms: N_8  and  C_15
REMARK    6  A    between atoms: C_10  and  C_15
REMARK    7  A    between atoms: C_12  and  C_18
REMARK    8  A    between atoms: C_20  and  C_25
REMARK                            x       y       z     vdW  Elec       q    Type
REMARK                         _______ _______ _______ _____ _____    ______ ____
ROOT
ATOM      2  O   UNL     1      -9.669  -8.076   5.317  0.00  0.00    -0.365 OA
ATOM      9  C   UNL     1      -7.975  -9.126   6.618  0.00  0.00    +0.118 C 
ATOM     10  C   UNL     1      -9.188  -8.189   6.674  0.00  0.00    +0.155 C 
ATOM     11  C   UNL     1      -7.473  -8.950   5.192  0.00  0.00    +0.165 C 
ATOM     12  C   UNL     1      -8.794  -8.817   4.444  0.00  0.00    +0.174 C 
ENDROOT
BRANCH   9   6
ATOM      6  N   UNL     1      -6.973  -8.943   7.654  0.00  0.00    -0.292 NA
ATOM      7  N   UNL     1      -5.274  -9.737   9.807  0.00  0.00    -0.327 N 
ATOM     13  C   UNL     1      -7.539  -9.238   8.975  0.00  0.00    +0.104 C 
ATOM     14  C   UNL     1      -5.811  -9.803   7.404  0.00  0.00    +0.104 C 
ATOM     16  C   UNL     1      -6.510  -8.994  10.081  0.00  0.00    +0.120 C 
ATOM     17  C   UNL     1      -4.724  -9.579   8.458  0.00  0.00    +0.120 C 
BRANCH   7  19
ATOM     19  C   UNL     1      -4.416 -10.004  10.880  0.00  0.00    +0.030 A 
ATOM     21  C   UNL     1      -3.034  -9.982  10.691  0.00  0.00    +0.023 A 
ATOM     22  C   UNL     1      -4.942 -10.294  12.139  0.00  0.00    +0.023 A 
ATOM     23  C   UNL     1      -2.179 -10.248  11.760  0.00  0.00    +0.002 A 
ATOM     24  C   UNL     1      -4.087 -10.560  13.208  0.00  0.00    +0.002 A 
ATOM     26  C   UNL     1      -2.706 -10.538  13.019  0.00  0.00    +0.000 A 
ENDBRANCH   7  19
ENDBRANCH   9   6
BRANCH  11   3
ATOM      3  O   UNL     1      -6.702  -7.764   5.053  0.00  0.00    -0.388 OA
ATOM     30  H   UNL     1      -7.027  -7.293   4.268  0.00  0.00    +0.210 HD
ENDBRANCH  11   3
BRANCH  10  15
ATOM     15  C   UNL     1      -8.937  -6.774   7.184  0.00  0.00    +0.137 C 
BRANCH  15   8
ATOM      5  O   UNL     1      -9.060  -4.341   8.703  0.00  0.00    -0.270 OA
ATOM      8  N   UNL     1     -10.059  -6.287   7.928  0.00  0.00    -0.308 N 
ATOM     20  C   UNL     1     -10.031  -5.089   8.640  0.00  0.00    +0.251 C 
ATOM     31  H   UNL     1     -10.902  -6.852   7.945  0.00  0.00    +0.149 HD
BRANCH  20  25
ATOM      1  S   UNL     1     -12.595  -5.820   9.355  0.00  0.00    -0.092 S 
ATOM     25  C   UNL     1     -11.268  -4.737   9.384  0.00  0.00    +0.074 A 
ATOM     27  C   UNL     1     -11.533  -3.614  10.136  0.00  0.00    +0.021 A 
ATOM     28  C   UNL     1     -12.843  -3.643  10.696  0.00  0.00    +0.008 A 
ATOM     29  C   UNL     1     -13.529  -4.787  10.350  0.00  0.00    +0.046 A 
ENDBRANCH  20  25
ENDBRANCH  15   8
ENDBRANCH  10  15
BRANCH  12  18
ATOM     18  C   UNL     1      -8.716  -8.115   3.100  0.00  0.00    +0.190 C 
BRANCH  18   4
ATOM      4  O   UNL     1      -8.864  -6.719   3.302  0.00  0.00    -0.392 OA
ATOM     32  H   UNL     1      -8.145  -6.281   2.815  0.00  0.00    +0.210 HD
ENDBRANCH  18   4
ENDBRANCH  12  18
TORSDOF 8
ENDMDL
MODEL 4
REMARK VINA RESULT:      -5.8      6.343      8.236
REMARK  Name = 75536044
REMARK  8 active torsions:
REMARK  status: ('A' for Active; 'I' for Inactive)
REMARK    1  A    between atoms: O_3  and  C_11
REMARK    2  A    between atoms: O_4  and  C_18
REMARK    3  A    between atoms: N_6  and  C_9
REMARK    4  A    between atoms: N_7  and  C_19
REMARK    5  A    between atoms: N_8  and  C_15
REMARK    6  A    between atoms: C_10  and  C_15
REMARK    7  A    between atoms: C_12  and  C_18
REMARK    8  A    between atoms: C_20  and  C_25
REMARK                            x       y       z     vdW  Elec       q    Type
REMARK                         _______ _______ _______ _____ _____    ______ ____
ROOT
ATOM      2  O   UNL     1      -2.420 -11.351  13.793  0.00  0.00    -0.365 OA
ATOM      9  C   UNL     1      -3.238 -11.003  11.585  0.00  0.00    +0.118 C 
ATOM     10  C   UNL     1      -3.242 -10.452  13.016  0.00  0.00    +0.155 C 
ATOM     11  C   UNL     1      -2.969 -12.487  11.791  0.00  0.00    +0.165 C 
ATOM     12  C   UNL     1      -1.983 -12.435  12.952  0.00  0.00    +0.174 C 
ENDROOT
BRANCH   9   6
ATOM      6  N   UNL     1      -4.401 -10.691  10.773  0.00  0.00    -0.292 NA
ATOM      7  N   UNL     1      -5.802  -9.604   8.535  0.00  0.00    -0.327 N 
ATOM     13  C   UNL     1      -4.552  -9.239  10.626  0.00  0.00    +0.104 C 
ATOM     14  C   UNL     1      -4.289 -11.318   9.451  0.00  0.00    +0.104 C 
ATOM     16  C   UNL     1      -5.806  -8.895   9.821  0.00  0.00    +0.120 C 
ATOM     17  C   UNL     1      -5.534 -11.043   8.605  0.00  0.00    +0.120 C 
BRANCH   7  19
ATOM     19  C   UNL     1      -6.596  -9.095   7.501  0.00  0.00    +0.030 A 
ATOM     21  C   UNL     1      -7.580  -8.146   7.778  0.00  0.00    +0.023 A 
ATOM     22  C   UNL     1      -6.404  -9.537   6.192  0.00  0.00    +0.023 A 
ATOM     23  C   UNL     1      -8.371  -7.639   6.748  0.00  0.00    +0.002 A 
ATOM     24  C   UNL     1      -7.195  -9.030   5.161  0.00  0.00    +0.002 A 
ATOM     26  C   UNL     1      -8.179  -8.081   5.439  0.00  0.00    +0.000 A 
ENDBRANCH   7  19
ENDBRANCH   9   6
BRANCH  11   3
ATOM      3  O   UNL     1      -4.148 -13.183  12.172  0.00  0.00    -0.388 OA
ATOM     30  H   UNL     1      -4.907 -12.614  11.960  0.00  0.00    +0.210 HD
ENDBRANCH  11   3
BRANCH  10  15
ATOM     15  C   UNL     1      -4.596 -10.364  13.712  0.00  0.00    +0.137 C 
BRANCH  15   8
ATOM      5  O   UNL     1      -6.119  -9.416  15.954  0.00  0.00    -0.270 OA
ATOM      8  N   UNL     1      -4.516 -10.837  15.061  0.00  0.00    -0.308 N 
ATOM     20  C   UNL     1      -5.297 -10.318  16.092  0.00  0.00    +0.251 C 
ATOM     31  H   UNL     1      -3.848 -11.572  15.270  0.00  0.00    +0.149 HD
BRANCH  20  25
ATOM      1  S   UNL     1      -6.242 -10.626  18.666  0.00  0.00    -0.092 S 
ATOM     25  C   UNL     1      -5.075 -10.897  17.441  0.00  0.00    +0.074 A 
ATOM     27  C   UNL     1      -4.021 -11.661  17.891  0.00  0.00    +0.021 A 
ATOM     28  C   UNL     1      -4.173 -12.030  19.259  0.00  0.00    +0.008 A 
ATOM     29  C   UNL     1      -5.337 -11.532  19.803  0.00  0.00    +0.046 A 
ENDBRANCH  20  25
ENDBRANCH  15   8
ENDBRANCH  10  15
BRANCH  12  18
ATOM     18  C   UNL     1      -1.883 -13.703  13.780  0.00  0.00    +0.190 C 
BRANCH  18   4
ATOM      4  O   UNL     1      -2.801 -13.622  14.858  0.00  0.00    -0.392 OA
ATOM     32  H   UNL     1      -2.284 -13.682  15.679  0.00  0.00    +0.210 HD
ENDBRANCH  18   4
ENDBRANCH  12  18
TORSDOF 8
ENDMDL
MODEL 5
REMARK VINA RESULT:      -5.7      6.995     11.489
REMARK  Name = 75536044
REMARK  8 active torsions:
REMARK  status: ('A' for Active; 'I' for Inactive)
REMARK    1  A    between atoms: O_3  and  C_11
REMARK    2  A    between atoms: O_4  and  C_18
REMARK    3  A    between atoms: N_6  and  C_9
REMARK    4  A    between atoms: N_7  and  C_19
REMARK    5  A    between atoms: N_8  and  C_15
REMARK    6  A    between atoms: C_10  and  C_15
REMARK    7  A    between atoms: C_12  and  C_18
REMARK    8  A    between atoms: C_20  and  C_25
REMARK                            x       y       z     vdW  Elec       q    Type
REMARK                         _______ _______ _______ _____ _____    ______ ____
ROOT
ATOM      2  O   UNL     1      -7.760  -9.837   7.538  0.00  0.00    -0.365 OA
ATOM      9  C   UNL     1      -6.233 -10.535   9.225  0.00  0.00    +0.118 C 
ATOM     10  C   UNL     1      -7.546  -9.786   8.966  0.00  0.00    +0.155 C 
ATOM     11  C   UNL     1      -5.487 -10.383   7.908  0.00  0.00    +0.165 C 
ATOM     12  C   UNL     1      -6.640 -10.497   6.918  0.00  0.00    +0.174 C 
ENDROOT
BRANCH   9   6
ATOM      6  N   UNL     1      -5.489 -10.137  10.408  0.00  0.00    -0.292 NA
ATOM      7  N   UNL     1      -4.070 -10.539  12.853  0.00  0.00    -0.327 N 
ATOM     13  C   UNL     1      -6.207 -10.534  11.625  0.00  0.00    +0.104 C 
ATOM     14  C   UNL     1      -4.150 -10.736  10.399  0.00  0.00    +0.104 C 
ATOM     16  C   UNL     1      -5.462 -10.069  12.878  0.00  0.00    +0.120 C 
ATOM     17  C   UNL     1      -3.336 -10.279  11.612  0.00  0.00    +0.120 C 
BRANCH   7  19
ATOM     19  C   UNL     1      -3.379 -10.610  14.067  0.00  0.00    +0.030 A 
ATOM     21  C   UNL     1      -1.988 -10.502  14.087  0.00  0.00    +0.023 A 
ATOM     22  C   UNL     1      -4.080 -10.791  15.260  0.00  0.00    +0.023 A 
ATOM     23  C   UNL     1      -1.299 -10.574  15.297  0.00  0.00    +0.002 A 
ATOM     24  C   UNL     1      -3.391 -10.863  16.470  0.00  0.00    +0.002 A 
ATOM     26  C   UNL     1      -2.000 -10.755  16.489  0.00  0.00    +0.000 A 
ENDBRANCH   7  19
ENDBRANCH   9   6
BRANCH  11   3
ATOM      3  O   UNL     1      -4.867  -9.109   7.803  0.00  0.00    -0.388 OA
ATOM     30  H   UNL     1      -5.569  -8.438   7.820  0.00  0.00    +0.210 HD
ENDBRANCH  11   3
BRANCH  10  15
ATOM     15  C   UNL     1      -7.590  -8.318   9.377  0.00  0.00    +0.137 C 
BRANCH  15   8
ATOM      5  O   UNL     1      -8.385  -5.956   7.952  0.00  0.00    -0.270 OA
ATOM      8  N   UNL     1      -8.917  -7.791   9.269  0.00  0.00    -0.308 N 
ATOM     20  C   UNL     1      -9.215  -6.633   8.553  0.00  0.00    +0.251 C 
ATOM     31  H   UNL     1      -9.666  -8.280   9.750  0.00  0.00    +0.149 HD
BRANCH  20  25
ATOM      1  S   UNL     1     -11.051  -4.710   9.293  0.00  0.00    -0.092 S 
ATOM     25  C   UNL     1     -10.636  -6.202   8.560  0.00  0.00    +0.074 A 
ATOM     27  C   UNL     1     -11.737  -6.847   8.042  0.00  0.00    +0.021 A 
ATOM     28  C   UNL     1     -12.937  -6.107   8.249  0.00  0.00    +0.008 A 
ATOM     29  C   UNL     1     -12.707  -4.925   8.918  0.00  0.00    +0.046 A 
ENDBRANCH  20  25
ENDBRANCH  15   8
ENDBRANCH  10  15
BRANCH  12  18
ATOM     18  C   UNL     1      -6.391  -9.883   5.552  0.00  0.00    +0.190 C 
BRANCH  18   4
ATOM      4  O   UNL     1      -6.703  -8.501   5.605  0.00  0.00    -0.392 OA
ATOM     32  H   UNL     1      -7.305  -8.314   4.865  0.00  0.00    +0.210 HD
ENDBRANCH  18   4
ENDBRANCH  12  18
TORSDOF 8
ENDMDL
MODEL 6
REMARK VINA RESULT:      -5.7      4.717      6.993
REMARK  Name = 75536044
REMARK  8 active torsions:
REMARK  status: ('A' for Active; 'I' for Inactive)
REMARK    1  A    between atoms: O_3  and  C_11
REMARK    2  A    between atoms: O_4  and  C_18
REMARK    3  A    between atoms: N_6  and  C_9
REMARK    4  A    between atoms: N_7  and  C_19
REMARK    5  A    between atoms: N_8  and  C_15
REMARK    6  A    between atoms: C_10  and  C_15
REMARK    7  A    between atoms: C_12  and  C_18
REMARK    8  A    between atoms: C_20  and  C_25
REMARK                            x       y       z     vdW  Elec       q    Type
REMARK                         _______ _______ _______ _____ _____    ______ ____
ROOT
ATOM      2  O   UNL     1      -3.375 -11.409  17.454  0.00  0.00    -0.365 OA
ATOM      9  C   UNL     1      -5.543 -10.433  17.588  0.00  0.00    +0.118 C 
ATOM     10  C   UNL     1      -4.601 -11.468  18.217  0.00  0.00    +0.155 C 
ATOM     11  C   UNL     1      -5.040 -10.342  16.154  0.00  0.00    +0.165 C 
ATOM     12  C   UNL     1      -3.538 -10.470  16.374  0.00  0.00    +0.174 C 
ENDROOT
BRANCH   9   6
ATOM      6  N   UNL     1      -6.965 -10.689  17.730  0.00  0.00    -0.292 NA
ATOM      7  N   UNL     1      -9.645 -10.134  18.546  0.00  0.00    -0.327 N 
ATOM     13  C   UNL     1      -7.337 -10.752  19.149  0.00  0.00    +0.104 C 
ATOM     14  C   UNL     1      -7.746  -9.647  17.054  0.00  0.00    +0.104 C 
ATOM     16  C   UNL     1      -8.823 -11.078  19.313  0.00  0.00    +0.120 C 
ATOM     17  C   UNL     1      -9.246  -9.935  17.149  0.00  0.00    +0.120 C 
BRANCH   7  19
ATOM     19  C   UNL     1     -10.987  -9.980  18.913  0.00  0.00    +0.030 A 
ATOM     21  C   UNL     1     -11.951  -9.717  17.941  0.00  0.00    +0.023 A 
ATOM     22  C   UNL     1     -11.360 -10.090  20.253  0.00  0.00    +0.023 A 
ATOM     23  C   UNL     1     -13.288  -9.564  18.307  0.00  0.00    +0.002 A 
ATOM     24  C   UNL     1     -12.697  -9.938  20.619  0.00  0.00    +0.002 A 
ATOM     26  C   UNL     1     -13.661  -9.674  19.647  0.00  0.00    +0.000 A 
ENDBRANCH   7  19
ENDBRANCH   9   6
BRANCH  11   3
ATOM      3  O   UNL     1      -5.520 -11.421  15.363  0.00  0.00    -0.388 OA
ATOM     30  H   UNL     1      -5.858 -11.050  14.532  0.00  0.00    +0.210 HD
ENDBRANCH  11   3
BRANCH  10  15
ATOM     15  C   UNL     1      -5.071 -12.918  18.205  0.00  0.00    +0.137 C 
BRANCH  15   8
ATOM      5  O   UNL     1      -6.165 -15.131  16.739  0.00  0.00    -0.270 OA
ATOM      8  N   UNL     1      -4.420 -13.663  17.171  0.00  0.00    -0.308 N 
ATOM     20  C   UNL     1      -5.028 -14.728  16.508  0.00  0.00    +0.251 C 
ATOM     31  H   UNL     1      -3.468 -13.409  16.925  0.00  0.00    +0.149 HD
BRANCH  20  25
ATOM      1  S   UNL     1      -3.163 -16.686  15.956  0.00  0.00    -0.092 S 
ATOM     25  C   UNL     1      -4.209 -15.417  15.478  0.00  0.00    +0.074 A 
ATOM     27  C   UNL     1      -4.153 -15.184  14.122  0.00  0.00    +0.021 A 
ATOM     28  C   UNL     1      -3.239 -16.059  13.466  0.00  0.00    +0.008 A 
ATOM     29  C   UNL     1      -2.633 -16.927  14.347  0.00  0.00    +0.046 A 
ENDBRANCH  20  25
ENDBRANCH  15   8
ENDBRANCH  10  15
BRANCH  12  18
ATOM     18  C   UNL     1      -2.740 -10.944  15.173  0.00  0.00    +0.190 C 
BRANCH  18   4
ATOM      4  O   UNL     1      -2.509 -12.338  15.298  0.00  0.00    -0.392 OA
ATOM     32  H   UNL     1      -2.295 -12.673  14.411  0.00  0.00    +0.210 HD
ENDBRANCH  18   4
ENDBRANCH  12  18
TORSDOF 8
ENDMDL
MODEL 7
REMARK VINA RESULT:      -5.5      5.011      7.995
REMARK  Name = 75536044
REMARK  8 active torsions:
REMARK  status: ('A' for Active; 'I' for Inactive)
REMARK    1  A    between atoms: O_3  and  C_11
REMARK    2  A    between atoms: O_4  and  C_18
REMARK    3  A    between atoms: N_6  and  C_9
REMARK    4  A    between atoms: N_7  and  C_19
REMARK    5  A    between atoms: N_8  and  C_15
REMARK    6  A    between atoms: C_10  and  C_15
REMARK    7  A    between atoms: C_12  and  C_18
REMARK    8  A    between atoms: C_20  and  C_25
REMARK                            x       y       z     vdW  Elec       q    Type
REMARK                         _______ _______ _______ _____ _____    ______ ____
ROOT
ATOM      2  O   UNL     1      -3.429 -11.782  13.886  0.00  0.00    -0.365 OA
ATOM      9  C   UNL     1      -5.158 -11.681  15.520  0.00  0.00    +0.118 C 
ATOM     10  C   UNL     1      -4.855 -11.593  14.019  0.00  0.00    +0.155 C 
ATOM     11  C   UNL     1      -3.842 -11.264  16.159  0.00  0.00    +0.165 C 
ATOM     12  C   UNL     1      -2.848 -11.906  15.199  0.00  0.00    +0.174 C 
ENDROOT
BRANCH   9   6
ATOM      6  N   UNL     1      -6.328 -10.957  15.983  0.00  0.00    -0.292 NA
ATOM      7  N   UNL     1      -8.741 -10.573  17.462  0.00  0.00    -0.327 N 
ATOM     13  C   UNL     1      -7.557 -11.661  15.595  0.00  0.00    +0.104 C 
ATOM     14  C   UNL     1      -6.287 -10.789  17.440  0.00  0.00    +0.104 C 
ATOM     16  C   UNL     1      -8.798 -10.878  16.027  0.00  0.00    +0.120 C 
ATOM     17  C   UNL     1      -7.487  -9.978  17.935  0.00  0.00    +0.120 C 
BRANCH   7  19
ATOM     19  C   UNL     1      -9.940 -10.279  18.120  0.00  0.00    +0.030 A 
ATOM     21  C   UNL     1     -10.992  -9.684  17.424  0.00  0.00    +0.023 A 
ATOM     22  C   UNL     1     -10.084 -10.580  19.475  0.00  0.00    +0.023 A 
ATOM     23  C   UNL     1     -12.187  -9.391  18.080  0.00  0.00    +0.002 A 
ATOM     24  C   UNL     1     -11.279 -10.287  20.132  0.00  0.00    +0.002 A 
ATOM     26  C   UNL     1     -12.331  -9.692  19.435  0.00  0.00    +0.000 A 
ENDBRANCH   7  19
ENDBRANCH   9   6
BRANCH  11   3
ATOM      3  O   UNL     1      -3.688  -9.851  16.162  0.00  0.00    -0.388 OA
ATOM     30  H   UNL     1      -2.889  -9.641  15.650  0.00  0.00    +0.210 HD
ENDBRANCH  11   3
BRANCH  10  15
ATOM     15  C   UNL     1      -5.203 -10.279  13.327  0.00  0.00    +0.137 C 
BRANCH  15   8
ATOM      5  O   UNL     1      -3.236  -9.716  11.312  0.00  0.00    -0.270 OA
ATOM      8  N   UNL     1      -5.349 -10.463  11.914  0.00  0.00    -0.308 N 
ATOM     20  C   UNL     1      -4.338 -10.163  11.004  0.00  0.00    +0.251 C 
ATOM     31  H   UNL     1      -6.237 -10.814  11.567  0.00  0.00    +0.149 HD
BRANCH  20  25
ATOM      1  S   UNL     1      -4.449 -11.947   8.901  0.00  0.00    -0.092 S 
ATOM     25  C   UNL     1      -4.655 -10.383   9.569  0.00  0.00    +0.074 A 
ATOM     27  C   UNL     1      -5.115  -9.479   8.638  0.00  0.00    +0.021 A 
ATOM     28  C   UNL     1      -5.301 -10.078   7.358  0.00  0.00    +0.008 A 
ATOM     29  C   UNL     1      -4.976 -11.416   7.361  0.00  0.00    +0.046 A 
ENDBRANCH  20  25
ENDBRANCH  15   8
ENDBRANCH  10  15
BRANCH  12  18
ATOM     18  C   UNL     1      -1.459 -11.293  15.191  0.00  0.00    +0.190 C 
BRANCH  18   4
ATOM      4  O   UNL     1      -1.094 -10.964  16.521  0.00  0.00    -0.392 OA
ATOM     32  H   UNL     1      -0.378 -10.310  16.469  0.00  0.00    +0.210 HD
ENDBRANCH  18   4
ENDBRANCH  12  18
TORSDOF 8
ENDMDL
MODEL 8
REMARK VINA RESULT:      -5.5     28.372     30.334
REMARK  Name = 75536044
REMARK  8 active torsions:
REMARK  status: ('A' for Active; 'I' for Inactive)
REMARK    1  A    between atoms: O_3  and  C_11
REMARK    2  A    between atoms: O_4  and  C_18
REMARK    3  A    between atoms: N_6  and  C_9
REMARK    4  A    between atoms: N_7  and  C_19
REMARK    5  A    between atoms: N_8  and  C_15
REMARK    6  A    between atoms: C_10  and  C_15
REMARK    7  A    between atoms: C_12  and  C_18
REMARK    8  A    between atoms: C_20  and  C_25
REMARK                            x       y       z     vdW  Elec       q    Type
REMARK                         _______ _______ _______ _____ _____    ______ ____
ROOT
ATOM      2  O   UNL     1       8.871   5.735   7.160  0.00  0.00    -0.365 OA
ATOM      9  C   UNL     1      10.845   7.011   6.786  0.00  0.00    +0.118 C 
ATOM     10  C   UNL     1       9.701   6.254   6.099  0.00  0.00    +0.155 C 
ATOM     11  C   UNL     1      10.942   6.326   8.141  0.00  0.00    +0.165 C 
ATOM     12  C   UNL     1       9.469   6.063   8.429  0.00  0.00    +0.174 C 
ENDROOT
BRANCH   9   6
ATOM      6  N   UNL     1      12.092   7.101   6.047  0.00  0.00    -0.292 NA
ATOM      7  N   UNL     1      14.473   8.356   5.092  0.00  0.00    -0.327 N 
ATOM     13  C   UNL     1      12.017   8.164   5.038  0.00  0.00    +0.104 C 
ATOM     14  C   UNL     1      13.214   7.354   6.958  0.00  0.00    +0.104 C 
ATOM     16  C   UNL     1      13.304   8.231   4.213  0.00  0.00    +0.120 C 
ATOM     17  C   UNL     1      14.541   7.395   6.197  0.00  0.00    +0.120 C 
BRANCH   7  19
ATOM     19  C   UNL     1      15.653   8.873   4.547  0.00  0.00    +0.030 A 
ATOM     21  C   UNL     1      15.595   9.826   3.531  0.00  0.00    +0.023 A 
ATOM     22  C   UNL     1      16.890   8.433   5.020  0.00  0.00    +0.023 A 
ATOM     23  C   UNL     1      16.772  10.340   2.987  0.00  0.00    +0.002 A 
ATOM     24  C   UNL     1      18.067   8.948   4.477  0.00  0.00    +0.002 A 
ATOM     26  C   UNL     1      18.009   9.901   3.460  0.00  0.00    +0.000 A 
ENDBRANCH   7  19
ENDBRANCH   9   6
BRANCH  11   3
ATOM      3  O   UNL     1      11.658   5.100   8.056  0.00  0.00    -0.388 OA
ATOM     30  H   UNL     1      12.556   5.261   8.389  0.00  0.00    +0.210 HD
ENDBRANCH  11   3
BRANCH  10  15
ATOM     15  C   UNL     1      10.094   5.076   5.215  0.00  0.00    +0.137 C 
BRANCH  15   8
ATOM      5  O   UNL     1      11.265   3.562   3.074  0.00  0.00    -0.270 OA
ATOM      8  N   UNL     1      10.188   5.469   3.841  0.00  0.00    -0.308 N 
ATOM     20  C   UNL     1      10.774   4.669   2.863  0.00  0.00    +0.251 C 
ATOM     31  H   UNL     1       9.821   6.379   3.579  0.00  0.00    +0.149 HD
BRANCH  20  25
ATOM      1  S   UNL     1      12.143   6.217   1.034  0.00  0.00    -0.092 S 
ATOM     25  C   UNL     1      10.817   5.232   1.489  0.00  0.00    +0.074 A 
ATOM     27  C   UNL     1       9.909   5.080   0.465  0.00  0.00    +0.021 A 
ATOM     28  C   UNL     1      10.307   5.782  -0.710  0.00  0.00    +0.008 A 
ATOM     29  C   UNL     1      11.503   6.443  -0.538  0.00  0.00    +0.046 A 
ENDBRANCH  20  25
ENDBRANCH  15   8
ENDBRANCH  10  15
BRANCH  12  18
ATOM     18  C   UNL     1       9.186   4.947   9.419  0.00  0.00    +0.190 C 
BRANCH  18   4
ATOM      4  O   UNL     1      10.234   4.904  10.374  0.00  0.00    -0.392 OA
ATOM     32  H   UNL     1       9.937   5.412  11.148  0.00  0.00    +0.210 HD
ENDBRANCH  18   4
ENDBRANCH  12  18
TORSDOF 8
ENDMDL
MODEL 9
REMARK VINA RESULT:      -5.5     29.600     31.563
REMARK  Name = 75536044
REMARK  8 active torsions:
REMARK  status: ('A' for Active; 'I' for Inactive)
REMARK    1  A    between atoms: O_3  and  C_11
REMARK    2  A    between atoms: O_4  and  C_18
REMARK    3  A    between atoms: N_6  and  C_9
REMARK    4  A    between atoms: N_7  and  C_19
REMARK    5  A    between atoms: N_8  and  C_15
REMARK    6  A    between atoms: C_10  and  C_15
REMARK    7  A    between atoms: C_12  and  C_18
REMARK    8  A    between atoms: C_20  and  C_25
REMARK                            x       y       z     vdW  Elec       q    Type
REMARK                         _______ _______ _______ _____ _____    ______ ____
ROOT
ATOM      2  O   UNL     1       9.370   6.949   4.507  0.00  0.00    -0.365 OA
ATOM      9  C   UNL     1      11.545   7.843   4.879  0.00  0.00    +0.118 C 
ATOM     10  C   UNL     1      10.711   6.933   3.968  0.00  0.00    +0.155 C 
ATOM     11  C   UNL     1      10.798   7.779   6.203  0.00  0.00    +0.165 C 
ATOM     12  C   UNL     1       9.357   7.741   5.710  0.00  0.00    +0.174 C 
ENDROOT
BRANCH   9   6
ATOM      6  N   UNL     1      12.965   7.547   4.954  0.00  0.00    -0.292 NA
ATOM      7  N   UNL     1      15.753   8.158   5.078  0.00  0.00    -0.327 N 
ATOM     13  C   UNL     1      13.663   8.071   3.774  0.00  0.00    +0.104 C 
ATOM     14  C   UNL     1      13.546   8.120   6.174  0.00  0.00    +0.104 C 
ATOM     16  C   UNL     1      15.151   7.716   3.813  0.00  0.00    +0.120 C 
ATOM     17  C   UNL     1      15.031   7.768   6.293  0.00  0.00    +0.120 C 
BRANCH   7  19
ATOM     19  C   UNL     1      17.140   8.334   5.121  0.00  0.00    +0.030 A 
ATOM     21  C   UNL     1      17.746   8.824   6.278  0.00  0.00    +0.023 A 
ATOM     22  C   UNL     1      17.917   8.020   4.006  0.00  0.00    +0.023 A 
ATOM     23  C   UNL     1      19.129   8.999   6.320  0.00  0.00    +0.002 A 
ATOM     24  C   UNL     1      19.300   8.195   4.048  0.00  0.00    +0.002 A 
ATOM     26  C   UNL     1      19.907   8.686   5.205  0.00  0.00    +0.000 A 
ENDBRANCH   7  19
ENDBRANCH   9   6
BRANCH  11   3
ATOM      3  O   UNL     1      11.108   6.591   6.920  0.00  0.00    -0.388 OA
ATOM     30  H   UNL     1      11.072   6.803   7.868  0.00  0.00    +0.210 HD
ENDBRANCH  11   3
BRANCH  10  15
ATOM     15  C   UNL     1      11.143   5.474   3.876  0.00  0.00    +0.137 C 
BRANCH  15   8
ATOM      5  O   UNL     1      11.658   3.147   2.274  0.00  0.00    -0.270 OA
ATOM      8  N   UNL     1      12.200   5.308   2.925  0.00  0.00    -0.308 N 
ATOM     20  C   UNL     1      12.377   4.139   2.187  0.00  0.00    +0.251 C 
ATOM     31  H   UNL     1      12.855   6.074   2.800  0.00  0.00    +0.149 HD
BRANCH  20  25
ATOM      1  S   UNL     1      13.346   4.712  -0.333  0.00  0.00    -0.092 S 
ATOM     25  C   UNL     1      13.538   4.114   1.261  0.00  0.00    +0.074 A 
ATOM     27  C   UNL     1      14.818   3.661   1.492  0.00  0.00    +0.021 A 
ATOM     28  C   UNL     1      15.652   3.806   0.346  0.00  0.00    +0.008 A 
ATOM     29  C   UNL     1      14.978   4.365  -0.717  0.00  0.00    +0.046 A 
ENDBRANCH  20  25
ENDBRANCH  15   8
ENDBRANCH  10  15
BRANCH  12  18
ATOM     18  C   UNL     1       8.349   7.157   6.683  0.00  0.00    +0.190 C 
BRANCH  18   4
ATOM      4  O   UNL     1       8.525   7.770   7.950  0.00  0.00    -0.392 OA
ATOM     32  H   UNL     1       7.876   7.371   8.554  0.00  0.00    +0.210 HD
ENDBRANCH  18   4
ENDBRANCH  12  18
TORSDOF 8
ENDMDL
MODEL 10
REMARK VINA RESULT:      -5.5     28.711     30.851
REMARK  Name = 75536044
REMARK  8 active torsions:
REMARK  status: ('A' for Active; 'I' for Inactive)
REMARK    1  A    between atoms: O_3  and  C_11
REMARK    2  A    between atoms: O_4  and  C_18
REMARK    3  A    between atoms: N_6  and  C_9
REMARK    4  A    between atoms: N_7  and  C_19
REMARK    5  A    between atoms: N_8  and  C_15
REMARK    6  A    between atoms: C_10  and  C_15
REMARK    7  A    between atoms: C_12  and  C_18
REMARK    8  A    between atoms: C_20  and  C_25
REMARK                            x       y       z     vdW  Elec       q    Type
REMARK                         _______ _______ _______ _____ _____    ______ ____
ROOT
ATOM      2  O   UNL     1      13.589   3.313  -0.867  0.00  0.00    -0.365 OA
ATOM      9  C   UNL     1      13.084   4.253   1.261  0.00  0.00    +0.118 C 
ATOM     10  C   UNL     1      12.533   3.395   0.115  0.00  0.00    +0.155 C 
ATOM     11  C   UNL     1      14.131   5.114   0.570  0.00  0.00    +0.165 C 
ATOM     12  C   UNL     1      14.703   4.114  -0.428  0.00  0.00    +0.174 C 
ENDROOT
BRANCH   9   6
ATOM      6  N   UNL     1      12.104   4.981   2.047  0.00  0.00    -0.292 NA
ATOM      7  N   UNL     1      10.823   5.876   4.438  0.00  0.00    -0.327 N 
ATOM     13  C   UNL     1      11.293   4.054   2.846  0.00  0.00    +0.104 C 
ATOM     14  C   UNL     1      12.767   5.951   2.927  0.00  0.00    +0.104 C 
ATOM     16  C   UNL     1      10.218   4.805   3.635  0.00  0.00    +0.120 C 
ATOM     17  C   UNL     1      11.742   6.764   3.720  0.00  0.00    +0.120 C 
BRANCH   7  19
ATOM     19  C   UNL     1      10.104   6.361   5.535  0.00  0.00    +0.030 A 
ATOM     21  C   UNL     1      10.151   5.685   6.755  0.00  0.00    +0.023 A 
ATOM     22  C   UNL     1       9.338   7.520   5.411  0.00  0.00    +0.023 A 
ATOM     23  C   UNL     1       9.434   6.169   7.849  0.00  0.00    +0.002 A 
ATOM     24  C   UNL     1       8.621   8.003   6.505  0.00  0.00    +0.002 A 
ATOM     26  C   UNL     1       8.668   7.328   7.724  0.00  0.00    +0.000 A 
ENDBRANCH   7  19
ENDBRANCH   9   6
BRANCH  11   3
ATOM      3  O   UNL     1      13.537   6.211  -0.112  0.00  0.00    -0.388 OA
ATOM     30  H   UNL     1      13.921   6.246  -1.003  0.00  0.00    +0.210 HD
ENDBRANCH  11   3
BRANCH  10  15
ATOM     15  C   UNL     1      11.292   3.921  -0.599  0.00  0.00    +0.137 C 
BRANCH  15   8
ATOM      5  O   UNL     1      10.168   2.014  -2.426  0.00  0.00    -0.270 OA
ATOM      8  N   UNL     1      11.464   3.895  -2.020  0.00  0.00    -0.308 N 
ATOM     20  C   UNL     1      10.878   2.928  -2.835  0.00  0.00    +0.251 C 
ATOM     31  H   UNL     1      12.052   4.607  -2.443  0.00  0.00    +0.149 HD
BRANCH  20  25
ATOM      1  S   UNL     1       9.877   3.144  -5.397  0.00  0.00    -0.092 S 
ATOM     25  C   UNL     1      11.176   3.023  -4.287  0.00  0.00    +0.074 A 
ATOM     27  C   UNL     1      12.399   3.028  -4.920  0.00  0.00    +0.021 A 
ATOM     28  C   UNL     1      12.269   3.134  -6.335  0.00  0.00    +0.008 A 
ATOM     29  C   UNL     1      10.950   3.205  -6.729  0.00  0.00    +0.046 A 
ENDBRANCH  20  25
ENDBRANCH  15   8
ENDBRANCH  10  15
BRANCH  12  18
ATOM     18  C   UNL     1      15.392   4.720  -1.638  0.00  0.00    +0.190 C 
BRANCH  18   4
ATOM      4  O   UNL     1      14.435   4.899  -2.669  0.00  0.00    -0.392 OA
ATOM     32  H   UNL     1      14.898   4.774  -3.515  0.00  0.00    +0.210 HD
ENDBRANCH  18   4
ENDBRANCH  12  18
TORSDOF 8
ENDMDL
