MODEL 1
REMARK VINA RESULT:      -6.9      0.000      0.000
REMARK  Name = 44716361
REMARK  10 active torsions:
REMARK  status: ('A' for Active; 'I' for Inactive)
REMARK    1  A    between atoms: O_1  and  C_15
REMARK    2  A    between atoms: O_1  and  C_20
REMARK    3  A    between atoms: N_4  and  C_18
REMARK    4  A    between atoms: N_6  and  C_26
REMARK    5  A    between atoms: C_8  and  C_14
REMARK    6  A    between atoms: C_9  and  C_15
REMARK    7  A    between atoms: C_17  and  C_19
REMARK    8  A    between atoms: C_33  and  C_36
REMARK    9  A    between atoms: C_36  and  C_37
REMARK   10  A    between atoms: C_36  and  C_38
REMARK                            x       y       z     vdW  Elec       q    Type
REMARK                         _______ _______ _______ _____ _____    ______ ____
ROOT
ATOM      3  N   UNL     1      13.833   4.943  -1.527  0.00  0.00    -0.296 NA
ATOM      7  C   UNL     1      12.181   3.417  -0.214  0.00  0.00    +0.002 C 
ATOM      8  C   UNL     1      11.553   4.818  -0.456  0.00  0.00    +0.055 C 
ATOM      9  C   UNL     1      14.527   4.322  -0.369  0.00  0.00    +0.095 C 
ATOM     10  C   UNL     1      13.518   3.581   0.537  0.00  0.00    +0.026 C 
ATOM     11  C   UNL     1      12.510   2.831  -1.603  0.00  0.00    +0.019 C 
ATOM     12  C   UNL     1      12.662   5.726  -1.058  0.00  0.00    +0.094 C 
ATOM     13  C   UNL     1      13.340   3.852  -2.401  0.00  0.00    +0.085 C 
ENDROOT
BRANCH   8  14
ATOM      4  N   UNL     1       9.963   6.533   0.531  0.00  0.00    -0.270 N 
ATOM      5  N   UNL     1       9.421   6.981   1.676  0.00  0.00    -0.171 NA
ATOM     14  C   UNL     1      10.822   5.487   0.699  0.00  0.00    +0.044 A 
ATOM     16  C   UNL     1      10.844   5.233   2.050  0.00  0.00    +0.053 A 
ATOM     17  C   UNL     1       9.963   6.182   2.600  0.00  0.00    +0.093 A 
ATOM     18  C   UNL     1       9.606   7.170  -0.716  0.00  0.00    +0.172 C 
BRANCH  17  19
ATOM     19  C   UNL     1       9.631   6.344   3.992  0.00  0.00    +0.003 A 
ATOM     21  C   UNL     1      10.011   5.371   4.917  0.00  0.00    +0.018 A 
ATOM     22  C   UNL     1       8.932   7.470   4.413  0.00  0.00    +0.011 A 
ATOM     23  C   UNL     1       9.694   5.514   6.278  0.00  0.00    -0.017 A 
ATOM     24  C   UNL     1       8.609   7.628   5.762  0.00  0.00    +0.009 A 
ATOM     25  C   UNL     1       8.983   6.659   6.706  0.00  0.00    -0.018 A 
ATOM     27  C   UNL     1      10.070   4.544   7.222  0.00  0.00    +0.008 A 
ATOM     28  C   UNL     1       8.667   6.801   8.068  0.00  0.00    +0.008 A 
ATOM     31  C   UNL     1       9.746   4.702   8.570  0.00  0.00    +0.001 A 
ATOM     32  C   UNL     1       9.047   5.829   8.992  0.00  0.00    +0.001 A 
ENDBRANCH  17  19
ENDBRANCH   8  14
BRANCH   9  15
ATOM     15  C   UNL     1      15.366   5.330   0.418  0.00  0.00    +0.252 C 
BRANCH  15   1
ATOM      1  O   UNL     1      15.012   5.235   1.785  0.00  0.00    -0.449 OA
BRANCH   1  20
ATOM      2  O   UNL     1      15.569   7.380   2.355  0.00  0.00    -0.226 OA
ATOM      6  N   UNL     1      13.664   6.328   3.219  0.00  0.00    -0.251 N 
ATOM     20  C   UNL     1      14.812   6.422   2.456  0.00  0.00    +0.405 C 
ATOM     39  H   UNL     1      13.165   5.443   3.173  0.00  0.00    +0.158 HD
BRANCH   6  26
ATOM     26  C   UNL     1      13.093   7.312   4.058  0.00  0.00    +0.036 A 
ATOM     29  C   UNL     1      12.605   8.497   3.511  0.00  0.00    +0.024 A 
ATOM     30  C   UNL     1      13.019   7.096   5.434  0.00  0.00    +0.024 A 
ATOM     33  C   UNL     1      11.969   9.253   5.716  0.00  0.00    -0.045 A 
ATOM     34  C   UNL     1      12.043   9.469   4.340  0.00  0.00    +0.006 A 
ATOM     35  C   UNL     1      12.457   8.066   6.263  0.00  0.00    +0.006 A 
BRANCH  33  36
ATOM     36  C   UNL     1      11.366  10.290   6.602  0.00  0.00    +0.013 C 
ATOM     37  C   UNL     1      10.108  10.933   5.985  0.00  0.00    +0.012 C 
ATOM     38  C   UNL     1      11.040   9.748   8.007  0.00  0.00    +0.012 C 
ENDBRANCH  33  36
ENDBRANCH   6  26
ENDBRANCH   1  20
ENDBRANCH  15   1
ENDBRANCH   9  15
TORSDOF 7
ENDMDL
MODEL 2
REMARK VINA RESULT:      -6.9     24.154     27.369
REMARK  Name = 44716361
REMARK  10 active torsions:
REMARK  status: ('A' for Active; 'I' for Inactive)
REMARK    1  A    between atoms: O_1  and  C_15
REMARK    2  A    between atoms: O_1  and  C_20
REMARK    3  A    between atoms: N_4  and  C_18
REMARK    4  A    between atoms: N_6  and  C_26
REMARK    5  A    between atoms: C_8  and  C_14
REMARK    6  A    between atoms: C_9  and  C_15
REMARK    7  A    between atoms: C_17  and  C_19
REMARK    8  A    between atoms: C_33  and  C_36
REMARK    9  A    between atoms: C_36  and  C_37
REMARK   10  A    between atoms: C_36  and  C_38
REMARK                            x       y       z     vdW  Elec       q    Type
REMARK                         _______ _______ _______ _____ _____    ______ ____
ROOT
ATOM      3  N   UNL     1      -6.378 -10.493  17.967  0.00  0.00    -0.296 NA
ATOM      7  C   UNL     1      -4.355 -12.012  17.347  0.00  0.00    +0.002 C 
ATOM      8  C   UNL     1      -4.234 -10.631  16.645  0.00  0.00    +0.055 C 
ATOM      9  C   UNL     1      -6.861 -11.826  17.522  0.00  0.00    +0.095 C 
ATOM     10  C   UNL     1      -5.696 -12.667  16.956  0.00  0.00    +0.026 C 
ATOM     11  C   UNL     1      -4.410 -11.736  18.865  0.00  0.00    +0.019 C 
ATOM     12  C   UNL     1      -5.563  -9.864  16.898  0.00  0.00    +0.094 C 
ATOM     13  C   UNL     1      -5.508 -10.697  19.151  0.00  0.00    +0.085 C 
ENDROOT
BRANCH   8  14
ATOM      4  N   UNL     1      -2.518 -10.549  14.776  0.00  0.00    -0.270 N 
ATOM      5  N   UNL     1      -2.366 -10.531  13.441  0.00  0.00    -0.171 NA
ATOM     14  C   UNL     1      -3.820 -10.603  15.180  0.00  0.00    +0.044 A 
ATOM     16  C   UNL     1      -4.571 -10.621  14.030  0.00  0.00    +0.053 A 
ATOM     17  C   UNL     1      -3.622 -10.576  12.991  0.00  0.00    +0.093 A 
ATOM     18  C   UNL     1      -1.348 -10.510  15.622  0.00  0.00    +0.172 C 
BRANCH  17  19
ATOM     19  C   UNL     1      -3.894 -10.572  11.577  0.00  0.00    +0.003 A 
ATOM     21  C   UNL     1      -3.979 -11.777  10.879  0.00  0.00    +0.018 A 
ATOM     22  C   UNL     1      -4.072  -9.366  10.907  0.00  0.00    +0.011 A 
ATOM     23  C   UNL     1      -4.243 -11.790   9.500  0.00  0.00    -0.017 A 
ATOM     24  C   UNL     1      -4.334  -9.360   9.537  0.00  0.00    +0.009 A 
ATOM     25  C   UNL     1      -4.423 -10.563   8.819  0.00  0.00    -0.018 A 
ATOM     27  C   UNL     1      -4.332 -12.994   8.783  0.00  0.00    +0.008 A 
ATOM     28  C   UNL     1      -4.687 -10.576   7.439  0.00  0.00    +0.008 A 
ATOM     31  C   UNL     1      -4.594 -12.988   7.412  0.00  0.00    +0.001 A 
ATOM     32  C   UNL     1      -4.772 -11.781   6.742  0.00  0.00    +0.001 A 
ENDBRANCH  17  19
ENDBRANCH   8  14
BRANCH   9  15
ATOM     15  C   UNL     1      -8.023 -11.724  16.532  0.00  0.00    +0.252 C 
BRANCH  15   1
ATOM      1  O   UNL     1      -7.566 -12.146  15.261  0.00  0.00    -0.449 OA
BRANCH   1  20
ATOM      2  O   UNL     1      -9.410 -11.320  14.190  0.00  0.00    -0.226 OA
ATOM      6  N   UNL     1      -7.352 -11.558  13.099  0.00  0.00    -0.251 N 
ATOM     20  C   UNL     1      -8.227 -11.637  14.166  0.00  0.00    +0.405 C 
ATOM     39  H   UNL     1      -6.401 -11.872  13.274  0.00  0.00    +0.158 HD
BRANCH   6  26
ATOM     26  C   UNL     1      -7.615 -11.094  11.790  0.00  0.00    +0.036 A 
ATOM     29  C   UNL     1      -7.757 -12.003  10.743  0.00  0.00    +0.024 A 
ATOM     30  C   UNL     1      -7.732  -9.725  11.547  0.00  0.00    +0.024 A 
ATOM     33  C   UNL     1      -8.133 -10.177   9.208  0.00  0.00    -0.045 A 
ATOM     34  C   UNL     1      -8.016 -11.545   9.451  0.00  0.00    +0.006 A 
ATOM     35  C   UNL     1      -7.991  -9.266  10.255  0.00  0.00    +0.006 A 
BRANCH  33  36
ATOM     36  C   UNL     1      -8.412  -9.687   7.826  0.00  0.00    +0.013 C 
ATOM     37  C   UNL     1      -7.515  -8.497   7.431  0.00  0.00    +0.012 C 
ATOM     38  C   UNL     1      -8.294 -10.803   6.771  0.00  0.00    +0.012 C 
ENDBRANCH  33  36
ENDBRANCH   6  26
ENDBRANCH   1  20
ENDBRANCH  15   1
ENDBRANCH   9  15
TORSDOF 7
ENDMDL
MODEL 3
REMARK VINA RESULT:      -6.9     23.395     25.664
REMARK  Name = 44716361
REMARK  10 active torsions:
REMARK  status: ('A' for Active; 'I' for Inactive)
REMARK    1  A    between atoms: O_1  and  C_15
REMARK    2  A    between atoms: O_1  and  C_20
REMARK    3  A    between atoms: N_4  and  C_18
REMARK    4  A    between atoms: N_6  and  C_26
REMARK    5  A    between atoms: C_8  and  C_14
REMARK    6  A    between atoms: C_9  and  C_15
REMARK    7  A    between atoms: C_17  and  C_19
REMARK    8  A    between atoms: C_33  and  C_36
REMARK    9  A    between atoms: C_36  and  C_37
REMARK   10  A    between atoms: C_36  and  C_38
REMARK                            x       y       z     vdW  Elec       q    Type
REMARK                         _______ _______ _______ _____ _____    ______ ____
ROOT
ATOM      3  N   UNL     1     -10.266  -9.002   5.421  0.00  0.00    -0.296 NA
ATOM      7  C   UNL     1      -7.921  -8.026   4.842  0.00  0.00    +0.002 C 
ATOM      8  C   UNL     1      -7.818  -9.547   5.141  0.00  0.00    +0.055 C 
ATOM      9  C   UNL     1     -10.009  -7.782   6.231  0.00  0.00    +0.095 C 
ATOM     10  C   UNL     1      -8.549  -7.309   6.055  0.00  0.00    +0.026 C 
ATOM     11  C   UNL     1      -8.905  -7.870   3.663  0.00  0.00    +0.019 C 
ATOM     12  C   UNL     1      -9.205 -10.011   5.670  0.00  0.00    +0.094 C 
ATOM     13  C   UNL     1     -10.210  -8.618   3.990  0.00  0.00    +0.085 C 
ENDROOT
BRANCH   8  14
ATOM      4  N   UNL     1      -5.772 -10.973   5.617  0.00  0.00    -0.270 N 
ATOM      5  N   UNL     1      -4.840 -11.262   6.540  0.00  0.00    -0.171 NA
ATOM     14  C   UNL     1      -6.673 -10.031   6.020  0.00  0.00    +0.044 A 
ATOM     16  C   UNL     1      -6.304  -9.680   7.296  0.00  0.00    +0.053 A 
ATOM     17  C   UNL     1      -5.169 -10.468   7.562  0.00  0.00    +0.093 A 
ATOM     18  C   UNL     1      -5.741 -11.653   4.343  0.00  0.00    +0.172 C 
BRANCH  17  19
ATOM     19  C   UNL     1      -4.396 -10.481   8.777  0.00  0.00    +0.003 A 
ATOM     21  C   UNL     1      -4.195 -11.679   9.463  0.00  0.00    +0.018 A 
ATOM     22  C   UNL     1      -3.848  -9.299   9.265  0.00  0.00    +0.011 A 
ATOM     23  C   UNL     1      -3.444 -11.708  10.649  0.00  0.00    -0.017 A 
ATOM     24  C   UNL     1      -3.099  -9.310  10.442  0.00  0.00    +0.009 A 
ATOM     25  C   UNL     1      -2.888 -10.506  11.145  0.00  0.00    -0.018 A 
ATOM     27  C   UNL     1      -3.232 -12.906  11.353  0.00  0.00    +0.008 A 
ATOM     28  C   UNL     1      -2.135 -10.536  12.332  0.00  0.00    +0.008 A 
ATOM     31  C   UNL     1      -2.483 -12.916  12.530  0.00  0.00    +0.001 A 
ATOM     32  C   UNL     1      -1.935 -11.733  13.018  0.00  0.00    +0.001 A 
ENDBRANCH  17  19
ENDBRANCH   8  14
BRANCH   9  15
ATOM     15  C   UNL     1     -10.373  -7.974   7.704  0.00  0.00    +0.252 C 
BRANCH  15   1
ATOM      1  O   UNL     1      -9.203  -7.794   8.480  0.00  0.00    -0.449 OA
BRANCH   1  20
ATOM      2  O   UNL     1     -10.061  -8.963  10.249  0.00  0.00    -0.226 OA
ATOM      6  N   UNL     1      -7.754  -8.783   9.892  0.00  0.00    -0.251 N 
ATOM     20  C   UNL     1      -9.091  -8.563   9.618  0.00  0.00    +0.405 C 
ATOM     39  H   UNL     1      -7.088  -8.365   9.247  0.00  0.00    +0.158 HD
BRANCH   6  26
ATOM     26  C   UNL     1      -7.195  -9.517  10.962  0.00  0.00    +0.036 A 
ATOM     29  C   UNL     1      -7.400 -10.893  11.046  0.00  0.00    +0.024 A 
ATOM     30  C   UNL     1      -6.436  -8.864  11.934  0.00  0.00    +0.024 A 
ATOM     33  C   UNL     1      -6.090 -10.966  13.074  0.00  0.00    -0.045 A 
ATOM     34  C   UNL     1      -6.848 -11.619  12.102  0.00  0.00    +0.006 A 
ATOM     35  C   UNL     1      -5.883  -9.589  12.990  0.00  0.00    +0.006 A 
BRANCH  33  36
ATOM     36  C   UNL     1      -5.498 -11.741  14.202  0.00  0.00    +0.013 C 
ATOM     37  C   UNL     1      -5.343 -10.895  15.481  0.00  0.00    +0.012 C 
ATOM     38  C   UNL     1      -6.293 -13.023  14.518  0.00  0.00    +0.012 C 
ENDBRANCH  33  36
ENDBRANCH   6  26
ENDBRANCH   1  20
ENDBRANCH  15   1
ENDBRANCH   9  15
TORSDOF 7
ENDMDL
MODEL 4
REMARK VINA RESULT:      -6.8     23.955     28.410
REMARK  Name = 44716361
REMARK  10 active torsions:
REMARK  status: ('A' for Active; 'I' for Inactive)
REMARK    1  A    between atoms: O_1  and  C_15
REMARK    2  A    between atoms: O_1  and  C_20
REMARK    3  A    between atoms: N_4  and  C_18
REMARK    4  A    between atoms: N_6  and  C_26
REMARK    5  A    between atoms: C_8  and  C_14
REMARK    6  A    between atoms: C_9  and  C_15
REMARK    7  A    between atoms: C_17  and  C_19
REMARK    8  A    between atoms: C_33  and  C_36
REMARK    9  A    between atoms: C_36  and  C_37
REMARK   10  A    between atoms: C_36  and  C_38
REMARK                            x       y       z     vdW  Elec       q    Type
REMARK                         _______ _______ _______ _____ _____    ______ ____
ROOT
ATOM      3  N   UNL     1      14.951  -7.325  32.238  0.00  0.00    -0.296 NA
ATOM      7  C   UNL     1      13.375  -7.209  30.168  0.00  0.00    +0.002 C 
ATOM      8  C   UNL     1      14.665  -8.005  29.825  0.00  0.00    +0.055 C 
ATOM      9  C   UNL     1      14.525  -5.921  32.002  0.00  0.00    +0.095 C 
ATOM     10  C   UNL     1      13.761  -5.801  30.665  0.00  0.00    +0.026 C 
ATOM     11  C   UNL     1      12.703  -7.939  31.350  0.00  0.00    +0.019 C 
ATOM     12  C   UNL     1      15.634  -7.859  31.032  0.00  0.00    +0.094 C 
ATOM     13  C   UNL     1      13.734  -8.137  32.476  0.00  0.00    +0.085 C 
ENDROOT
BRANCH   8  14
ATOM      4  N   UNL     1      15.901  -8.702  27.721  0.00  0.00    -0.270 N 
ATOM      5  N   UNL     1      16.458  -8.247  26.586  0.00  0.00    -0.171 NA
ATOM     14  C   UNL     1      15.350  -7.724  28.495  0.00  0.00    +0.044 A 
ATOM     16  C   UNL     1      15.562  -6.546  27.820  0.00  0.00    +0.053 A 
ATOM     17  C   UNL     1      16.247  -6.930  26.652  0.00  0.00    +0.093 A 
ATOM     18  C   UNL     1      15.935 -10.118  28.006  0.00  0.00    +0.172 C 
BRANCH  17  19
ATOM     19  C   UNL     1      16.707  -6.061  25.600  0.00  0.00    +0.003 A 
ATOM     21  C   UNL     1      16.330  -4.719  25.588  0.00  0.00    +0.018 A 
ATOM     22  C   UNL     1      17.530  -6.562  24.595  0.00  0.00    +0.011 A 
ATOM     23  C   UNL     1      16.770  -3.859  24.569  0.00  0.00    -0.017 A 
ATOM     24  C   UNL     1      17.976  -5.722  23.575  0.00  0.00    +0.009 A 
ATOM     25  C   UNL     1      17.605  -4.368  23.547  0.00  0.00    -0.018 A 
ATOM     27  C   UNL     1      16.399  -2.504  24.542  0.00  0.00    +0.008 A 
ATOM     28  C   UNL     1      18.046  -3.508  22.527  0.00  0.00    +0.008 A 
ATOM     31  C   UNL     1      16.845  -1.665  23.521  0.00  0.00    +0.001 A 
ATOM     32  C   UNL     1      17.668  -2.166  22.516  0.00  0.00    +0.001 A 
ENDBRANCH  17  19
ENDBRANCH   8  14
BRANCH   9  15
ATOM     15  C   UNL     1      15.693  -4.936  32.082  0.00  0.00    +0.252 C 
BRANCH  15   1
ATOM      1  O   UNL     1      15.272  -3.700  31.536  0.00  0.00    -0.449 OA
BRANCH   1  20
ATOM      2  O   UNL     1      16.381  -1.841  30.797  0.00  0.00    -0.226 OA
ATOM      6  N   UNL     1      16.755  -3.954  29.861  0.00  0.00    -0.251 N 
ATOM     20  C   UNL     1      16.171  -3.045  30.723  0.00  0.00    +0.405 C 
ATOM     39  H   UNL     1      16.448  -4.920  29.951  0.00  0.00    +0.158 HD
BRANCH   6  26
ATOM     26  C   UNL     1      17.728  -3.708  28.866  0.00  0.00    +0.036 A 
ATOM     29  C   UNL     1      17.763  -2.477  28.214  0.00  0.00    +0.024 A 
ATOM     30  C   UNL     1      18.653  -4.699  28.537  0.00  0.00    +0.024 A 
ATOM     33  C   UNL     1      19.648  -3.225  26.902  0.00  0.00    -0.045 A 
ATOM     34  C   UNL     1      18.723  -2.234  27.231  0.00  0.00    +0.006 A 
ATOM     35  C   UNL     1      19.613  -4.458  27.554  0.00  0.00    +0.006 A 
BRANCH  33  36
ATOM     36  C   UNL     1      20.676  -2.966  25.852  0.00  0.00    +0.013 C 
ATOM     37  C   UNL     1      20.943  -4.202  24.971  0.00  0.00    +0.012 C 
ATOM     38  C   UNL     1      20.319  -1.759  24.964  0.00  0.00    +0.012 C 
ENDBRANCH  33  36
ENDBRANCH   6  26
ENDBRANCH   1  20
ENDBRANCH  15   1
ENDBRANCH   9  15
TORSDOF 7
ENDMDL
MODEL 5
REMARK VINA RESULT:      -6.6     24.527     27.927
REMARK  Name = 44716361
REMARK  10 active torsions:
REMARK  status: ('A' for Active; 'I' for Inactive)
REMARK    1  A    between atoms: O_1  and  C_15
REMARK    2  A    between atoms: O_1  and  C_20
REMARK    3  A    between atoms: N_4  and  C_18
REMARK    4  A    between atoms: N_6  and  C_26
REMARK    5  A    between atoms: C_8  and  C_14
REMARK    6  A    between atoms: C_9  and  C_15
REMARK    7  A    between atoms: C_17  and  C_19
REMARK    8  A    between atoms: C_33  and  C_36
REMARK    9  A    between atoms: C_36  and  C_37
REMARK   10  A    between atoms: C_36  and  C_38
REMARK                            x       y       z     vdW  Elec       q    Type
REMARK                         _______ _______ _______ _____ _____    ______ ____
ROOT
ATOM      3  N   UNL     1      -5.818 -10.530   9.446  0.00  0.00    -0.296 NA
ATOM      7  C   UNL     1      -4.132  -9.002  10.713  0.00  0.00    +0.002 C 
ATOM      8  C   UNL     1      -4.094 -10.446  11.285  0.00  0.00    +0.055 C 
ATOM      9  C   UNL     1      -6.493  -9.278   9.878  0.00  0.00    +0.095 C 
ATOM     10  C   UNL     1      -5.572  -8.455  10.805  0.00  0.00    +0.026 C 
ATOM     11  C   UNL     1      -3.783  -9.108   9.213  0.00  0.00    +0.019 C 
ATOM     12  C   UNL     1      -5.257 -11.238  10.624  0.00  0.00    +0.094 C 
ATOM     13  C   UNL     1      -4.695 -10.157   8.553  0.00  0.00    +0.085 C 
ENDROOT
BRANCH   8  14
ATOM      4  N   UNL     1      -2.915 -10.543  13.531  0.00  0.00    -0.270 N 
ATOM      5  N   UNL     1      -3.102 -10.725  14.850  0.00  0.00    -0.171 NA
ATOM     14  C   UNL     1      -4.062 -10.619  12.797  0.00  0.00    +0.044 A 
ATOM     16  C   UNL     1      -5.069 -10.868  13.698  0.00  0.00    +0.053 A 
ATOM     17  C   UNL     1      -4.419 -10.922  14.945  0.00  0.00    +0.093 A 
ATOM     18  C   UNL     1      -1.582 -10.297  13.033  0.00  0.00    +0.172 C 
BRANCH  17  19
ATOM     19  C   UNL     1      -5.031 -11.163  16.226  0.00  0.00    +0.003 A 
ATOM     21  C   UNL     1      -6.038 -12.120  16.349  0.00  0.00    +0.018 A 
ATOM     22  C   UNL     1      -4.618 -10.440  17.341  0.00  0.00    +0.011 A 
ATOM     23  C   UNL     1      -6.646 -12.367  17.591  0.00  0.00    -0.017 A 
ATOM     24  C   UNL     1      -5.211 -10.671  18.582  0.00  0.00    +0.009 A 
ATOM     25  C   UNL     1      -6.226 -11.631  18.724  0.00  0.00    -0.018 A 
ATOM     27  C   UNL     1      -7.660 -13.328  17.732  0.00  0.00    +0.008 A 
ATOM     28  C   UNL     1      -6.834 -11.878  19.967  0.00  0.00    +0.008 A 
ATOM     31  C   UNL     1      -8.253 -13.558  18.974  0.00  0.00    +0.001 A 
ATOM     32  C   UNL     1      -7.840 -12.835  20.089  0.00  0.00    +0.001 A 
ENDBRANCH  17  19
ENDBRANCH   8  14
BRANCH   9  15
ATOM     15  C   UNL     1      -7.857  -9.542  10.518  0.00  0.00    +0.252 C 
BRANCH  15   1
ATOM      1  O   UNL     1      -7.825  -9.065  11.851  0.00  0.00    -0.449 OA
BRANCH   1  20
ATOM      2  O   UNL     1      -8.995 -10.905  12.540  0.00  0.00    -0.226 OA
ATOM      6  N   UNL     1      -8.437  -9.174  14.014  0.00  0.00    -0.251 N 
ATOM     20  C   UNL     1      -8.478  -9.825  12.796  0.00  0.00    +0.405 C 
ATOM     39  H   UNL     1      -7.957  -8.277  14.029  0.00  0.00    +0.158 HD
BRANCH   6  26
ATOM     26  C   UNL     1      -8.983  -9.599  15.247  0.00  0.00    +0.036 A 
ATOM     29  C   UNL     1      -8.413  -9.172  16.445  0.00  0.00    +0.024 A 
ATOM     30  C   UNL     1     -10.091 -10.446  15.263  0.00  0.00    +0.024 A 
ATOM     33  C   UNL     1     -10.059 -10.440  17.678  0.00  0.00    -0.045 A 
ATOM     34  C   UNL     1      -8.951  -9.593  17.662  0.00  0.00    +0.006 A 
ATOM     35  C   UNL     1     -10.629 -10.867  16.479  0.00  0.00    +0.006 A 
BRANCH  33  36
ATOM     36  C   UNL     1     -10.636 -10.888  18.979  0.00  0.00    +0.013 C 
ATOM     37  C   UNL     1     -11.399  -9.762  19.704  0.00  0.00    +0.012 C 
ATOM     38  C   UNL     1     -11.546 -12.121  18.827  0.00  0.00    +0.012 C 
ENDBRANCH  33  36
ENDBRANCH   6  26
ENDBRANCH   1  20
ENDBRANCH  15   1
ENDBRANCH   9  15
TORSDOF 7
ENDMDL
MODEL 6
REMARK VINA RESULT:      -6.4     32.983     36.175
REMARK  Name = 44716361
REMARK  10 active torsions:
REMARK  status: ('A' for Active; 'I' for Inactive)
REMARK    1  A    between atoms: O_1  and  C_15
REMARK    2  A    between atoms: O_1  and  C_20
REMARK    3  A    between atoms: N_4  and  C_18
REMARK    4  A    between atoms: N_6  and  C_26
REMARK    5  A    between atoms: C_8  and  C_14
REMARK    6  A    between atoms: C_9  and  C_15
REMARK    7  A    between atoms: C_17  and  C_19
REMARK    8  A    between atoms: C_33  and  C_36
REMARK    9  A    between atoms: C_36  and  C_37
REMARK   10  A    between atoms: C_36  and  C_38
REMARK                            x       y       z     vdW  Elec       q    Type
REMARK                         _______ _______ _______ _____ _____    ______ ____
ROOT
ATOM      3  N   UNL     1       5.850  -3.531  38.326  0.00  0.00    -0.296 NA
ATOM      7  C   UNL     1       8.134  -4.777  38.430  0.00  0.00    +0.002 C 
ATOM      8  C   UNL     1       7.870  -4.247  36.994  0.00  0.00    +0.055 C 
ATOM      9  C   UNL     1       5.676  -4.858  38.972  0.00  0.00    +0.095 C 
ATOM     10  C   UNL     1       6.970  -5.694  38.858  0.00  0.00    +0.026 C 
ATOM     11  C   UNL     1       8.116  -3.552  39.368  0.00  0.00    +0.019 C 
ATOM     12  C   UNL     1       6.415  -3.699  36.963  0.00  0.00    +0.094 C 
ATOM     13  C   UNL     1       6.820  -2.755  39.135  0.00  0.00    +0.085 C 
ENDROOT
BRANCH   8  14
ATOM      4  N   UNL     1       9.401  -5.280  35.253  0.00  0.00    -0.270 N 
ATOM      5  N   UNL     1       9.452  -6.149  34.229  0.00  0.00    -0.171 NA
ATOM     14  C   UNL     1       8.165  -5.170  35.821  0.00  0.00    +0.044 A 
ATOM     16  C   UNL     1       7.352  -6.026  35.118  0.00  0.00    +0.053 A 
ATOM     17  C   UNL     1       8.198  -6.601  34.152  0.00  0.00    +0.093 A 
ATOM     18  C   UNL     1      10.600  -4.574  35.642  0.00  0.00    +0.172 C 
BRANCH  17  19
ATOM     19  C   UNL     1       7.830  -7.572  33.154  0.00  0.00    +0.003 A 
ATOM     21  C   UNL     1       8.692  -8.628  32.858  0.00  0.00    +0.018 A 
ATOM     22  C   UNL     1       6.615  -7.456  32.486  0.00  0.00    +0.011 A 
ATOM     23  C   UNL     1       8.348  -9.583  31.887  0.00  0.00    -0.017 A 
ATOM     24  C   UNL     1       6.258  -8.396  31.519  0.00  0.00    +0.009 A 
ATOM     25  C   UNL     1       7.113  -9.465  31.208  0.00  0.00    -0.018 A 
ATOM     27  C   UNL     1       9.204 -10.653  31.577  0.00  0.00    +0.008 A 
ATOM     28  C   UNL     1       6.769 -10.421  30.237  0.00  0.00    +0.008 A 
ATOM     31  C   UNL     1       8.846 -11.592  30.609  0.00  0.00    +0.001 A 
ATOM     32  C   UNL     1       7.631 -11.476  29.941  0.00  0.00    +0.001 A 
ENDBRANCH  17  19
ENDBRANCH   8  14
BRANCH   9  15
ATOM     15  C   UNL     1       4.460  -5.614  38.433  0.00  0.00    +0.252 C 
BRANCH  15   1
ATOM      1  O   UNL     1       4.234  -6.742  39.257  0.00  0.00    -0.449 OA
BRANCH   1  20
ATOM      2  O   UNL     1       4.409  -9.021  39.332  0.00  0.00    -0.226 OA
ATOM      6  N   UNL     1       4.840  -7.815  37.373  0.00  0.00    -0.251 N 
ATOM     20  C   UNL     1       4.491  -7.976  38.701  0.00  0.00    +0.405 C 
ATOM     39  H   UNL     1       4.853  -6.859  37.024  0.00  0.00    +0.158 HD
BRANCH   6  26
ATOM     26  C   UNL     1       5.182  -8.816  36.436  0.00  0.00    +0.036 A 
ATOM     29  C   UNL     1       6.468  -9.352  36.426  0.00  0.00    +0.024 A 
ATOM     30  C   UNL     1       4.231  -9.267  35.520  0.00  0.00    +0.024 A 
ATOM     33  C   UNL     1       5.855 -10.791  34.585  0.00  0.00    -0.045 A 
ATOM     34  C   UNL     1       6.806 -10.340  35.501  0.00  0.00    +0.006 A 
ATOM     35  C   UNL     1       4.567 -10.255  34.594  0.00  0.00    +0.006 A 
BRANCH  33  36
ATOM     36  C   UNL     1       6.215 -11.848  33.596  0.00  0.00    +0.013 C 
ATOM     37  C   UNL     1       7.415 -12.699  34.055  0.00  0.00    +0.012 C 
ATOM     38  C   UNL     1       5.025 -12.765  33.255  0.00  0.00    +0.012 C 
ENDBRANCH  33  36
ENDBRANCH   6  26
ENDBRANCH   1  20
ENDBRANCH  15   1
ENDBRANCH   9  15
TORSDOF 7
ENDMDL
MODEL 7
REMARK VINA RESULT:      -6.4     25.376     29.303
REMARK  Name = 44716361
REMARK  10 active torsions:
REMARK  status: ('A' for Active; 'I' for Inactive)
REMARK    1  A    between atoms: O_1  and  C_15
REMARK    2  A    between atoms: O_1  and  C_20
REMARK    3  A    between atoms: N_4  and  C_18
REMARK    4  A    between atoms: N_6  and  C_26
REMARK    5  A    between atoms: C_8  and  C_14
REMARK    6  A    between atoms: C_9  and  C_15
REMARK    7  A    between atoms: C_17  and  C_19
REMARK    8  A    between atoms: C_33  and  C_36
REMARK    9  A    between atoms: C_36  and  C_37
REMARK   10  A    between atoms: C_36  and  C_38
REMARK                            x       y       z     vdW  Elec       q    Type
REMARK                         _______ _______ _______ _____ _____    ______ ____
ROOT
ATOM      3  N   UNL     1     -11.509 -12.181  18.684  0.00  0.00    -0.296 NA
ATOM      7  C   UNL     1     -11.582  -9.745  17.765  0.00  0.00    +0.002 C 
ATOM      8  C   UNL     1     -11.349 -10.756  16.608  0.00  0.00    +0.055 C 
ATOM      9  C   UNL     1     -10.603 -11.311  19.478  0.00  0.00    +0.095 C 
ATOM     10  C   UNL     1     -10.474  -9.918  18.824  0.00  0.00    +0.026 C 
ATOM     11  C   UNL     1     -12.916 -10.137  18.436  0.00  0.00    +0.019 C 
ATOM     12  C   UNL     1     -11.117 -12.152  17.252  0.00  0.00    +0.094 C 
ATOM     13  C   UNL     1     -12.882 -11.632  18.798  0.00  0.00    +0.085 C 
ENDROOT
BRANCH   8  14
ATOM      4  N   UNL     1     -10.321  -9.273  14.823  0.00  0.00    -0.270 N 
ATOM      5  N   UNL     1      -9.303  -9.166  13.953  0.00  0.00    -0.171 NA
ATOM     14  C   UNL     1     -10.297 -10.420  15.561  0.00  0.00    +0.044 A 
ATOM     16  C   UNL     1      -9.185 -11.111  15.145  0.00  0.00    +0.053 A 
ATOM     17  C   UNL     1      -8.612 -10.291  14.155  0.00  0.00    +0.093 A 
ATOM     18  C   UNL     1     -11.304  -8.217  14.894  0.00  0.00    +0.172 C 
BRANCH  17  19
ATOM     19  C   UNL     1      -7.419 -10.564  13.396  0.00  0.00    +0.003 A 
ATOM     21  C   UNL     1      -6.826  -9.551  12.641  0.00  0.00    +0.018 A 
ATOM     22  C   UNL     1      -6.858 -11.837  13.416  0.00  0.00    +0.011 A 
ATOM     23  C   UNL     1      -5.663  -9.801  11.895  0.00  0.00    -0.017 A 
ATOM     24  C   UNL     1      -5.703 -12.102  12.680  0.00  0.00    +0.009 A 
ATOM     25  C   UNL     1      -5.093 -11.095  11.915  0.00  0.00    -0.018 A 
ATOM     27  C   UNL     1      -5.053  -8.793  11.130  0.00  0.00    +0.008 A 
ATOM     28  C   UNL     1      -3.929 -11.345  11.168  0.00  0.00    +0.008 A 
ATOM     31  C   UNL     1      -3.898  -9.060  10.394  0.00  0.00    +0.001 A 
ATOM     32  C   UNL     1      -3.337 -10.333  10.414  0.00  0.00    +0.001 A 
ENDBRANCH  17  19
ENDBRANCH   8  14
BRANCH   9  15
ATOM     15  C   UNL     1      -9.237 -11.957  19.717  0.00  0.00    +0.252 C 
BRANCH  15   1
ATOM      1  O   UNL     1      -8.325 -10.945  20.101  0.00  0.00    -0.449 OA
BRANCH   1  20
ATOM      2  O   UNL     1      -6.062 -11.185  20.328  0.00  0.00    -0.226 OA
ATOM      6  N   UNL     1      -7.076 -10.970  18.229  0.00  0.00    -0.251 N 
ATOM     20  C   UNL     1      -7.043 -11.047  19.608  0.00  0.00    +0.405 C 
ATOM     39  H   UNL     1      -7.994 -10.854  17.807  0.00  0.00    +0.158 HD
BRANCH   6  26
ATOM     26  C   UNL     1      -5.989 -11.031  17.328  0.00  0.00    +0.036 A 
ATOM     29  C   UNL     1      -5.595  -9.889  16.632  0.00  0.00    +0.024 A 
ATOM     30  C   UNL     1      -5.310 -12.234  17.136  0.00  0.00    +0.024 A 
ATOM     33  C   UNL     1      -3.843 -11.153  15.550  0.00  0.00    -0.045 A 
ATOM     34  C   UNL     1      -4.522  -9.949  15.742  0.00  0.00    +0.006 A 
ATOM     35  C   UNL     1      -4.237 -12.296  16.246  0.00  0.00    +0.006 A 
BRANCH  33  36
ATOM     36  C   UNL     1      -2.695 -11.217  14.600  0.00  0.00    +0.013 C 
ATOM     37  C   UNL     1      -1.483 -10.398  15.084  0.00  0.00    +0.012 C 
ATOM     38  C   UNL     1      -2.260 -12.664  14.298  0.00  0.00    +0.012 C 
ENDBRANCH  33  36
ENDBRANCH   6  26
ENDBRANCH   1  20
ENDBRANCH  15   1
ENDBRANCH   9  15
TORSDOF 7
ENDMDL
MODEL 8
REMARK VINA RESULT:      -6.3     26.552     30.672
REMARK  Name = 44716361
REMARK  10 active torsions:
REMARK  status: ('A' for Active; 'I' for Inactive)
REMARK    1  A    between atoms: O_1  and  C_15
REMARK    2  A    between atoms: O_1  and  C_20
REMARK    3  A    between atoms: N_4  and  C_18
REMARK    4  A    between atoms: N_6  and  C_26
REMARK    5  A    between atoms: C_8  and  C_14
REMARK    6  A    between atoms: C_9  and  C_15
REMARK    7  A    between atoms: C_17  and  C_19
REMARK    8  A    between atoms: C_33  and  C_36
REMARK    9  A    between atoms: C_36  and  C_37
REMARK   10  A    between atoms: C_36  and  C_38
REMARK                            x       y       z     vdW  Elec       q    Type
REMARK                         _______ _______ _______ _____ _____    ______ ____
ROOT
ATOM      3  N   UNL     1     -12.910 -11.664  18.692  0.00  0.00    -0.296 NA
ATOM      7  C   UNL     1     -11.283 -10.143  20.042  0.00  0.00    +0.002 C 
ATOM      8  C   UNL     1     -11.233  -9.786  18.530  0.00  0.00    +0.055 C 
ATOM      9  C   UNL     1     -12.049 -12.496  19.573  0.00  0.00    +0.095 C 
ATOM     10  C   UNL     1     -10.944 -11.637  20.224  0.00  0.00    +0.026 C 
ATOM     11  C   UNL     1     -12.745  -9.950  20.497  0.00  0.00    +0.019 C 
ATOM     12  C   UNL     1     -12.067 -10.857  17.773  0.00  0.00    +0.094 C 
ATOM     13  C   UNL     1     -13.676 -10.732  19.553  0.00  0.00    +0.085 C 
ENDROOT
BRANCH   8  14
ATOM      4  N   UNL     1      -9.573  -8.446  17.154  0.00  0.00    -0.270 N 
ATOM      5  N   UNL     1      -8.317  -8.433  16.677  0.00  0.00    -0.171 NA
ATOM     14  C   UNL     1      -9.871  -9.554  17.891  0.00  0.00    +0.044 A 
ATOM     16  C   UNL     1      -8.730 -10.320  17.895  0.00  0.00    +0.053 A 
ATOM     17  C   UNL     1      -7.808  -9.580  17.133  0.00  0.00    +0.093 A 
ATOM     18  C   UNL     1     -10.454  -7.339  16.858  0.00  0.00    +0.172 C 
BRANCH  17  19
ATOM     19  C   UNL     1      -6.449  -9.949  16.829  0.00  0.00    +0.003 A 
ATOM     21  C   UNL     1      -6.006  -9.950  15.507  0.00  0.00    +0.018 A 
ATOM     22  C   UNL     1      -5.580 -10.304  17.855  0.00  0.00    +0.011 A 
ATOM     23  C   UNL     1      -4.684 -10.307  15.194  0.00  0.00    -0.017 A 
ATOM     24  C   UNL     1      -4.263 -10.662  17.563  0.00  0.00    +0.009 A 
ATOM     25  C   UNL     1      -3.801 -10.669  16.237  0.00  0.00    -0.018 A 
ATOM     27  C   UNL     1      -4.222 -10.313  13.867  0.00  0.00    +0.008 A 
ATOM     28  C   UNL     1      -2.478 -11.026  15.924  0.00  0.00    +0.008 A 
ATOM     31  C   UNL     1      -2.905 -10.672  13.575  0.00  0.00    +0.001 A 
ATOM     32  C   UNL     1      -2.035 -11.027  14.602  0.00  0.00    +0.001 A 
ENDBRANCH  17  19
ENDBRANCH   8  14
BRANCH   9  15
ATOM     15  C   UNL     1     -11.472 -13.711  18.845  0.00  0.00    +0.252 C 
BRANCH  15   1
ATOM      1  O   UNL     1     -10.065 -13.694  18.994  0.00  0.00    -0.449 OA
BRANCH   1  20
ATOM      2  O   UNL     1      -9.659 -15.197  17.319  0.00  0.00    -0.226 OA
ATOM      6  N   UNL     1      -8.204 -13.417  17.757  0.00  0.00    -0.251 N 
ATOM     20  C   UNL     1      -9.326 -14.201  17.948  0.00  0.00    +0.405 C 
ATOM     39  H   UNL     1      -8.098 -12.624  18.386  0.00  0.00    +0.158 HD
BRANCH   6  26
ATOM     26  C   UNL     1      -7.182 -13.578  16.795  0.00  0.00    +0.036 A 
ATOM     29  C   UNL     1      -7.447 -13.333  15.449  0.00  0.00    +0.024 A 
ATOM     30  C   UNL     1      -5.908 -13.984  17.193  0.00  0.00    +0.024 A 
ATOM     33  C   UNL     1      -5.164 -13.898  14.896  0.00  0.00    -0.045 A 
ATOM     34  C   UNL     1      -6.438 -13.493  14.498  0.00  0.00    +0.006 A 
ATOM     35  C   UNL     1      -4.899 -14.144  16.243  0.00  0.00    +0.006 A 
BRANCH  33  36
ATOM     36  C   UNL     1      -4.085 -14.068  13.881  0.00  0.00    +0.013 C 
ATOM     37  C   UNL     1      -2.830 -14.747  14.463  0.00  0.00    +0.012 C 
ATOM     38  C   UNL     1      -4.564 -14.837  12.635  0.00  0.00    +0.012 C 
ENDBRANCH  33  36
ENDBRANCH   6  26
ENDBRANCH   1  20
ENDBRANCH  15   1
ENDBRANCH   9  15
TORSDOF 7
ENDMDL
MODEL 9
REMARK VINA RESULT:      -6.3     33.001     35.011
REMARK  Name = 44716361
REMARK  10 active torsions:
REMARK  status: ('A' for Active; 'I' for Inactive)
REMARK    1  A    between atoms: O_1  and  C_15
REMARK    2  A    between atoms: O_1  and  C_20
REMARK    3  A    between atoms: N_4  and  C_18
REMARK    4  A    between atoms: N_6  and  C_26
REMARK    5  A    between atoms: C_8  and  C_14
REMARK    6  A    between atoms: C_9  and  C_15
REMARK    7  A    between atoms: C_17  and  C_19
REMARK    8  A    between atoms: C_33  and  C_36
REMARK    9  A    between atoms: C_36  and  C_37
REMARK   10  A    between atoms: C_36  and  C_38
REMARK                            x       y       z     vdW  Elec       q    Type
REMARK                         _______ _______ _______ _____ _____    ______ ____
ROOT
ATOM      3  N   UNL     1       5.639 -15.950  30.812  0.00  0.00    -0.296 NA
ATOM      7  C   UNL     1       4.981 -13.795  29.507  0.00  0.00    +0.002 C 
ATOM      8  C   UNL     1       6.498 -13.784  29.844  0.00  0.00    +0.055 C 
ATOM      9  C   UNL     1       4.449 -15.320  31.440  0.00  0.00    +0.095 C 
ATOM     10  C   UNL     1       4.169 -13.937  30.810  0.00  0.00    +0.026 C 
ATOM     11  C   UNL     1       4.720 -15.065  28.669  0.00  0.00    +0.019 C 
ATOM     12  C   UNL     1       6.771 -14.989  30.788  0.00  0.00    +0.094 C 
ATOM     13  C   UNL     1       5.290 -16.287  29.411  0.00  0.00    +0.085 C 
ENDROOT
BRANCH   8  14
ATOM      4  N   UNL     1       8.432 -12.186  30.231  0.00  0.00    -0.270 N 
ATOM      5  N   UNL     1       8.771 -10.998  30.759  0.00  0.00    -0.171 NA
ATOM     14  C   UNL     1       7.109 -12.492  30.365  0.00  0.00    +0.044 A 
ATOM     16  C   UNL     1       6.544 -11.429  31.028  0.00  0.00    +0.053 A 
ATOM     17  C   UNL     1       7.614 -10.540  31.244  0.00  0.00    +0.093 A 
ATOM     18  C   UNL     1       9.449 -12.996  29.601  0.00  0.00    +0.172 C 
BRANCH  17  19
ATOM     19  C   UNL     1       7.552  -9.264  31.907  0.00  0.00    +0.003 A 
ATOM     21  C   UNL     1       8.656  -8.793  32.618  0.00  0.00    +0.018 A 
ATOM     22  C   UNL     1       6.391  -8.500  31.838  0.00  0.00    +0.011 A 
ATOM     23  C   UNL     1       8.612  -7.550  33.270  0.00  0.00    -0.017 A 
ATOM     24  C   UNL     1       6.330  -7.263  32.481  0.00  0.00    +0.009 A 
ATOM     25  C   UNL     1       7.432  -6.774  33.201  0.00  0.00    -0.018 A 
ATOM     27  C   UNL     1       9.715  -7.062  33.990  0.00  0.00    +0.008 A 
ATOM     28  C   UNL     1       7.388  -5.531  33.853  0.00  0.00    +0.008 A 
ATOM     31  C   UNL     1       9.653  -5.825  34.632  0.00  0.00    +0.001 A 
ATOM     32  C   UNL     1       8.492  -5.061  34.564  0.00  0.00    +0.001 A 
ENDBRANCH  17  19
ENDBRANCH   8  14
BRANCH   9  15
ATOM     15  C   UNL     1       4.568 -15.239  32.963  0.00  0.00    +0.252 C 
BRANCH  15   1
ATOM      1  O   UNL     1       3.853 -14.100  33.407  0.00  0.00    -0.449 OA
BRANCH   1  20
ATOM      2  O   UNL     1       4.594 -13.795  35.549  0.00  0.00    -0.226 OA
ATOM      6  N   UNL     1       4.773 -12.113  33.931  0.00  0.00    -0.251 N 
ATOM     20  C   UNL     1       4.432 -13.362  34.416  0.00  0.00    +0.405 C 
ATOM     39  H   UNL     1       4.556 -11.937  32.953  0.00  0.00    +0.158 HD
BRANCH   6  26
ATOM     26  C   UNL     1       5.387 -11.047  34.626  0.00  0.00    +0.036 A 
ATOM     29  C   UNL     1       6.719 -11.149  35.022  0.00  0.00    +0.024 A 
ATOM     30  C   UNL     1       4.658  -9.894  34.916  0.00  0.00    +0.024 A 
ATOM     33  C   UNL     1       6.597  -8.943  35.999  0.00  0.00    -0.045 A 
ATOM     34  C   UNL     1       7.326 -10.097  35.709  0.00  0.00    +0.006 A 
ATOM     35  C   UNL     1       5.264  -8.841  35.603  0.00  0.00    +0.006 A 
BRANCH  33  36
ATOM     36  C   UNL     1       7.245  -7.817  36.732  0.00  0.00    +0.013 C 
ATOM     37  C   UNL     1       6.238  -6.995  37.559  0.00  0.00    +0.012 C 
ATOM     38  C   UNL     1       8.400  -8.289  37.636  0.00  0.00    +0.012 C 
ENDBRANCH  33  36
ENDBRANCH   6  26
ENDBRANCH   1  20
ENDBRANCH  15   1
ENDBRANCH   9  15
TORSDOF 7
ENDMDL
MODEL 10
REMARK VINA RESULT:      -6.3     25.538     29.552
REMARK  Name = 44716361
REMARK  10 active torsions:
REMARK  status: ('A' for Active; 'I' for Inactive)
REMARK    1  A    between atoms: O_1  and  C_15
REMARK    2  A    between atoms: O_1  and  C_20
REMARK    3  A    between atoms: N_4  and  C_18
REMARK    4  A    between atoms: N_6  and  C_26
REMARK    5  A    between atoms: C_8  and  C_14
REMARK    6  A    between atoms: C_9  and  C_15
REMARK    7  A    between atoms: C_17  and  C_19
REMARK    8  A    between atoms: C_33  and  C_36
REMARK    9  A    between atoms: C_36  and  C_37
REMARK   10  A    between atoms: C_36  and  C_38
REMARK                            x       y       z     vdW  Elec       q    Type
REMARK                         _______ _______ _______ _____ _____    ______ ____
ROOT
ATOM      3  N   UNL     1     -11.708  -9.304  17.909  0.00  0.00    -0.296 NA
ATOM      7  C   UNL     1     -11.101 -11.651  18.861  0.00  0.00    +0.002 C 
ATOM      8  C   UNL     1      -9.880 -10.694  18.953  0.00  0.00    +0.055 C 
ATOM      9  C   UNL     1     -12.106 -10.362  16.943  0.00  0.00    +0.095 C 
ATOM     10  C   UNL     1     -11.570 -11.739  17.394  0.00  0.00    +0.026 C 
ATOM     11  C   UNL     1     -12.244 -10.994  19.664  0.00  0.00    +0.019 C 
ATOM     12  C   UNL     1     -10.253  -9.392  18.190  0.00  0.00    +0.094 C 
ATOM     13  C   UNL     1     -12.438  -9.547  19.176  0.00  0.00    +0.085 C 
ENDROOT
BRANCH   8  14
ATOM      4  N   UNL     1      -7.953 -12.338  19.114  0.00  0.00    -0.270 N 
ATOM      5  N   UNL     1      -6.742 -12.645  18.618  0.00  0.00    -0.171 NA
ATOM     14  C   UNL     1      -8.514 -11.230  18.549  0.00  0.00    +0.044 A 
ATOM     16  C   UNL     1      -7.608 -10.782  17.620  0.00  0.00    +0.053 A 
ATOM     17  C   UNL     1      -6.537 -11.692  17.706  0.00  0.00    +0.093 A 
ATOM     18  C   UNL     1      -8.523 -13.166  20.151  0.00  0.00    +0.172 C 
BRANCH  17  19
ATOM     19  C   UNL     1      -5.321 -11.665  16.936  0.00  0.00    +0.003 A 
ATOM     21  C   UNL     1      -5.012 -12.725  16.083  0.00  0.00    +0.018 A 
ATOM     22  C   UNL     1      -4.454 -10.582  17.041  0.00  0.00    +0.011 A 
ATOM     23  C   UNL     1      -3.830 -12.715  15.326  0.00  0.00    -0.017 A 
ATOM     24  C   UNL     1      -3.275 -10.555  16.296  0.00  0.00    +0.009 A 
ATOM     25  C   UNL     1      -2.949 -11.614  15.434  0.00  0.00    -0.018 A 
ATOM     27  C   UNL     1      -3.503 -13.774  14.463  0.00  0.00    +0.008 A 
ATOM     28  C   UNL     1      -1.766 -11.603  14.675  0.00  0.00    +0.008 A 
ATOM     31  C   UNL     1      -2.324 -13.747  13.718  0.00  0.00    +0.001 A 
ATOM     32  C   UNL     1      -1.457 -12.664  13.824  0.00  0.00    +0.001 A 
ENDBRANCH  17  19
ENDBRANCH   8  14
BRANCH   9  15
ATOM     15  C   UNL     1     -11.688 -10.029  15.510  0.00  0.00    +0.252 C 
BRANCH  15   1
ATOM      1  O   UNL     1     -10.686 -10.946  15.112  0.00  0.00    -0.449 OA
BRANCH   1  20
ATOM      2  O   UNL     1      -9.845  -9.457  13.594  0.00  0.00    -0.226 OA
ATOM      6  N   UNL     1      -8.593 -11.284  14.354  0.00  0.00    -0.251 N 
ATOM     20  C   UNL     1      -9.703 -10.463  14.277  0.00  0.00    +0.405 C 
ATOM     39  H   UNL     1      -8.666 -12.080  14.983  0.00  0.00    +0.158 HD
BRANCH   6  26
ATOM     26  C   UNL     1      -7.366 -11.155  13.665  0.00  0.00    +0.036 A 
ATOM     29  C   UNL     1      -6.549 -10.050  13.896  0.00  0.00    +0.024 A 
ATOM     30  C   UNL     1      -6.973 -12.135  12.753  0.00  0.00    +0.024 A 
ATOM     33  C   UNL     1      -4.945 -10.903  12.304  0.00  0.00    -0.045 A 
ATOM     34  C   UNL     1      -5.338  -9.923  13.216  0.00  0.00    +0.006 A 
ATOM     35  C   UNL     1      -5.762 -12.009  12.073  0.00  0.00    +0.006 A 
BRANCH  33  36
ATOM     36  C   UNL     1      -3.649 -10.768  11.578  0.00  0.00    +0.013 C 
ATOM     37  C   UNL     1      -3.333 -11.997  10.704  0.00  0.00    +0.012 C 
ATOM     38  C   UNL     1      -3.583  -9.488  10.722  0.00  0.00    +0.012 C 
ENDBRANCH  33  36
ENDBRANCH   6  26
ENDBRANCH   1  20
ENDBRANCH  15   1
ENDBRANCH   9  15
TORSDOF 7
ENDMDL
