MODEL 1
REMARK VINA RESULT:      -7.6      0.000      0.000
REMARK  Name = 51137813
REMARK  4 active torsions:
REMARK  status: ('A' for Active; 'I' for Inactive)
REMARK    1  A    between atoms: C_7  and  C_11
REMARK    2  A    between atoms: C_12  and  C_13
REMARK    3  A    between atoms: C_14  and  C_15
REMARK    4  A    between atoms: C_20  and  C_25
REMARK                            x       y       z     vdW  Elec       q    Type
REMARK                         _______ _______ _______ _____ _____    ______ ____
ROOT
ATOM      2  O   UNL     1      12.719  10.853  23.376  0.00  0.00    -0.268 OA
ATOM      3  N   UNL     1      11.855   9.626  21.603  0.00  0.00    -0.296 N 
ATOM      7  C   UNL     1      11.531   8.035  19.863  0.00  0.00    +0.095 C 
ATOM      8  C   UNL     1      11.477   7.328  21.226  0.00  0.00    +0.033 C 
ATOM      9  C   UNL     1      11.296   9.501  20.256  0.00  0.00    +0.121 C 
ATOM     10  C   UNL     1      12.131   8.319  22.179  0.00  0.00    +0.109 C 
ATOM     12  C   UNL     1      12.182  10.796  22.271  0.00  0.00    +0.265 C 
ENDROOT
BRANCH  12  13
ATOM      6  N   UNL     1      10.791  12.729  22.060  0.00  0.00    -0.250 NA
ATOM     13  C   UNL     1      11.879  12.069  21.601  0.00  0.00    +0.126 A 
ATOM     16  C   UNL     1      12.683  12.524  20.568  0.00  0.00    +0.033 A 
ATOM     19  C   UNL     1      12.351  13.734  19.970  0.00  0.00    +0.004 A 
ATOM     23  C   UNL     1      10.500  13.901  21.453  0.00  0.00    +0.111 A 
ATOM     24  C   UNL     1      11.240  14.443  20.415  0.00  0.00    +0.020 A 
ENDBRANCH  12  13
BRANCH   7  11
ATOM      1  O   UNL     1      13.909   7.422  19.884  0.00  0.00    -0.420 OA
ATOM      4  N   UNL     1      13.065   7.714  17.834  0.00  0.00    -0.112 NA
ATOM      5  N   UNL     1      14.398   7.376  17.703  0.00  0.00    -0.107 NA
ATOM     11  C   UNL     1      12.823   7.729  19.124  0.00  0.00    +0.222 A 
ATOM     14  C   UNL     1      14.851   7.214  18.924  0.00  0.00    +0.248 A 
BRANCH  14  15
ATOM     15  C   UNL     1      16.158   6.860  19.394  0.00  0.00    +0.038 A 
ATOM     17  C   UNL     1      16.711   7.527  20.487  0.00  0.00    +0.013 A 
ATOM     18  C   UNL     1      16.877   5.847  18.759  0.00  0.00    +0.013 A 
ATOM     20  C   UNL     1      18.702   6.169  20.309  0.00  0.00    -0.050 A 
ATOM     21  C   UNL     1      17.982   7.182  20.945  0.00  0.00    +0.004 A 
ATOM     22  C   UNL     1      18.149   5.501  19.216  0.00  0.00    +0.004 A 
ATOM     25  C   UNL     1      20.061   5.801  20.798  0.00  0.00    +0.044 C 
ENDBRANCH  14  15
ENDBRANCH   7  11
TORSDOF 3
ENDMDL
MODEL 2
REMARK VINA RESULT:      -7.2      1.710      2.410
REMARK  Name = 51137813
REMARK  4 active torsions:
REMARK  status: ('A' for Active; 'I' for Inactive)
REMARK    1  A    between atoms: C_7  and  C_11
REMARK    2  A    between atoms: C_12  and  C_13
REMARK    3  A    between atoms: C_14  and  C_15
REMARK    4  A    between atoms: C_20  and  C_25
REMARK                            x       y       z     vdW  Elec       q    Type
REMARK                         _______ _______ _______ _____ _____    ______ ____
ROOT
ATOM      2  O   UNL     1      11.119   9.112  23.034  0.00  0.00    -0.268 OA
ATOM      3  N   UNL     1      11.745   9.534  20.837  0.00  0.00    -0.296 N 
ATOM      7  C   UNL     1      12.468   9.312  18.580  0.00  0.00    +0.095 C 
ATOM      8  C   UNL     1      11.085   8.663  18.746  0.00  0.00    +0.033 C 
ATOM      9  C   UNL     1      12.545  10.217  19.819  0.00  0.00    +0.121 C 
ATOM     10  C   UNL     1      10.950   8.466  20.250  0.00  0.00    +0.109 C 
ATOM     12  C   UNL     1      11.754   9.761  22.204  0.00  0.00    +0.265 C 
ENDROOT
BRANCH  12  13
ATOM      6  N   UNL     1      13.890  10.529  22.957  0.00  0.00    -0.250 NA
ATOM     13  C   UNL     1      12.601  10.853  22.706  0.00  0.00    +0.126 A 
ATOM     16  C   UNL     1      12.070  12.119  22.896  0.00  0.00    +0.033 A 
ATOM     19  C   UNL     1      12.914  13.115  23.372  0.00  0.00    +0.004 A 
ATOM     23  C   UNL     1      14.680  11.524  23.419  0.00  0.00    +0.111 A 
ATOM     24  C   UNL     1      14.247  12.821  23.641  0.00  0.00    +0.020 A 
ENDBRANCH  12  13
BRANCH   7  11
ATOM      1  O   UNL     1      14.584   8.319  19.331  0.00  0.00    -0.420 OA
ATOM      4  N   UNL     1      13.683   7.302  17.554  0.00  0.00    -0.112 NA
ATOM      5  N   UNL     1      14.860   6.649  17.869  0.00  0.00    -0.107 NA
ATOM     11  C   UNL     1      13.562   8.269  18.433  0.00  0.00    +0.222 A 
ATOM     14  C   UNL     1      15.351   7.276  18.913  0.00  0.00    +0.248 A 
BRANCH  14  15
ATOM     15  C   UNL     1      16.548   7.036  19.665  0.00  0.00    +0.038 A 
ATOM     17  C   UNL     1      17.407   6.001  19.296  0.00  0.00    +0.013 A 
ATOM     18  C   UNL     1      16.856   7.838  20.764  0.00  0.00    +0.013 A 
ATOM     20  C   UNL     1      18.879   6.569  21.126  0.00  0.00    -0.050 A 
ATOM     21  C   UNL     1      18.572   5.767  20.026  0.00  0.00    +0.004 A 
ATOM     22  C   UNL     1      18.020   7.605  21.494  0.00  0.00    +0.004 A 
ATOM     25  C   UNL     1      20.124   6.319  21.907  0.00  0.00    +0.044 C 
ENDBRANCH  14  15
ENDBRANCH   7  11
TORSDOF 3
ENDMDL
MODEL 3
REMARK VINA RESULT:      -7.0      2.010      2.983
REMARK  Name = 51137813
REMARK  4 active torsions:
REMARK  status: ('A' for Active; 'I' for Inactive)
REMARK    1  A    between atoms: C_7  and  C_11
REMARK    2  A    between atoms: C_12  and  C_13
REMARK    3  A    between atoms: C_14  and  C_15
REMARK    4  A    between atoms: C_20  and  C_25
REMARK                            x       y       z     vdW  Elec       q    Type
REMARK                         _______ _______ _______ _____ _____    ______ ____
ROOT
ATOM      2  O   UNL     1      11.258   8.235  22.529  0.00  0.00    -0.268 OA
ATOM      3  N   UNL     1      12.437   8.443  20.539  0.00  0.00    -0.296 N 
ATOM      7  C   UNL     1      13.887   8.072  18.688  0.00  0.00    +0.095 C 
ATOM      8  C   UNL     1      12.736   7.054  18.655  0.00  0.00    +0.033 C 
ATOM      9  C   UNL     1      13.326   9.156  19.620  0.00  0.00    +0.121 C 
ATOM     10  C   UNL     1      12.173   7.091  20.069  0.00  0.00    +0.109 C 
ATOM     12  C   UNL     1      11.943   8.897  21.752  0.00  0.00    +0.265 C 
ENDROOT
BRANCH  12  13
ATOM      6  N   UNL     1      13.475  10.435  22.754  0.00  0.00    -0.250 NA
ATOM     13  C   UNL     1      12.277  10.273  22.149  0.00  0.00    +0.126 A 
ATOM     16  C   UNL     1      11.388  11.307  21.899  0.00  0.00    +0.033 A 
ATOM     19  C   UNL     1      11.754  12.589  22.295  0.00  0.00    +0.004 A 
ATOM     23  C   UNL     1      13.795  11.695  23.126  0.00  0.00    +0.111 A 
ATOM     24  C   UNL     1      12.979  12.796  22.920  0.00  0.00    +0.020 A 
ENDBRANCH  12  13
BRANCH   7  11
ATOM      1  O   UNL     1      15.943   8.094  20.030  0.00  0.00    -0.420 OA
ATOM      4  N   UNL     1      15.733   6.294  18.720  0.00  0.00    -0.112 NA
ATOM      5  N   UNL     1      16.923   6.180  19.413  0.00  0.00    -0.107 NA
ATOM     11  C   UNL     1      15.195   7.425  19.111  0.00  0.00    +0.222 A 
ATOM     14  C   UNL     1      17.004   7.253  20.166  0.00  0.00    +0.248 A 
BRANCH  14  15
ATOM     15  C   UNL     1      18.019   7.666  21.091  0.00  0.00    +0.038 A 
ATOM     17  C   UNL     1      18.145   9.013  21.431  0.00  0.00    +0.013 A 
ATOM     18  C   UNL     1      18.878   6.722  21.654  0.00  0.00    +0.013 A 
ATOM     20  C   UNL     1      19.991   8.471  22.893  0.00  0.00    -0.050 A 
ATOM     21  C   UNL     1      19.131   9.416  22.332  0.00  0.00    +0.004 A 
ATOM     22  C   UNL     1      19.863   7.124  22.554  0.00  0.00    +0.004 A 
ATOM     25  C   UNL     1      21.045   8.902  23.856  0.00  0.00    +0.044 C 
ENDBRANCH  14  15
ENDBRANCH   7  11
TORSDOF 3
ENDMDL
MODEL 4
REMARK VINA RESULT:      -6.8     27.508     29.835
REMARK  Name = 51137813
REMARK  4 active torsions:
REMARK  status: ('A' for Active; 'I' for Inactive)
REMARK    1  A    between atoms: C_7  and  C_11
REMARK    2  A    between atoms: C_12  and  C_13
REMARK    3  A    between atoms: C_14  and  C_15
REMARK    4  A    between atoms: C_20  and  C_25
REMARK                            x       y       z     vdW  Elec       q    Type
REMARK                         _______ _______ _______ _____ _____    ______ ____
ROOT
ATOM      2  O   UNL     1      -4.549 -13.997  15.564  0.00  0.00    -0.268 OA
ATOM      3  N   UNL     1      -4.698 -12.173  16.993  0.00  0.00    -0.296 N 
ATOM      7  C   UNL     1      -5.347 -10.656  18.709  0.00  0.00    +0.095 C 
ATOM      8  C   UNL     1      -4.750 -11.924  19.339  0.00  0.00    +0.033 C 
ATOM      9  C   UNL     1      -4.823 -10.740  17.268  0.00  0.00    +0.121 C 
ATOM     10  C   UNL     1      -4.806 -12.952  18.217  0.00  0.00    +0.109 C 
ATOM     12  C   UNL     1      -4.577 -12.783  15.754  0.00  0.00    +0.265 C 
ENDROOT
BRANCH  12  13
ATOM      6  N   UNL     1      -3.249 -11.484  14.249  0.00  0.00    -0.250 NA
ATOM     13  C   UNL     1      -4.490 -11.912  14.573  0.00  0.00    +0.126 A 
ATOM     16  C   UNL     1      -5.634 -11.576  13.867  0.00  0.00    +0.033 A 
ATOM     19  C   UNL     1      -5.495 -10.750  12.757  0.00  0.00    +0.004 A 
ATOM     23  C   UNL     1      -3.154 -10.682  13.165  0.00  0.00    +0.111 A 
ATOM     24  C   UNL     1      -4.235 -10.289  12.393  0.00  0.00    +0.020 A 
ENDBRANCH  12  13
BRANCH   7  11
ATOM      1  O   UNL     1      -7.536  -9.742  18.073  0.00  0.00    -0.420 OA
ATOM      4  N   UNL     1      -7.628 -11.270  19.704  0.00  0.00    -0.112 NA
ATOM      5  N   UNL     1      -8.916 -10.842  19.446  0.00  0.00    -0.107 NA
ATOM     11  C   UNL     1      -6.855 -10.602  18.880  0.00  0.00    +0.222 A 
ATOM     14  C   UNL     1      -8.815  -9.951  18.487  0.00  0.00    +0.248 A 
BRANCH  14  15
ATOM     15  C   UNL     1      -9.824  -9.180  17.822  0.00  0.00    +0.038 A 
ATOM     17  C   UNL     1     -11.163  -9.561  17.909  0.00  0.00    +0.013 A 
ATOM     18  C   UNL     1      -9.468  -8.048  17.089  0.00  0.00    +0.013 A 
ATOM     20  C   UNL     1     -11.788  -7.678  16.529  0.00  0.00    -0.050 A 
ATOM     21  C   UNL     1     -12.145  -8.810  17.263  0.00  0.00    +0.004 A 
ATOM     22  C   UNL     1     -10.450  -7.297  16.442  0.00  0.00    +0.004 A 
ATOM     25  C   UNL     1     -12.839  -6.877  15.838  0.00  0.00    +0.044 C 
ENDBRANCH  14  15
ENDBRANCH   7  11
TORSDOF 3
ENDMDL
MODEL 5
REMARK VINA RESULT:      -6.8     26.672     28.446
REMARK  Name = 51137813
REMARK  4 active torsions:
REMARK  status: ('A' for Active; 'I' for Inactive)
REMARK    1  A    between atoms: C_7  and  C_11
REMARK    2  A    between atoms: C_12  and  C_13
REMARK    3  A    between atoms: C_14  and  C_15
REMARK    4  A    between atoms: C_20  and  C_25
REMARK                            x       y       z     vdW  Elec       q    Type
REMARK                         _______ _______ _______ _____ _____    ______ ____
ROOT
ATOM      2  O   UNL     1      -5.722 -12.820  11.332  0.00  0.00    -0.268 OA
ATOM      3  N   UNL     1      -3.539 -12.371  11.987  0.00  0.00    -0.296 N 
ATOM      7  C   UNL     1      -1.534 -12.109  13.243  0.00  0.00    +0.095 C 
ATOM      8  C   UNL     1      -1.884 -13.602  13.133  0.00  0.00    +0.033 C 
ATOM      9  C   UNL     1      -2.366 -11.504  12.103  0.00  0.00    +0.121 C 
ATOM     10  C   UNL     1      -3.353 -13.606  12.736  0.00  0.00    +0.109 C 
ATOM     12  C   UNL     1      -4.732 -12.089  11.342  0.00  0.00    +0.265 C 
ENDROOT
BRANCH  12  13
ATOM      6  N   UNL     1      -5.225  -9.749  11.366  0.00  0.00    -0.250 NA
ATOM     13  C   UNL     1      -4.831 -10.809  10.624  0.00  0.00    +0.126 A 
ATOM     16  C   UNL     1      -4.530 -10.741   9.273  0.00  0.00    +0.033 A 
ATOM     19  C   UNL     1      -4.639  -9.506   8.644  0.00  0.00    +0.004 A 
ATOM     23  C   UNL     1      -5.320  -8.566  10.720  0.00  0.00    +0.111 A 
ATOM     24  C   UNL     1      -5.041  -8.392   9.374  0.00  0.00    +0.020 A 
ENDBRANCH  12  13
BRANCH   7  11
ATOM      1  O   UNL     1      -3.080 -11.668  15.099  0.00  0.00    -0.420 OA
ATOM      4  N   UNL     1      -0.978 -11.012  15.492  0.00  0.00    -0.112 NA
ATOM      5  N   UNL     1      -1.736 -10.708  16.607  0.00  0.00    -0.107 NA
ATOM     11  C   UNL     1      -1.803 -11.571  14.638  0.00  0.00    +0.222 A 
ATOM     14  C   UNL     1      -2.956 -11.109  16.334  0.00  0.00    +0.248 A 
BRANCH  14  15
ATOM     15  C   UNL     1      -4.154 -11.049  17.119  0.00  0.00    +0.038 A 
ATOM     17  C   UNL     1      -5.271 -10.370  16.636  0.00  0.00    +0.013 A 
ATOM     18  C   UNL     1      -4.202 -11.673  18.367  0.00  0.00    +0.013 A 
ATOM     20  C   UNL     1      -6.485 -10.935  18.647  0.00  0.00    -0.050 A 
ATOM     21  C   UNL     1      -6.437 -10.312  17.399  0.00  0.00    +0.004 A 
ATOM     22  C   UNL     1      -5.368 -11.615  19.130  0.00  0.00    +0.004 A 
ATOM     25  C   UNL     1      -7.732 -10.872  19.463  0.00  0.00    +0.044 C 
ENDBRANCH  14  15
ENDBRANCH   7  11
TORSDOF 3
ENDMDL
MODEL 6
REMARK VINA RESULT:      -6.6     27.086     30.233
REMARK  Name = 51137813
REMARK  4 active torsions:
REMARK  status: ('A' for Active; 'I' for Inactive)
REMARK    1  A    between atoms: C_7  and  C_11
REMARK    2  A    between atoms: C_12  and  C_13
REMARK    3  A    between atoms: C_14  and  C_15
REMARK    4  A    between atoms: C_20  and  C_25
REMARK                            x       y       z     vdW  Elec       q    Type
REMARK                         _______ _______ _______ _____ _____    ______ ____
ROOT
ATOM      2  O   UNL     1      -4.842 -13.884  15.495  0.00  0.00    -0.268 OA
ATOM      3  N   UNL     1      -5.120 -12.130  16.990  0.00  0.00    -0.296 N 
ATOM      7  C   UNL     1      -6.036 -10.511  18.475  0.00  0.00    +0.095 C 
ATOM      8  C   UNL     1      -6.177 -11.912  19.089  0.00  0.00    +0.033 C 
ATOM      9  C   UNL     1      -4.953 -10.737  17.410  0.00  0.00    +0.121 C 
ATOM     10  C   UNL     1      -5.993 -12.851  17.905  0.00  0.00    +0.109 C 
ATOM     12  C   UNL     1      -4.616 -12.728  15.847  0.00  0.00    +0.265 C 
ENDROOT
BRANCH  12  13
ATOM      6  N   UNL     1      -2.459 -11.825  15.349  0.00  0.00    -0.250 NA
ATOM     13  C   UNL     1      -3.755 -11.913  14.976  0.00  0.00    +0.126 A 
ATOM     16  C   UNL     1      -4.283 -11.293  13.855  0.00  0.00    +0.033 A 
ATOM     19  C   UNL     1      -3.425 -10.535  13.066  0.00  0.00    +0.004 A 
ATOM     23  C   UNL     1      -1.655 -11.079  14.558  0.00  0.00    +0.111 A 
ATOM     24  C   UNL     1      -2.084 -10.420  13.417  0.00  0.00    +0.020 A 
ENDBRANCH  12  13
BRANCH   7  11
ATOM      1  O   UNL     1      -8.460 -10.232  18.759  0.00  0.00    -0.420 OA
ATOM      4  N   UNL     1      -7.650  -9.294  16.898  0.00  0.00    -0.112 NA
ATOM      5  N   UNL     1      -9.012  -9.065  16.933  0.00  0.00    -0.107 NA
ATOM     11  C   UNL     1      -7.371  -9.978  17.983  0.00  0.00    +0.222 A 
ATOM     14  C   UNL     1      -9.443  -9.630  18.037  0.00  0.00    +0.248 A 
BRANCH  14  15
ATOM     15  C   UNL     1     -10.765  -9.709  18.588  0.00  0.00    +0.038 A 
ATOM     17  C   UNL     1     -11.871  -9.416  17.791  0.00  0.00    +0.013 A 
ATOM     18  C   UNL     1     -10.944 -10.080  19.921  0.00  0.00    +0.013 A 
ATOM     20  C   UNL     1     -13.336  -9.864  19.660  0.00  0.00    -0.050 A 
ATOM     21  C   UNL     1     -13.156  -9.493  18.327  0.00  0.00    +0.004 A 
ATOM     22  C   UNL     1     -12.230 -10.157  20.457  0.00  0.00    +0.004 A 
ATOM     25  C   UNL     1     -14.711  -9.945  20.232  0.00  0.00    +0.044 C 
ENDBRANCH  14  15
ENDBRANCH   7  11
TORSDOF 3
ENDMDL
MODEL 7
REMARK VINA RESULT:      -6.5     29.993     32.379
REMARK  Name = 51137813
REMARK  4 active torsions:
REMARK  status: ('A' for Active; 'I' for Inactive)
REMARK    1  A    between atoms: C_7  and  C_11
REMARK    2  A    between atoms: C_12  and  C_13
REMARK    3  A    between atoms: C_14  and  C_15
REMARK    4  A    between atoms: C_20  and  C_25
REMARK                            x       y       z     vdW  Elec       q    Type
REMARK                         _______ _______ _______ _____ _____    ______ ____
ROOT
ATOM      2  O   UNL     1     -10.350  -5.983  42.179  0.00  0.00    -0.268 OA
ATOM      3  N   UNL     1      -9.147  -6.921  40.427  0.00  0.00    -0.296 N 
ATOM      7  C   UNL     1      -7.572  -8.144  39.128  0.00  0.00    +0.095 C 
ATOM      8  C   UNL     1      -8.494  -9.120  39.875  0.00  0.00    +0.033 C 
ATOM      9  C   UNL     1      -8.379  -6.839  39.183  0.00  0.00    +0.121 C 
ATOM     10  C   UNL     1      -9.115  -8.269  40.974  0.00  0.00    +0.109 C 
ATOM     12  C   UNL     1      -9.776  -5.882  41.096  0.00  0.00    +0.265 C 
ENDROOT
BRANCH  12  13
ATOM      6  N   UNL     1     -10.528  -4.394  39.382  0.00  0.00    -0.250 NA
ATOM     13  C   UNL     1      -9.742  -4.552  40.471  0.00  0.00    +0.126 A 
ATOM     16  C   UNL     1      -8.939  -3.553  40.998  0.00  0.00    +0.033 A 
ATOM     19  C   UNL     1      -8.944  -2.313  40.369  0.00  0.00    +0.004 A 
ATOM     23  C   UNL     1     -10.506  -3.176  38.797  0.00  0.00    +0.111 A 
ATOM     24  C   UNL     1      -9.740  -2.112  39.246  0.00  0.00    +0.020 A 
ENDBRANCH  12  13
BRANCH   7  11
ATOM      1  O   UNL     1      -5.613  -6.882  39.905  0.00  0.00    -0.420 OA
ATOM      4  N   UNL     1      -5.419  -9.098  40.143  0.00  0.00    -0.112 NA
ATOM      5  N   UNL     1      -4.259  -8.514  40.615  0.00  0.00    -0.107 NA
ATOM     11  C   UNL     1      -6.181  -8.108  39.739  0.00  0.00    +0.222 A 
ATOM     14  C   UNL     1      -4.416  -7.220  40.457  0.00  0.00    +0.248 A 
BRANCH  14  15
ATOM     15  C   UNL     1      -3.539  -6.130  40.769  0.00  0.00    +0.038 A 
ATOM     17  C   UNL     1      -2.553  -5.746  39.860  0.00  0.00    +0.013 A 
ATOM     18  C   UNL     1      -3.672  -5.452  41.981  0.00  0.00    +0.013 A 
ATOM     20  C   UNL     1      -1.833  -4.008  41.377  0.00  0.00    -0.050 A 
ATOM     21  C   UNL     1      -1.700  -4.686  40.164  0.00  0.00    +0.004 A 
ATOM     22  C   UNL     1      -2.819  -4.391  42.285  0.00  0.00    +0.004 A 
ATOM     25  C   UNL     1      -0.920  -2.874  41.700  0.00  0.00    +0.044 C 
ENDBRANCH  14  15
ENDBRANCH   7  11
TORSDOF 3
ENDMDL
MODEL 8
REMARK VINA RESULT:      -6.5      4.796     10.290
REMARK  Name = 51137813
REMARK  4 active torsions:
REMARK  status: ('A' for Active; 'I' for Inactive)
REMARK    1  A    between atoms: C_7  and  C_11
REMARK    2  A    between atoms: C_12  and  C_13
REMARK    3  A    between atoms: C_14  and  C_15
REMARK    4  A    between atoms: C_20  and  C_25
REMARK                            x       y       z     vdW  Elec       q    Type
REMARK                         _______ _______ _______ _____ _____    ______ ____
ROOT
ATOM      2  O   UNL     1      22.297   4.310  24.440  0.00  0.00    -0.268 OA
ATOM      3  N   UNL     1      21.858   5.903  22.808  0.00  0.00    -0.296 N 
ATOM      7  C   UNL     1      20.789   7.447  21.346  0.00  0.00    +0.095 C 
ATOM      8  C   UNL     1      20.706   7.962  22.791  0.00  0.00    +0.033 C 
ATOM      9  C   UNL     1      21.926   6.419  21.440  0.00  0.00    +0.121 C 
ATOM     10  C   UNL     1      20.992   6.729  23.637  0.00  0.00    +0.109 C 
ATOM     12  C   UNL     1      22.441   4.746  23.299  0.00  0.00    +0.265 C 
ENDROOT
BRANCH  12  13
ATOM      6  N   UNL     1      24.582   4.352  22.309  0.00  0.00    -0.250 NA
ATOM     13  C   UNL     1      23.287   3.969  22.381  0.00  0.00    +0.126 A 
ATOM     16  C   UNL     1      22.749   2.918  21.656  0.00  0.00    +0.033 A 
ATOM     19  C   UNL     1      23.593   2.216  20.803  0.00  0.00    +0.004 A 
ATOM     23  C   UNL     1      25.372   3.647  21.469  0.00  0.00    +0.111 A 
ATOM     24  C   UNL     1      24.932   2.581  20.702  0.00  0.00    +0.020 A 
ENDBRANCH  12  13
BRANCH   7  11
ATOM      1  O   UNL     1      18.336   7.552  21.340  0.00  0.00    -0.420 OA
ATOM      4  N   UNL     1      19.180   5.957  20.019  0.00  0.00    -0.112 NA
ATOM      5  N   UNL     1      17.802   5.907  19.923  0.00  0.00    -0.107 NA
ATOM     11  C   UNL     1      19.447   6.932  20.856  0.00  0.00    +0.222 A 
ATOM     14  C   UNL     1      17.351   6.855  20.710  0.00  0.00    +0.248 A 
BRANCH  14  15
ATOM     15  C   UNL     1      16.008   7.262  21.003  0.00  0.00    +0.038 A 
ATOM     17  C   UNL     1      15.778   8.367  21.823  0.00  0.00    +0.013 A 
ATOM     18  C   UNL     1      14.931   6.555  20.467  0.00  0.00    +0.013 A 
ATOM     20  C   UNL     1      13.394   8.056  21.572  0.00  0.00    -0.050 A 
ATOM     21  C   UNL     1      14.471   8.764  22.107  0.00  0.00    +0.004 A 
ATOM     22  C   UNL     1      13.625   6.952  20.752  0.00  0.00    +0.004 A 
ATOM     25  C   UNL     1      11.998   8.481  21.877  0.00  0.00    +0.044 C 
ENDBRANCH  14  15
ENDBRANCH   7  11
TORSDOF 3
ENDMDL
MODEL 9
REMARK VINA RESULT:      -6.4     26.596     28.727
REMARK  Name = 51137813
REMARK  4 active torsions:
REMARK  status: ('A' for Active; 'I' for Inactive)
REMARK    1  A    between atoms: C_7  and  C_11
REMARK    2  A    between atoms: C_12  and  C_13
REMARK    3  A    between atoms: C_14  and  C_15
REMARK    4  A    between atoms: C_20  and  C_25
REMARK                            x       y       z     vdW  Elec       q    Type
REMARK                         _______ _______ _______ _____ _____    ______ ____
ROOT
ATOM      2  O   UNL     1      -4.273 -12.841  11.080  0.00  0.00    -0.268 OA
ATOM      3  N   UNL     1      -3.139 -11.579  12.666  0.00  0.00    -0.296 N 
ATOM      7  C   UNL     1      -2.279 -10.700  14.704  0.00  0.00    +0.095 C 
ATOM      8  C   UNL     1      -1.705 -12.106  14.464  0.00  0.00    +0.033 C 
ATOM      9  C   UNL     1      -2.767 -10.313  13.301  0.00  0.00    +0.121 C 
ATOM     10  C   UNL     1      -2.644 -12.713  13.431  0.00  0.00    +0.109 C 
ATOM     12  C   UNL     1      -3.924 -11.754  11.537  0.00  0.00    +0.265 C 
ENDROOT
BRANCH  12  13
ATOM      6  N   UNL     1      -5.615 -10.098  11.197  0.00  0.00    -0.250 NA
ATOM     13  C   UNL     1      -4.390 -10.546  10.840  0.00  0.00    +0.126 A 
ATOM     16  C   UNL     1      -3.592  -9.939   9.884  0.00  0.00    +0.033 A 
ATOM     19  C   UNL     1      -4.081  -8.800   9.255  0.00  0.00    +0.004 A 
ATOM     23  C   UNL     1      -6.058  -8.989  10.564  0.00  0.00    +0.111 A 
ATOM     24  C   UNL     1      -5.337  -8.308   9.596  0.00  0.00    +0.020 A 
ENDBRANCH  12  13
BRANCH   7  11
ATOM      1  O   UNL     1      -4.576 -10.295  15.472  0.00  0.00    -0.420 OA
ATOM      4  N   UNL     1      -3.201 -11.041  17.071  0.00  0.00    -0.112 NA
ATOM      5  N   UNL     1      -4.450 -10.856  17.633  0.00  0.00    -0.107 NA
ATOM     11  C   UNL     1      -3.321 -10.702  15.809  0.00  0.00    +0.222 A 
ATOM     14  C   UNL     1      -5.221 -10.421  16.663  0.00  0.00    +0.248 A 
BRANCH  14  15
ATOM     15  C   UNL     1      -6.610 -10.064  16.666  0.00  0.00    +0.038 A 
ATOM     17  C   UNL     1      -7.288  -9.896  15.459  0.00  0.00    +0.013 A 
ATOM     18  C   UNL     1      -7.283  -9.887  17.875  0.00  0.00    +0.013 A 
ATOM     20  C   UNL     1      -9.312  -9.372  16.671  0.00  0.00    -0.050 A 
ATOM     21  C   UNL     1      -8.639  -9.549  15.461  0.00  0.00    +0.004 A 
ATOM     22  C   UNL     1      -8.634  -9.541  17.877  0.00  0.00    +0.004 A 
ATOM     25  C   UNL     1     -10.757  -9.001  16.672  0.00  0.00    +0.044 C 
ENDBRANCH  14  15
ENDBRANCH   7  11
TORSDOF 3
ENDMDL
MODEL 10
REMARK VINA RESULT:      -6.4     19.357     21.183
REMARK  Name = 51137813
REMARK  4 active torsions:
REMARK  status: ('A' for Active; 'I' for Inactive)
REMARK    1  A    between atoms: C_7  and  C_11
REMARK    2  A    between atoms: C_12  and  C_13
REMARK    3  A    between atoms: C_14  and  C_15
REMARK    4  A    between atoms: C_20  and  C_25
REMARK                            x       y       z     vdW  Elec       q    Type
REMARK                         _______ _______ _______ _____ _____    ______ ____
ROOT
ATOM      2  O   UNL     1      12.469   7.641   3.672  0.00  0.00    -0.268 OA
ATOM      3  N   UNL     1      12.086   5.491   2.882  0.00  0.00    -0.296 N 
ATOM      7  C   UNL     1      11.821   3.576   1.493  0.00  0.00    +0.095 C 
ATOM      8  C   UNL     1      13.295   4.010   1.498  0.00  0.00    +0.033 C 
ATOM      9  C   UNL     1      11.278   4.277   2.747  0.00  0.00    +0.121 C 
ATOM     10  C   UNL     1      13.253   5.442   2.014  0.00  0.00    +0.109 C 
ATOM     12  C   UNL     1      11.798   6.611   3.646  0.00  0.00    +0.265 C 
ENDROOT
BRANCH  12  13
ATOM      6  N   UNL     1      10.735   6.016   5.703  0.00  0.00    -0.250 NA
ATOM     13  C   UNL     1      10.587   6.572   4.479  0.00  0.00    +0.126 A 
ATOM     16  C   UNL     1       9.392   7.084   4.000  0.00  0.00    +0.033 A 
ATOM     19  C   UNL     1       8.278   7.022   4.830  0.00  0.00    +0.004 A 
ATOM     23  C   UNL     1       9.630   5.973   6.481  0.00  0.00    +0.111 A 
ATOM     24  C   UNL     1       8.391   6.458   6.096  0.00  0.00    +0.020 A 
ENDBRANCH  12  13
BRANCH   7  11
ATOM      1  O   UNL     1      11.716   3.432  -0.956  0.00  0.00    -0.420 OA
ATOM      4  N   UNL     1      10.057   4.623  -0.045  0.00  0.00    -0.112 NA
ATOM      5  N   UNL     1       9.879   4.622  -1.415  0.00  0.00    -0.107 NA
ATOM     11  C   UNL     1      11.140   3.916   0.178  0.00  0.00    +0.222 A 
ATOM     14  C   UNL     1      10.870   3.915  -1.906  0.00  0.00    +0.248 A 
BRANCH  14  15
ATOM     15  C   UNL     1      11.192   3.579  -3.263  0.00  0.00    +0.038 A 
ATOM     17  C   UNL     1      10.185   3.532  -4.227  0.00  0.00    +0.013 A 
ATOM     18  C   UNL     1      12.512   3.302  -3.619  0.00  0.00    +0.013 A 
ATOM     20  C   UNL     1      11.819   2.928  -5.902  0.00  0.00    -0.050 A 
ATOM     21  C   UNL     1      10.498   3.206  -5.546  0.00  0.00    +0.004 A 
ATOM     22  C   UNL     1      12.825   2.976  -4.938  0.00  0.00    +0.004 A 
ATOM     25  C   UNL     1      12.152   2.580  -7.313  0.00  0.00    +0.044 C 
ENDBRANCH  14  15
ENDBRANCH   7  11
TORSDOF 3
ENDMDL
