MODEL 1
REMARK VINA RESULT:      -8.4      0.000      0.000
REMARK  Name = 11913096
REMARK  8 active torsions:
REMARK  status: ('A' for Active; 'I' for Inactive)
REMARK    1  A    between atoms: O_3  and  C_13
REMARK    2  A    between atoms: O_3  and  C_17
REMARK    3  A    between atoms: O_5  and  C_32
REMARK    4  A    between atoms: O_5  and  C_39
REMARK    5  A    between atoms: N_6  and  C_12
REMARK    6  A    between atoms: N_9  and  C_21
REMARK    7  A    between atoms: C_18  and  C_22
REMARK    8  A    between atoms: C_29  and  C_33
REMARK                            x       y       z     vdW  Elec       q    Type
REMARK                         _______ _______ _______ _____ _____    ______ ____
ROOT
ATOM      1  O   UNL     1      -6.103 -12.276  19.093  0.00  0.00    -0.368 OA
ATOM      2  O   UNL     1      -7.414 -11.190  16.541  0.00  0.00    -0.368 OA
ATOM     10  C   UNL     1      -6.138 -10.912  17.153  0.00  0.00    +0.173 C 
ATOM     11  C   UNL     1      -6.358 -10.931  18.653  0.00  0.00    +0.192 C 
ATOM     12  C   UNL     1      -5.185 -12.059  16.907  0.00  0.00    +0.130 C 
ATOM     13  C   UNL     1      -7.819 -10.571  18.775  0.00  0.00    +0.235 C 
ATOM     14  C   UNL     1      -5.573 -13.041  17.999  0.00  0.00    +0.185 C 
ATOM     15  C   UNL     1      -8.417 -11.254  17.566  0.00  0.00    +0.207 C 
ENDROOT
BRANCH  12   6
ATOM      6  N   UNL     1      -3.817 -11.621  17.088  0.00  0.00    -0.306 N 
ATOM      7  N   UNL     1      -3.624 -10.994  14.860  0.00  0.00    -0.214 NA
ATOM      8  N   UNL     1      -1.787 -10.731  16.399  0.00  0.00    -0.223 NA
ATOM     16  C   UNL     1      -3.042 -11.092  16.072  0.00  0.00    +0.216 A 
ATOM     18  C   UNL     1      -2.839 -10.475  13.893  0.00  0.00    +0.076 A 
ATOM     19  C   UNL     1      -1.059 -10.219  15.384  0.00  0.00    +0.116 A 
ATOM     20  C   UNL     1      -1.538 -10.066  14.099  0.00  0.00    +0.048 A 
ATOM     40  H   UNL     1      -3.404 -11.649  18.014  0.00  0.00    +0.149 HD
BRANCH  18  22
ATOM     22  C   UNL     1      -3.460 -10.367  12.594  0.00  0.00    +0.001 A 
ATOM     25  C   UNL     1      -4.849 -10.411  12.481  0.00  0.00    +0.010 A 
ATOM     26  C   UNL     1      -2.671 -10.219  11.454  0.00  0.00    +0.010 A 
ATOM     27  C   UNL     1      -5.450 -10.306  11.226  0.00  0.00    +0.009 A 
ATOM     28  C   UNL     1      -3.272 -10.114  10.199  0.00  0.00    +0.009 A 
ATOM     29  C   UNL     1      -4.661 -10.157  10.085  0.00  0.00    -0.018 A 
BRANCH  29  33
ATOM     33  C   UNL     1      -5.284 -10.049   8.784  0.00  0.00    -0.018 A 
ATOM     34  C   UNL     1      -4.797 -10.797   7.713  0.00  0.00    +0.008 A 
ATOM     35  C   UNL     1      -6.372  -9.196   8.601  0.00  0.00    +0.008 A 
ATOM     36  C   UNL     1      -5.396 -10.692   6.458  0.00  0.00    +0.001 A 
ATOM     37  C   UNL     1      -6.972  -9.091   7.346  0.00  0.00    +0.001 A 
ATOM     38  C   UNL     1      -6.485  -9.839   6.275  0.00  0.00    +0.000 A 
ENDBRANCH  29  33
ENDBRANCH  18  22
ENDBRANCH  12   6
BRANCH  13   3
ATOM      3  O   UNL     1      -8.408 -11.011  19.978  0.00  0.00    -0.442 OA
BRANCH   3  17
ATOM      4  O   UNL     1     -10.252 -12.349  20.172  0.00  0.00    -0.226 OA
ATOM      9  N   UNL     1     -10.434 -10.070  19.668  0.00  0.00    -0.251 N 
ATOM     17  C   UNL     1      -9.767 -11.244  19.957  0.00  0.00    +0.405 C 
ATOM     41  H   UNL     1      -9.854  -9.248  19.520  0.00  0.00    +0.158 HD
BRANCH   9  21
ATOM     21  C   UNL     1     -11.828  -9.867  19.550  0.00  0.00    +0.037 A 
ATOM     23  C   UNL     1     -12.622  -9.802  20.695  0.00  0.00    +0.027 A 
ATOM     24  C   UNL     1     -12.410  -9.729  18.290  0.00  0.00    +0.027 A 
ATOM     30  C   UNL     1     -13.998  -9.600  20.579  0.00  0.00    +0.047 A 
ATOM     31  C   UNL     1     -13.785  -9.527  18.174  0.00  0.00    +0.047 A 
ATOM     32  C   UNL     1     -14.578  -9.463  19.319  0.00  0.00    +0.120 A 
BRANCH  32   5
ATOM      5  O   UNL     1     -15.920  -9.265  19.206  0.00  0.00    -0.495 OA
ATOM     39  C   UNL     1     -16.391  -8.686  17.990  0.00  0.00    +0.277 C 
ENDBRANCH  32   5
ENDBRANCH   9  21
ENDBRANCH   3  17
ENDBRANCH  13   3
TORSDOF 7
ENDMDL
MODEL 2
REMARK VINA RESULT:      -8.1     22.967     26.860
REMARK  Name = 11913096
REMARK  8 active torsions:
REMARK  status: ('A' for Active; 'I' for Inactive)
REMARK    1  A    between atoms: O_3  and  C_13
REMARK    2  A    between atoms: O_3  and  C_17
REMARK    3  A    between atoms: O_5  and  C_32
REMARK    4  A    between atoms: O_5  and  C_39
REMARK    5  A    between atoms: N_6  and  C_12
REMARK    6  A    between atoms: N_9  and  C_21
REMARK    7  A    between atoms: C_18  and  C_22
REMARK    8  A    between atoms: C_29  and  C_33
REMARK                            x       y       z     vdW  Elec       q    Type
REMARK                         _______ _______ _______ _____ _____    ______ ____
ROOT
ATOM      1  O   UNL     1       6.631  12.312   3.802  0.00  0.00    -0.368 OA
ATOM      2  O   UNL     1       4.125  10.661   3.165  0.00  0.00    -0.368 OA
ATOM     10  C   UNL     1       4.527  11.367   4.357  0.00  0.00    +0.173 C 
ATOM     11  C   UNL     1       6.029  11.197   4.481  0.00  0.00    +0.192 C 
ATOM     12  C   UNL     1       4.342  12.854   4.165  0.00  0.00    +0.130 C 
ATOM     13  C   UNL     1       6.274   9.899   3.750  0.00  0.00    +0.235 C 
ATOM     14  C   UNL     1       5.607  13.245   3.422  0.00  0.00    +0.185 C 
ATOM     15  C   UNL     1       5.262   9.971   2.627  0.00  0.00    +0.207 C 
ENDROOT
BRANCH  12   6
ATOM      6  N   UNL     1       4.286  13.522   5.448  0.00  0.00    -0.306 N 
ATOM      7  N   UNL     1       2.227  12.577   5.957  0.00  0.00    -0.214 NA
ATOM      8  N   UNL     1       3.332  14.070   7.492  0.00  0.00    -0.223 NA
ATOM     16  C   UNL     1       3.236  13.383   6.338  0.00  0.00    +0.216 A 
ATOM     18  C   UNL     1       1.220  12.466   6.849  0.00  0.00    +0.076 A 
ATOM     19  C   UNL     1       2.291  13.912   8.337  0.00  0.00    +0.116 A 
ATOM     20  C   UNL     1       1.198  13.115   8.066  0.00  0.00    +0.048 A 
ATOM     40  H   UNL     1       5.073  14.086   5.751  0.00  0.00    +0.149 HD
BRANCH  18  22
ATOM     22  C   UNL     1       0.138  11.600   6.444  0.00  0.00    +0.001 A 
ATOM     25  C   UNL     1      -0.589  10.899   7.407  0.00  0.00    +0.010 A 
ATOM     26  C   UNL     1      -0.182  11.466   5.094  0.00  0.00    +0.010 A 
ATOM     27  C   UNL     1      -1.636  10.063   7.017  0.00  0.00    +0.009 A 
ATOM     28  C   UNL     1      -1.228  10.630   4.704  0.00  0.00    +0.009 A 
ATOM     29  C   UNL     1      -1.956   9.929   5.666  0.00  0.00    -0.018 A 
BRANCH  29  33
ATOM     33  C   UNL     1      -3.041   9.061   5.262  0.00  0.00    -0.018 A 
ATOM     34  C   UNL     1      -4.146   9.591   4.595  0.00  0.00    +0.008 A 
ATOM     35  C   UNL     1      -2.982   7.696   5.538  0.00  0.00    +0.008 A 
ATOM     36  C   UNL     1      -5.193   8.756   4.207  0.00  0.00    +0.001 A 
ATOM     37  C   UNL     1      -4.028   6.860   5.148  0.00  0.00    +0.001 A 
ATOM     38  C   UNL     1      -5.134   7.389   4.482  0.00  0.00    +0.000 A 
ENDBRANCH  29  33
ENDBRANCH  18  22
ENDBRANCH  12   6
BRANCH  13   3
ATOM      3  O   UNL     1       7.592   9.764   3.268  0.00  0.00    -0.442 OA
BRANCH   3  17
ATOM      4  O   UNL     1       9.679   9.524   4.169  0.00  0.00    -0.226 OA
ATOM      9  N   UNL     1       7.889   8.174   4.840  0.00  0.00    -0.251 N 
ATOM     17  C   UNL     1       8.507   9.173   4.114  0.00  0.00    +0.405 C 
ATOM     41  H   UNL     1       6.899   8.029   4.653  0.00  0.00    +0.158 HD
BRANCH   9  21
ATOM     21  C   UNL     1       8.460   7.325   5.814  0.00  0.00    +0.037 A 
ATOM     23  C   UNL     1       8.523   7.734   7.145  0.00  0.00    +0.027 A 
ATOM     24  C   UNL     1       8.961   6.076   5.443  0.00  0.00    +0.027 A 
ATOM     30  C   UNL     1       9.087   6.895   8.107  0.00  0.00    +0.047 A 
ATOM     31  C   UNL     1       9.524   5.237   6.405  0.00  0.00    +0.047 A 
ATOM     32  C   UNL     1       9.587   5.647   7.737  0.00  0.00    +0.120 A 
BRANCH  32   5
ATOM      5  O   UNL     1      10.135   4.828   8.675  0.00  0.00    -0.495 OA
ATOM     39  C   UNL     1       9.322   4.489   9.797  0.00  0.00    +0.277 C 
ENDBRANCH  32   5
ENDBRANCH   9  21
ENDBRANCH   3  17
ENDBRANCH  13   3
TORSDOF 7
ENDMDL
MODEL 3
REMARK VINA RESULT:      -8.1     25.366     28.610
REMARK  Name = 11913096
REMARK  8 active torsions:
REMARK  status: ('A' for Active; 'I' for Inactive)
REMARK    1  A    between atoms: O_3  and  C_13
REMARK    2  A    between atoms: O_3  and  C_17
REMARK    3  A    between atoms: O_5  and  C_32
REMARK    4  A    between atoms: O_5  and  C_39
REMARK    5  A    between atoms: N_6  and  C_12
REMARK    6  A    between atoms: N_9  and  C_21
REMARK    7  A    between atoms: C_18  and  C_22
REMARK    8  A    between atoms: C_29  and  C_33
REMARK                            x       y       z     vdW  Elec       q    Type
REMARK                         _______ _______ _______ _____ _____    ______ ____
ROOT
ATOM      1  O   UNL     1       8.397   6.712  -5.266  0.00  0.00    -0.368 OA
ATOM      2  O   UNL     1       7.253   6.974  -2.432  0.00  0.00    -0.368 OA
ATOM     10  C   UNL     1       8.139   5.999  -3.019  0.00  0.00    +0.173 C 
ATOM     11  C   UNL     1       7.670   5.783  -4.445  0.00  0.00    +0.192 C 
ATOM     12  C   UNL     1       9.524   6.584  -3.173  0.00  0.00    +0.130 C 
ATOM     13  C   UNL     1       6.204   6.136  -4.365  0.00  0.00    +0.235 C 
ATOM     14  C   UNL     1       9.404   7.361  -4.473  0.00  0.00    +0.185 C 
ATOM     15  C   UNL     1       6.205   7.272  -3.366  0.00  0.00    +0.207 C 
ENDROOT
BRANCH  12   6
ATOM      6  N   UNL     1      10.503   5.526  -3.309  0.00  0.00    -0.306 N 
ATOM      7  N   UNL     1      10.674   5.261  -1.008  0.00  0.00    -0.214 NA
ATOM      8  N   UNL     1      11.968   3.906  -2.523  0.00  0.00    -0.223 NA
ATOM     16  C   UNL     1      11.073   4.869  -2.233  0.00  0.00    +0.216 A 
ATOM     18  C   UNL     1      11.251   4.600   0.017  0.00  0.00    +0.076 A 
ATOM     19  C   UNL     1      12.505   3.286  -1.451  0.00  0.00    +0.116 A 
ATOM     20  C   UNL     1      12.181   3.594  -0.146  0.00  0.00    +0.048 A 
ATOM     40  H   UNL     1      10.760   5.201  -4.234  0.00  0.00    +0.149 HD
BRANCH  18  22
ATOM     22  C   UNL     1      10.824   5.017   1.332  0.00  0.00    +0.001 A 
ATOM     25  C   UNL     1      11.082   4.206   2.437  0.00  0.00    +0.010 A 
ATOM     26  C   UNL     1      10.154   6.228   1.497  0.00  0.00    +0.010 A 
ATOM     27  C   UNL     1      10.671   4.608   3.708  0.00  0.00    +0.009 A 
ATOM     28  C   UNL     1       9.743   6.631   2.768  0.00  0.00    +0.009 A 
ATOM     29  C   UNL     1      10.001   5.820   3.873  0.00  0.00    -0.018 A 
BRANCH  29  33
ATOM     33  C   UNL     1       9.574   6.237   5.192  0.00  0.00    -0.018 A 
ATOM     34  C   UNL     1      10.088   5.606   6.324  0.00  0.00    +0.008 A 
ATOM     35  C   UNL     1       8.648   7.271   5.330  0.00  0.00    +0.008 A 
ATOM     36  C   UNL     1       9.676   6.007   7.594  0.00  0.00    +0.001 A 
ATOM     37  C   UNL     1       8.237   7.674   6.600  0.00  0.00    +0.001 A 
ATOM     38  C   UNL     1       8.750   7.042   7.733  0.00  0.00    +0.000 A 
ENDBRANCH  29  33
ENDBRANCH  18  22
ENDBRANCH  12   6
BRANCH  13   3
ATOM      3  O   UNL     1       5.650   6.520  -5.603  0.00  0.00    -0.442 OA
BRANCH   3  17
ATOM      4  O   UNL     1       3.721   6.422  -6.826  0.00  0.00    -0.226 OA
ATOM      9  N   UNL     1       4.183   4.872  -5.134  0.00  0.00    -0.251 N 
ATOM     17  C   UNL     1       4.432   5.967  -5.939  0.00  0.00    +0.405 C 
ATOM     41  H   UNL     1       4.899   4.646  -4.447  0.00  0.00    +0.158 HD
BRANCH   9  21
ATOM     21  C   UNL     1       3.054   4.022  -5.145  0.00  0.00    +0.037 A 
ATOM     23  C   UNL     1       1.915   4.367  -4.418  0.00  0.00    +0.027 A 
ATOM     24  C   UNL     1       3.079   2.838  -5.883  0.00  0.00    +0.027 A 
ATOM     30  C   UNL     1       0.800   3.528  -4.430  0.00  0.00    +0.047 A 
ATOM     31  C   UNL     1       1.964   1.999  -5.894  0.00  0.00    +0.047 A 
ATOM     32  C   UNL     1       0.825   2.345  -5.167  0.00  0.00    +0.120 A 
BRANCH  32   5
ATOM      5  O   UNL     1      -0.262   1.527  -5.179  0.00  0.00    -0.495 OA
ATOM     39  C   UNL     1      -0.182   0.350  -5.982  0.00  0.00    +0.277 C 
ENDBRANCH  32   5
ENDBRANCH   9  21
ENDBRANCH   3  17
ENDBRANCH  13   3
TORSDOF 7
ENDMDL
MODEL 4
REMARK VINA RESULT:      -8.0     26.398     29.020
REMARK  Name = 11913096
REMARK  8 active torsions:
REMARK  status: ('A' for Active; 'I' for Inactive)
REMARK    1  A    between atoms: O_3  and  C_13
REMARK    2  A    between atoms: O_3  and  C_17
REMARK    3  A    between atoms: O_5  and  C_32
REMARK    4  A    between atoms: O_5  and  C_39
REMARK    5  A    between atoms: N_6  and  C_12
REMARK    6  A    between atoms: N_9  and  C_21
REMARK    7  A    between atoms: C_18  and  C_22
REMARK    8  A    between atoms: C_29  and  C_33
REMARK                            x       y       z     vdW  Elec       q    Type
REMARK                         _______ _______ _______ _____ _____    ______ ____
ROOT
ATOM      1  O   UNL     1      15.145  10.793  16.519  0.00  0.00    -0.368 OA
ATOM      2  O   UNL     1      13.043   8.979  15.214  0.00  0.00    -0.368 OA
ATOM     10  C   UNL     1      13.042  10.394  15.498  0.00  0.00    +0.173 C 
ATOM     11  C   UNL     1      13.757  10.575  16.822  0.00  0.00    +0.192 C 
ATOM     12  C   UNL     1      13.919  11.121  14.505  0.00  0.00    +0.130 C 
ATOM     13  C   UNL     1      13.535   9.245  17.500  0.00  0.00    +0.235 C 
ATOM     14  C   UNL     1      15.304  10.932  15.098  0.00  0.00    +0.185 C 
ATOM     15  C   UNL     1      13.601   8.281  16.337  0.00  0.00    +0.207 C 
ENDROOT
BRANCH  12   6
ATOM      6  N   UNL     1      13.575  12.527  14.469  0.00  0.00    -0.306 N 
ATOM      7  N   UNL     1      12.257  12.253  12.576  0.00  0.00    -0.214 NA
ATOM      8  N   UNL     1      12.525  14.412  13.613  0.00  0.00    -0.223 NA
ATOM     16  C   UNL     1      12.750  13.089  13.512  0.00  0.00    +0.216 A 
ATOM     18  C   UNL     1      11.457  12.834  11.658  0.00  0.00    +0.076 A 
ATOM     19  C   UNL     1      11.716  14.927  12.664  0.00  0.00    +0.116 A 
ATOM     20  C   UNL     1      11.148  14.179  11.653  0.00  0.00    +0.048 A 
ATOM     40  H   UNL     1      13.907  13.140  15.206  0.00  0.00    +0.149 HD
BRANCH  18  22
ATOM     22  C   UNL     1      10.927  11.942  10.656  0.00  0.00    +0.001 A 
ATOM     25  C   UNL     1      11.758  11.455   9.647  0.00  0.00    +0.010 A 
ATOM     26  C   UNL     1       9.585  11.566  10.696  0.00  0.00    +0.010 A 
ATOM     27  C   UNL     1      11.246  10.591   8.678  0.00  0.00    +0.009 A 
ATOM     28  C   UNL     1       9.073  10.703   9.727  0.00  0.00    +0.009 A 
ATOM     29  C   UNL     1       9.903  10.215   8.718  0.00  0.00    -0.018 A 
BRANCH  29  33
ATOM     33  C   UNL     1       9.372   9.320   7.713  0.00  0.00    -0.018 A 
ATOM     34  C   UNL     1       9.055   9.805   6.445  0.00  0.00    +0.008 A 
ATOM     35  C   UNL     1       9.178   7.972   8.013  0.00  0.00    +0.008 A 
ATOM     36  C   UNL     1       8.542   8.942   5.476  0.00  0.00    +0.001 A 
ATOM     37  C   UNL     1       8.667   7.109   7.045  0.00  0.00    +0.001 A 
ATOM     38  C   UNL     1       8.349   7.593   5.776  0.00  0.00    +0.000 A 
ENDBRANCH  29  33
ENDBRANCH  18  22
ENDBRANCH  12   6
BRANCH  13   3
ATOM      3  O   UNL     1      14.496   8.950  18.488  0.00  0.00    -0.442 OA
BRANCH   3  17
ATOM      4  O   UNL     1      14.984   9.187  20.709  0.00  0.00    -0.226 OA
ATOM      9  N   UNL     1      12.917   9.842  19.829  0.00  0.00    -0.251 N 
ATOM     17  C   UNL     1      14.196   9.322  19.782  0.00  0.00    +0.405 C 
ATOM     41  H   UNL     1      12.411   9.872  18.946  0.00  0.00    +0.158 HD
BRANCH   9  21
ATOM     21  C   UNL     1      12.220  10.339  20.952  0.00  0.00    +0.037 A 
ATOM     23  C   UNL     1      12.144  11.714  21.173  0.00  0.00    +0.027 A 
ATOM     24  C   UNL     1      11.607   9.456  21.841  0.00  0.00    +0.027 A 
ATOM     30  C   UNL     1      11.455  12.206  22.282  0.00  0.00    +0.047 A 
ATOM     31  C   UNL     1      10.918   9.947  22.950  0.00  0.00    +0.047 A 
ATOM     32  C   UNL     1      10.842  11.322  23.170  0.00  0.00    +0.120 A 
BRANCH  32   5
ATOM      5  O   UNL     1      10.169  11.801  24.251  0.00  0.00    -0.495 OA
ATOM     39  C   UNL     1      10.952  12.290  25.340  0.00  0.00    +0.277 C 
ENDBRANCH  32   5
ENDBRANCH   9  21
ENDBRANCH   3  17
ENDBRANCH  13   3
TORSDOF 7
ENDMDL
MODEL 5
REMARK VINA RESULT:      -7.9      6.016     11.742
REMARK  Name = 11913096
REMARK  8 active torsions:
REMARK  status: ('A' for Active; 'I' for Inactive)
REMARK    1  A    between atoms: O_3  and  C_13
REMARK    2  A    between atoms: O_3  and  C_17
REMARK    3  A    between atoms: O_5  and  C_32
REMARK    4  A    between atoms: O_5  and  C_39
REMARK    5  A    between atoms: N_6  and  C_12
REMARK    6  A    between atoms: N_9  and  C_21
REMARK    7  A    between atoms: C_18  and  C_22
REMARK    8  A    between atoms: C_29  and  C_33
REMARK                            x       y       z     vdW  Elec       q    Type
REMARK                         _______ _______ _______ _____ _____    ______ ____
ROOT
ATOM      1  O   UNL     1     -13.819  -5.841  11.560  0.00  0.00    -0.368 OA
ATOM      2  O   UNL     1     -12.332  -3.547  12.953  0.00  0.00    -0.368 OA
ATOM     10  C   UNL     1     -13.516  -4.284  13.323  0.00  0.00    +0.173 C 
ATOM     11  C   UNL     1     -14.276  -4.567  12.042  0.00  0.00    +0.192 C 
ATOM     12  C   UNL     1     -13.133  -5.655  13.832  0.00  0.00    +0.130 C 
ATOM     13  C   UNL     1     -13.833  -3.437  11.143  0.00  0.00    +0.235 C 
ATOM     14  C   UNL     1     -12.961  -6.441  12.544  0.00  0.00    +0.185 C 
ATOM     15  C   UNL     1     -12.387  -3.256  11.548  0.00  0.00    +0.207 C 
ENDROOT
BRANCH  12   6
ATOM      6  N   UNL     1     -14.208  -6.215  14.623  0.00  0.00    -0.306 N 
ATOM      7  N   UNL     1     -12.745  -7.541  15.846  0.00  0.00    -0.214 NA
ATOM      8  N   UNL     1     -15.117  -7.575  16.270  0.00  0.00    -0.223 NA
ATOM     16  C   UNL     1     -14.015  -7.151  15.623  0.00  0.00    +0.216 A 
ATOM     18  C   UNL     1     -12.594  -8.455  16.827  0.00  0.00    +0.076 A 
ATOM     19  C   UNL     1     -14.893  -8.487  17.239  0.00  0.00    +0.116 A 
ATOM     20  C   UNL     1     -13.641  -8.968  17.564  0.00  0.00    +0.048 A 
ATOM     40  H   UNL     1     -15.155  -5.878  14.485  0.00  0.00    +0.149 HD
BRANCH  18  22
ATOM     22  C   UNL     1     -11.234  -8.873  17.069  0.00  0.00    +0.001 A 
ATOM     25  C   UNL     1     -10.196  -8.346  16.301  0.00  0.00    +0.010 A 
ATOM     26  C   UNL     1     -10.958  -9.804  18.070  0.00  0.00    +0.010 A 
ATOM     27  C   UNL     1      -8.881  -8.749  16.535  0.00  0.00    +0.009 A 
ATOM     28  C   UNL     1      -9.643 -10.207  18.304  0.00  0.00    +0.009 A 
ATOM     29  C   UNL     1      -8.605  -9.680  17.536  0.00  0.00    -0.018 A 
BRANCH  29  33
ATOM     33  C   UNL     1      -7.241 -10.099  17.779  0.00  0.00    -0.018 A 
ATOM     34  C   UNL     1      -6.271  -9.922  16.792  0.00  0.00    +0.008 A 
ATOM     35  C   UNL     1      -6.897 -10.679  18.999  0.00  0.00    +0.008 A 
ATOM     36  C   UNL     1      -4.957 -10.326  17.025  0.00  0.00    +0.001 A 
ATOM     37  C   UNL     1      -5.582 -11.082  19.233  0.00  0.00    +0.001 A 
ATOM     38  C   UNL     1      -4.612 -10.906  18.247  0.00  0.00    +0.000 A 
ENDBRANCH  29  33
ENDBRANCH  18  22
ENDBRANCH  12   6
BRANCH  13   3
ATOM      3  O   UNL     1     -13.967  -3.727   9.770  0.00  0.00    -0.442 OA
BRANCH   3  17
ATOM      4  O   UNL     1     -12.286  -2.848   8.492  0.00  0.00    -0.226 OA
ATOM      9  N   UNL     1     -12.358  -5.125   9.031  0.00  0.00    -0.251 N 
ATOM     17  C   UNL     1     -12.802  -3.817   9.036  0.00  0.00    +0.405 C 
ATOM     41  H   UNL     1     -12.927  -5.795   9.544  0.00  0.00    +0.158 HD
BRANCH   9  21
ATOM     21  C   UNL     1     -11.209  -5.652   8.400  0.00  0.00    +0.037 A 
ATOM     23  C   UNL     1     -11.344  -6.547   7.339  0.00  0.00    +0.027 A 
ATOM     24  C   UNL     1      -9.938  -5.277   8.839  0.00  0.00    +0.027 A 
ATOM     30  C   UNL     1     -10.209  -7.066   6.716  0.00  0.00    +0.047 A 
ATOM     31  C   UNL     1      -8.804  -5.797   8.216  0.00  0.00    +0.047 A 
ATOM     32  C   UNL     1      -8.939  -6.691   7.154  0.00  0.00    +0.120 A 
BRANCH  32   5
ATOM      5  O   UNL     1      -7.832  -7.198   6.546  0.00  0.00    -0.495 OA
ATOM     39  C   UNL     1      -8.017  -8.331   5.699  0.00  0.00    +0.277 C 
ENDBRANCH  32   5
ENDBRANCH   9  21
ENDBRANCH   3  17
ENDBRANCH  13   3
TORSDOF 7
ENDMDL
MODEL 6
REMARK VINA RESULT:      -7.7     27.930     32.827
REMARK  Name = 11913096
REMARK  8 active torsions:
REMARK  status: ('A' for Active; 'I' for Inactive)
REMARK    1  A    between atoms: O_3  and  C_13
REMARK    2  A    between atoms: O_3  and  C_17
REMARK    3  A    between atoms: O_5  and  C_32
REMARK    4  A    between atoms: O_5  and  C_39
REMARK    5  A    between atoms: N_6  and  C_12
REMARK    6  A    between atoms: N_9  and  C_21
REMARK    7  A    between atoms: C_18  and  C_22
REMARK    8  A    between atoms: C_29  and  C_33
REMARK                            x       y       z     vdW  Elec       q    Type
REMARK                         _______ _______ _______ _____ _____    ______ ____
ROOT
ATOM      1  O   UNL     1      20.918   7.680  20.423  0.00  0.00    -0.368 OA
ATOM      2  O   UNL     1      20.599   5.983  22.959  0.00  0.00    -0.368 OA
ATOM     10  C   UNL     1      21.232   5.702  21.693  0.00  0.00    +0.173 C 
ATOM     11  C   UNL     1      20.384   6.361  20.623  0.00  0.00    +0.192 C 
ATOM     12  C   UNL     1      22.557   6.424  21.606  0.00  0.00    +0.130 C 
ATOM     13  C   UNL     1      19.018   6.402  21.265  0.00  0.00    +0.235 C 
ATOM     14  C   UNL     1      22.138   7.816  21.167  0.00  0.00    +0.185 C 
ATOM     15  C   UNL     1      19.358   6.662  22.716  0.00  0.00    +0.207 C 
ENDROOT
BRANCH  12   6
ATOM      6  N   UNL     1      23.396   5.811  20.599  0.00  0.00    -0.306 N 
ATOM      7  N   UNL     1      23.577   3.840  21.815  0.00  0.00    -0.214 NA
ATOM      8  N   UNL     1      24.667   4.098  19.681  0.00  0.00    -0.223 NA
ATOM     16  C   UNL     1      23.902   4.527  20.703  0.00  0.00    +0.216 A 
ATOM     18  C   UNL     1      24.088   2.593  21.883  0.00  0.00    +0.076 A 
ATOM     19  C   UNL     1      25.144   2.843  19.815  0.00  0.00    +0.116 A 
ATOM     20  C   UNL     1      24.884   2.036  20.903  0.00  0.00    +0.048 A 
ATOM     40  H   UNL     1      23.594   6.314  19.741  0.00  0.00    +0.149 HD
BRANCH  18  22
ATOM     22  C   UNL     1      23.740   1.853  23.072  0.00  0.00    +0.001 A 
ATOM     25  C   UNL     1      24.508   0.755  23.459  0.00  0.00    +0.010 A 
ATOM     26  C   UNL     1      22.637   2.236  23.835  0.00  0.00    +0.010 A 
ATOM     27  C   UNL     1      24.173   0.040  24.609  0.00  0.00    +0.009 A 
ATOM     28  C   UNL     1      22.302   1.521  24.985  0.00  0.00    +0.009 A 
ATOM     29  C   UNL     1      23.070   0.423  25.372  0.00  0.00    -0.018 A 
BRANCH  29  33
ATOM     33  C   UNL     1      22.722  -0.319  26.565  0.00  0.00    -0.018 A 
ATOM     34  C   UNL     1      23.723  -0.745  27.438  0.00  0.00    +0.008 A 
ATOM     35  C   UNL     1      21.386  -0.608  26.841  0.00  0.00    +0.008 A 
ATOM     36  C   UNL     1      23.388  -1.461  28.587  0.00  0.00    +0.001 A 
ATOM     37  C   UNL     1      21.050  -1.322  27.991  0.00  0.00    +0.001 A 
ATOM     38  C   UNL     1      22.051  -1.749  28.864  0.00  0.00    +0.000 A 
ENDBRANCH  29  33
ENDBRANCH  18  22
ENDBRANCH  12   6
BRANCH  13   3
ATOM      3  O   UNL     1      18.175   7.397  20.731  0.00  0.00    -0.442 OA
BRANCH   3  17
ATOM      4  O   UNL     1      17.236   5.961  19.220  0.00  0.00    -0.226 OA
ATOM      9  N   UNL     1      16.092   7.851  19.993  0.00  0.00    -0.251 N 
ATOM     17  C   UNL     1      17.155   6.973  19.905  0.00  0.00    +0.405 C 
ATOM     41  H   UNL     1      16.213   8.641  20.623  0.00  0.00    +0.158 HD
BRANCH   9  21
ATOM     21  C   UNL     1      14.854   7.789  19.316  0.00  0.00    +0.037 A 
ATOM     23  C   UNL     1      13.851   6.935  19.774  0.00  0.00    +0.027 A 
ATOM     24  C   UNL     1      14.633   8.584  18.191  0.00  0.00    +0.027 A 
ATOM     30  C   UNL     1      12.627   6.875  19.105  0.00  0.00    +0.047 A 
ATOM     31  C   UNL     1      13.410   8.524  17.523  0.00  0.00    +0.047 A 
ATOM     32  C   UNL     1      12.407   7.669  17.981  0.00  0.00    +0.120 A 
BRANCH  32   5
ATOM      5  O   UNL     1      11.214   7.612  17.330  0.00  0.00    -0.495 OA
ATOM     39  C   UNL     1      10.846   8.746  16.546  0.00  0.00    +0.277 C 
ENDBRANCH  32   5
ENDBRANCH   9  21
ENDBRANCH   3  17
ENDBRANCH  13   3
TORSDOF 7
ENDMDL
MODEL 7
REMARK VINA RESULT:      -7.6      4.932      8.422
REMARK  Name = 11913096
REMARK  8 active torsions:
REMARK  status: ('A' for Active; 'I' for Inactive)
REMARK    1  A    between atoms: O_3  and  C_13
REMARK    2  A    between atoms: O_3  and  C_17
REMARK    3  A    between atoms: O_5  and  C_32
REMARK    4  A    between atoms: O_5  and  C_39
REMARK    5  A    between atoms: N_6  and  C_12
REMARK    6  A    between atoms: N_9  and  C_21
REMARK    7  A    between atoms: C_18  and  C_22
REMARK    8  A    between atoms: C_29  and  C_33
REMARK                            x       y       z     vdW  Elec       q    Type
REMARK                         _______ _______ _______ _____ _____    ______ ____
ROOT
ATOM      1  O   UNL     1      -4.188  -9.290  11.278  0.00  0.00    -0.368 OA
ATOM      2  O   UNL     1      -3.056 -12.113  10.874  0.00  0.00    -0.368 OA
ATOM     10  C   UNL     1      -4.278 -11.498  10.416  0.00  0.00    +0.173 C 
ATOM     11  C   UNL     1      -4.755 -10.587  11.530  0.00  0.00    +0.192 C 
ATOM     12  C   UNL     1      -3.985 -10.555   9.272  0.00  0.00    +0.130 C 
ATOM     13  C   UNL     1      -4.156 -11.230  12.758  0.00  0.00    +0.235 C 
ATOM     14  C   UNL     1      -3.541  -9.296   9.996  0.00  0.00    +0.185 C 
ATOM     15  C   UNL     1      -2.827 -11.731  12.238  0.00  0.00    +0.207 C 
ENDROOT
BRANCH  12   6
ATOM      6  N   UNL     1      -5.191 -10.298   8.513  0.00  0.00    -0.306 N 
ATOM      7  N   UNL     1      -4.355 -11.387   6.639  0.00  0.00    -0.214 NA
ATOM      8  N   UNL     1      -6.552 -10.398   6.635  0.00  0.00    -0.223 NA
ATOM     16  C   UNL     1      -5.374 -10.712   7.206  0.00  0.00    +0.216 A 
ATOM     18  C   UNL     1      -4.568 -11.775   5.365  0.00  0.00    +0.076 A 
ATOM     19  C   UNL     1      -6.698 -10.817   5.360  0.00  0.00    +0.116 A 
ATOM     20  C   UNL     1      -5.731 -11.516   4.669  0.00  0.00    +0.048 A 
ATOM     40  H   UNL     1      -5.974  -9.836   8.962  0.00  0.00    +0.149 HD
BRANCH  18  22
ATOM     22  C   UNL     1      -3.478 -12.500   4.756  0.00  0.00    +0.001 A 
ATOM     25  C   UNL     1      -2.645 -13.295   5.543  0.00  0.00    +0.010 A 
ATOM     26  C   UNL     1      -3.259 -12.406   3.382  0.00  0.00    +0.010 A 
ATOM     27  C   UNL     1      -1.592 -13.997   4.955  0.00  0.00    +0.009 A 
ATOM     28  C   UNL     1      -2.207 -13.108   2.794  0.00  0.00    +0.009 A 
ATOM     29  C   UNL     1      -1.373 -13.903   3.580  0.00  0.00    -0.018 A 
BRANCH  29  33
ATOM     33  C   UNL     1      -0.281 -14.631   2.970  0.00  0.00    -0.018 A 
ATOM     34  C   UNL     1       0.128 -14.317   1.674  0.00  0.00    +0.008 A 
ATOM     35  C   UNL     1       0.363 -15.645   3.679  0.00  0.00    +0.008 A 
ATOM     36  C   UNL     1       1.180 -15.019   1.086  0.00  0.00    +0.001 A 
ATOM     37  C   UNL     1       1.416 -16.346   3.092  0.00  0.00    +0.001 A 
ATOM     38  C   UNL     1       1.825 -16.033   1.795  0.00  0.00    +0.000 A 
ENDBRANCH  29  33
ENDBRANCH  18  22
ENDBRANCH  12   6
BRANCH  13   3
ATOM      3  O   UNL     1      -4.001 -10.339  13.840  0.00  0.00    -0.442 OA
BRANCH   3  17
ATOM      4  O   UNL     1      -3.734 -11.561  15.755  0.00  0.00    -0.226 OA
ATOM      9  N   UNL     1      -5.630 -10.237  15.396  0.00  0.00    -0.251 N 
ATOM     17  C   UNL     1      -4.404 -10.789  15.080  0.00  0.00    +0.405 C 
ATOM     41  H   UNL     1      -6.034  -9.612  14.703  0.00  0.00    +0.158 HD
BRANCH   9  21
ATOM     21  C   UNL     1      -6.397 -10.432  16.567  0.00  0.00    +0.037 A 
ATOM     23  C   UNL     1      -7.742 -10.787  16.468  0.00  0.00    +0.027 A 
ATOM     24  C   UNL     1      -5.809 -10.270  17.822  0.00  0.00    +0.027 A 
ATOM     30  C   UNL     1      -8.499 -10.981  17.624  0.00  0.00    +0.047 A 
ATOM     31  C   UNL     1      -6.567 -10.463  18.977  0.00  0.00    +0.047 A 
ATOM     32  C   UNL     1      -7.912 -10.819  18.878  0.00  0.00    +0.120 A 
BRANCH  32   5
ATOM      5  O   UNL     1      -8.650 -11.008  20.005  0.00  0.00    -0.495 OA
ATOM     39  C   UNL     1      -9.710 -11.961  19.935  0.00  0.00    +0.277 C 
ENDBRANCH  32   5
ENDBRANCH   9  21
ENDBRANCH   3  17
ENDBRANCH  13   3
TORSDOF 7
ENDMDL
MODEL 8
REMARK VINA RESULT:      -7.6      4.284      9.814
REMARK  Name = 11913096
REMARK  8 active torsions:
REMARK  status: ('A' for Active; 'I' for Inactive)
REMARK    1  A    between atoms: O_3  and  C_13
REMARK    2  A    between atoms: O_3  and  C_17
REMARK    3  A    between atoms: O_5  and  C_32
REMARK    4  A    between atoms: O_5  and  C_39
REMARK    5  A    between atoms: N_6  and  C_12
REMARK    6  A    between atoms: N_9  and  C_21
REMARK    7  A    between atoms: C_18  and  C_22
REMARK    8  A    between atoms: C_29  and  C_33
REMARK                            x       y       z     vdW  Elec       q    Type
REMARK                         _______ _______ _______ _____ _____    ______ ____
ROOT
ATOM      1  O   UNL     1      -4.595  -9.051  10.167  0.00  0.00    -0.368 OA
ATOM      2  O   UNL     1      -5.609 -11.946  10.236  0.00  0.00    -0.368 OA
ATOM     10  C   UNL     1      -4.350 -11.364  10.632  0.00  0.00    +0.173 C 
ATOM     11  C   UNL     1      -4.041 -10.266   9.633  0.00  0.00    +0.192 C 
ATOM     12  C   UNL     1      -4.507 -10.633  11.944  0.00  0.00    +0.130 C 
ATOM     13  C   UNL     1      -4.784 -10.724   8.401  0.00  0.00    +0.235 C 
ATOM     14  C   UNL     1      -5.068  -9.292  11.502  0.00  0.00    +0.185 C 
ATOM     15  C   UNL     1      -6.023 -11.357   8.995  0.00  0.00    +0.207 C 
ENDROOT
BRANCH  12   6
ATOM      6  N   UNL     1      -3.218 -10.454  12.577  0.00  0.00    -0.306 N 
ATOM      7  N   UNL     1      -4.093 -10.856  14.690  0.00  0.00    -0.214 NA
ATOM      8  N   UNL     1      -1.753 -10.372  14.377  0.00  0.00    -0.223 NA
ATOM     16  C   UNL     1      -3.012 -10.566  13.940  0.00  0.00    +0.216 A 
ATOM     18  C   UNL     1      -3.857 -10.956  16.015  0.00  0.00    +0.076 A 
ATOM     19  C   UNL     1      -1.589 -10.488  15.711  0.00  0.00    +0.116 A 
ATOM     20  C   UNL     1      -2.613 -10.782  16.587  0.00  0.00    +0.048 A 
ATOM     40  H   UNL     1      -2.399 -10.287  12.002  0.00  0.00    +0.149 HD
BRANCH  18  22
ATOM     22  C   UNL     1      -5.013 -11.269  16.821  0.00  0.00    +0.001 A 
ATOM     25  C   UNL     1      -6.291 -11.166  16.273  0.00  0.00    +0.010 A 
ATOM     26  C   UNL     1      -4.851 -11.674  18.145  0.00  0.00    +0.010 A 
ATOM     27  C   UNL     1      -7.409 -11.468  17.052  0.00  0.00    +0.009 A 
ATOM     28  C   UNL     1      -5.969 -11.976  18.923  0.00  0.00    +0.009 A 
ATOM     29  C   UNL     1      -7.248 -11.874  18.377  0.00  0.00    -0.018 A 
BRANCH  29  33
ATOM     33  C   UNL     1      -8.407 -12.188  19.184  0.00  0.00    -0.018 A 
ATOM     34  C   UNL     1      -8.484 -13.412  19.848  0.00  0.00    +0.008 A 
ATOM     35  C   UNL     1      -9.447 -11.266  19.298  0.00  0.00    +0.008 A 
ATOM     36  C   UNL     1      -9.602 -13.715  20.625  0.00  0.00    +0.001 A 
ATOM     37  C   UNL     1     -10.564 -11.567  20.077  0.00  0.00    +0.001 A 
ATOM     38  C   UNL     1     -10.642 -12.792  20.741  0.00  0.00    +0.000 A 
ENDBRANCH  29  33
ENDBRANCH  18  22
ENDBRANCH  12   6
BRANCH  13   3
ATOM      3  O   UNL     1      -5.098  -9.677   7.511  0.00  0.00    -0.442 OA
BRANCH   3  17
ATOM      4  O   UNL     1      -7.128 -10.020   6.516  0.00  0.00    -0.226 OA
ATOM      9  N   UNL     1      -6.822  -8.369   8.146  0.00  0.00    -0.251 N 
ATOM     17  C   UNL     1      -6.436  -9.404   7.317  0.00  0.00    +0.405 C 
ATOM     41  H   UNL     1      -6.099  -7.980   8.748  0.00  0.00    +0.158 HD
BRANCH   9  21
ATOM     21  C   UNL     1      -8.100  -7.778   8.265  0.00  0.00    +0.037 A 
ATOM     23  C   UNL     1      -8.489  -6.774   7.379  0.00  0.00    +0.027 A 
ATOM     24  C   UNL     1      -8.973  -8.200   9.268  0.00  0.00    +0.027 A 
ATOM     30  C   UNL     1      -9.753  -6.192   7.496  0.00  0.00    +0.047 A 
ATOM     31  C   UNL     1     -10.236  -7.618   9.385  0.00  0.00    +0.047 A 
ATOM     32  C   UNL     1     -10.625  -6.614   8.498  0.00  0.00    +0.120 A 
BRANCH  32   5
ATOM      5  O   UNL     1     -11.857  -6.047   8.612  0.00  0.00    -0.495 OA
ATOM     39  C   UNL     1     -12.908  -6.872   9.112  0.00  0.00    +0.277 C 
ENDBRANCH  32   5
ENDBRANCH   9  21
ENDBRANCH   3  17
ENDBRANCH  13   3
TORSDOF 7
ENDMDL
MODEL 9
REMARK VINA RESULT:      -7.5      2.274      3.062
REMARK  Name = 11913096
REMARK  8 active torsions:
REMARK  status: ('A' for Active; 'I' for Inactive)
REMARK    1  A    between atoms: O_3  and  C_13
REMARK    2  A    between atoms: O_3  and  C_17
REMARK    3  A    between atoms: O_5  and  C_32
REMARK    4  A    between atoms: O_5  and  C_39
REMARK    5  A    between atoms: N_6  and  C_12
REMARK    6  A    between atoms: N_9  and  C_21
REMARK    7  A    between atoms: C_18  and  C_22
REMARK    8  A    between atoms: C_29  and  C_33
REMARK                            x       y       z     vdW  Elec       q    Type
REMARK                         _______ _______ _______ _____ _____    ______ ____
ROOT
ATOM      1  O   UNL     1      -6.803 -12.040  16.606  0.00  0.00    -0.368 OA
ATOM      2  O   UNL     1      -7.936  -9.223  16.160  0.00  0.00    -0.368 OA
ATOM     10  C   UNL     1      -6.608  -9.679  16.492  0.00  0.00    +0.173 C 
ATOM     11  C   UNL     1      -6.770 -10.861  17.427  0.00  0.00    +0.192 C 
ATOM     12  C   UNL     1      -5.943 -10.268  15.269  0.00  0.00    +0.130 C 
ATOM     13  C   UNL     1      -8.109 -10.589  18.070  0.00  0.00    +0.235 C 
ATOM     14  C   UNL     1      -6.498 -11.681  15.249  0.00  0.00    +0.185 C 
ATOM     15  C   UNL     1      -8.889  -9.972  16.930  0.00  0.00    +0.207 C 
ENDROOT
BRANCH  12   6
ATOM      6  N   UNL     1      -4.506 -10.295  15.444  0.00  0.00    -0.306 N 
ATOM      7  N   UNL     1      -4.134 -10.370  13.153  0.00  0.00    -0.214 NA
ATOM      8  N   UNL     1      -2.302 -10.364  14.718  0.00  0.00    -0.223 NA
ATOM     16  C   UNL     1      -3.608 -10.345  14.393  0.00  0.00    +0.216 A 
ATOM     18  C   UNL     1      -3.230 -10.419  12.152  0.00  0.00    +0.076 A 
ATOM     19  C   UNL     1      -1.454 -10.413  13.669  0.00  0.00    +0.116 A 
ATOM     20  C   UNL     1      -1.865 -10.442  12.353  0.00  0.00    +0.048 A 
ATOM     40  H   UNL     1      -4.116 -10.224  16.378  0.00  0.00    +0.149 HD
BRANCH  18  22
ATOM     22  C   UNL     1      -3.790 -10.444  10.822  0.00  0.00    +0.001 A 
ATOM     25  C   UNL     1      -4.109  -9.247  10.179  0.00  0.00    +0.010 A 
ATOM     26  C   UNL     1      -4.011 -11.661  10.180  0.00  0.00    +0.010 A 
ATOM     27  C   UNL     1      -4.650  -9.270   8.893  0.00  0.00    +0.009 A 
ATOM     28  C   UNL     1      -4.552 -11.684   8.894  0.00  0.00    +0.009 A 
ATOM     29  C   UNL     1      -4.871 -10.488   8.251  0.00  0.00    -0.018 A 
BRANCH  29  33
ATOM     33  C   UNL     1      -5.432 -10.512   6.917  0.00  0.00    -0.018 A 
ATOM     34  C   UNL     1      -5.042 -11.500   6.014  0.00  0.00    +0.008 A 
ATOM     35  C   UNL     1      -6.364  -9.547   6.536  0.00  0.00    +0.008 A 
ATOM     36  C   UNL     1      -5.581 -11.522   4.728  0.00  0.00    +0.001 A 
ATOM     37  C   UNL     1      -6.905  -9.570   5.251  0.00  0.00    +0.001 A 
ATOM     38  C   UNL     1      -6.515 -10.558   4.346  0.00  0.00    +0.000 A 
ENDBRANCH  29  33
ENDBRANCH  18  22
ENDBRANCH  12   6
BRANCH  13   3
ATOM      3  O   UNL     1      -8.736 -11.747  18.575  0.00  0.00    -0.442 OA
BRANCH   3  17
ATOM      4  O   UNL     1      -9.401 -10.644  20.464  0.00  0.00    -0.226 OA
ATOM      9  N   UNL     1     -10.421 -12.636  19.781  0.00  0.00    -0.251 N 
ATOM     17  C   UNL     1      -9.524 -11.590  19.696  0.00  0.00    +0.405 C 
ATOM     41  H   UNL     1     -10.371 -13.333  19.041  0.00  0.00    +0.158 HD
BRANCH   9  21
ATOM     21  C   UNL     1     -11.405 -12.862  20.770  0.00  0.00    +0.037 A 
ATOM     23  C   UNL     1     -12.589 -12.125  20.757  0.00  0.00    +0.027 A 
ATOM     24  C   UNL     1     -11.193 -13.823  21.759  0.00  0.00    +0.027 A 
ATOM     30  C   UNL     1     -13.560 -12.349  21.733  0.00  0.00    +0.047 A 
ATOM     31  C   UNL     1     -12.164 -14.046  22.734  0.00  0.00    +0.047 A 
ATOM     32  C   UNL     1     -13.348 -13.309  22.721  0.00  0.00    +0.120 A 
BRANCH  32   5
ATOM      5  O   UNL     1     -14.295 -13.528  23.673  0.00  0.00    -0.495 OA
ATOM     39  C   UNL     1     -14.212 -12.747  24.864  0.00  0.00    +0.277 C 
ENDBRANCH  32   5
ENDBRANCH   9  21
ENDBRANCH   3  17
ENDBRANCH  13   3
TORSDOF 7
ENDMDL
MODEL 10
REMARK VINA RESULT:      -7.4     28.186     32.281
REMARK  Name = 11913096
REMARK  8 active torsions:
REMARK  status: ('A' for Active; 'I' for Inactive)
REMARK    1  A    between atoms: O_3  and  C_13
REMARK    2  A    between atoms: O_3  and  C_17
REMARK    3  A    between atoms: O_5  and  C_32
REMARK    4  A    between atoms: O_5  and  C_39
REMARK    5  A    between atoms: N_6  and  C_12
REMARK    6  A    between atoms: N_9  and  C_21
REMARK    7  A    between atoms: C_18  and  C_22
REMARK    8  A    between atoms: C_29  and  C_33
REMARK                            x       y       z     vdW  Elec       q    Type
REMARK                         _______ _______ _______ _____ _____    ______ ____
ROOT
ATOM      1  O   UNL     1      11.466  12.662  24.922  0.00  0.00    -0.368 OA
ATOM      2  O   UNL     1      13.987  12.455  23.185  0.00  0.00    -0.368 OA
ATOM     10  C   UNL     1      12.906  11.528  23.417  0.00  0.00    +0.173 C 
ATOM     11  C   UNL     1      12.509  11.673  24.873  0.00  0.00    +0.192 C 
ATOM     12  C   UNL     1      11.677  11.965  22.656  0.00  0.00    +0.130 C 
ATOM     13  C   UNL     1      13.783  12.171  25.512  0.00  0.00    +0.235 C 
ATOM     14  C   UNL     1      11.075  13.006  23.583  0.00  0.00    +0.185 C 
ATOM     15  C   UNL     1      14.353  13.064  24.432  0.00  0.00    +0.207 C 
ENDROOT
BRANCH  12   6
ATOM      6  N   UNL     1      10.766  10.852  22.492  0.00  0.00    -0.306 N 
ATOM      7  N   UNL     1      12.499   9.383  22.012  0.00  0.00    -0.214 NA
ATOM      8  N   UNL     1      10.207   8.641  22.057  0.00  0.00    -0.223 NA
ATOM     16  C   UNL     1      11.175   9.569  22.173  0.00  0.00    +0.216 A 
ATOM     18  C   UNL     1      12.862   8.121  21.701  0.00  0.00    +0.076 A 
ATOM     19  C   UNL     1      10.640   7.402  21.745  0.00  0.00    +0.116 A 
ATOM     20  C   UNL     1      11.968   7.080  21.554  0.00  0.00    +0.048 A 
ATOM     40  H   UNL     1       9.776  10.988  22.666  0.00  0.00    +0.149 HD
BRANCH  18  22
ATOM     22  C   UNL     1      14.281   7.917  21.529  0.00  0.00    +0.001 A 
ATOM     25  C   UNL     1      14.751   6.721  20.987  0.00  0.00    +0.010 A 
ATOM     26  C   UNL     1      15.180   8.913  21.905  0.00  0.00    +0.010 A 
ATOM     27  C   UNL     1      16.122   6.523  20.820  0.00  0.00    +0.009 A 
ATOM     28  C   UNL     1      16.551   8.716  21.738  0.00  0.00    +0.009 A 
ATOM     29  C   UNL     1      17.022   7.520  21.195  0.00  0.00    -0.018 A 
BRANCH  29  33
ATOM     33  C   UNL     1      18.444   7.315  21.022  0.00  0.00    -0.018 A 
ATOM     34  C   UNL     1      19.342   8.323  21.372  0.00  0.00    +0.008 A 
ATOM     35  C   UNL     1      18.916   6.108  20.507  0.00  0.00    +0.008 A 
ATOM     36  C   UNL     1      20.712   8.126  21.205  0.00  0.00    +0.001 A 
ATOM     37  C   UNL     1      20.286   5.910  20.341  0.00  0.00    +0.001 A 
ATOM     38  C   UNL     1      21.185   6.918  20.690  0.00  0.00    +0.000 A 
ENDBRANCH  29  33
ENDBRANCH  18  22
ENDBRANCH  12   6
BRANCH  13   3
ATOM      3  O   UNL     1      13.571  12.869  26.719  0.00  0.00    -0.442 OA
BRANCH   3  17
ATOM      4  O   UNL     1      14.915  13.647  28.397  0.00  0.00    -0.226 OA
ATOM      9  N   UNL     1      14.929  11.396  27.754  0.00  0.00    -0.251 N 
ATOM     17  C   UNL     1      14.524  12.716  27.703  0.00  0.00    +0.405 C 
ATOM     41  H   UNL     1      14.486  10.764  27.091  0.00  0.00    +0.158 HD
BRANCH   9  21
ATOM     21  C   UNL     1      15.885  10.811  28.615  0.00  0.00    +0.037 A 
ATOM     23  C   UNL     1      17.240  10.868  28.292  0.00  0.00    +0.027 A 
ATOM     24  C   UNL     1      15.473  10.177  29.788  0.00  0.00    +0.027 A 
ATOM     30  C   UNL     1      18.184  10.290  29.143  0.00  0.00    +0.047 A 
ATOM     31  C   UNL     1      16.416   9.600  30.638  0.00  0.00    +0.047 A 
ATOM     32  C   UNL     1      17.772   9.657  30.315  0.00  0.00    +0.120 A 
BRANCH  32   5
ATOM      5  O   UNL     1      18.692   9.095  31.145  0.00  0.00    -0.495 OA
ATOM     39  C   UNL     1      18.943   7.699  30.987  0.00  0.00    +0.277 C 
ENDBRANCH  32   5
ENDBRANCH   9  21
ENDBRANCH   3  17
ENDBRANCH  13   3
TORSDOF 7
ENDMDL
