MODEL 1
REMARK VINA RESULT:      -6.5      0.000      0.000
REMARK  Name = 51137020
REMARK  8 active torsions:
REMARK  status: ('A' for Active; 'I' for Inactive)
REMARK    1  A    between atoms: O_2  and  C_17
REMARK    2  A    between atoms: O_2  and  C_22
REMARK    3  A    between atoms: O_3  and  C_20
REMARK    4  A    between atoms: O_3  and  C_23
REMARK    5  A    between atoms: O_4  and  C_24
REMARK    6  A    between atoms: C_9  and  C_13
REMARK    7  A    between atoms: C_14  and  C_17
REMARK    8  A    between atoms: C_22  and  C_24
REMARK                            x       y       z     vdW  Elec       q    Type
REMARK                         _______ _______ _______ _____ _____    ______ ____
ROOT
ATOM      1  O   UNL     1      13.644   8.510  15.053  0.00  0.00    -0.273 OA
ATOM      6  N   UNL     1      13.496   8.885  17.328  0.00  0.00    -0.299 N 
ATOM      9  C   UNL     1      13.662   7.463  19.226  0.00  0.00    +0.074 C 
ATOM     10  C   UNL     1      13.086   8.824  19.652  0.00  0.00    +0.032 C 
ATOM     11  C   UNL     1      13.430   7.480  17.710  0.00  0.00    +0.119 C 
ATOM     12  C   UNL     1      13.446   9.753  18.499  0.00  0.00    +0.108 C 
ATOM     14  C   UNL     1      13.604   9.286  16.010  0.00  0.00    +0.241 C 
ENDROOT
BRANCH   9  13
ATOM      7  N   UNL     1      15.885   6.284  19.214  0.00  0.00    -0.341 N 
ATOM      8  N   UNL     1      15.735   8.046  20.561  0.00  0.00    -0.232 NA
ATOM     13  C   UNL     1      15.097   7.294  19.692  0.00  0.00    +0.113 A 
ATOM     15  C   UNL     1      17.114   6.392  19.814  0.00  0.00    +0.070 A 
ATOM     16  C   UNL     1      16.995   7.499  20.650  0.00  0.00    +0.089 A 
ATOM     18  C   UNL     1      18.283   5.640  19.702  0.00  0.00    +0.073 A 
ATOM     19  C   UNL     1      18.097   7.892  21.427  0.00  0.00    +0.033 A 
ATOM     20  C   UNL     1      19.371   6.046  20.482  0.00  0.00    +0.122 A 
ATOM     21  C   UNL     1      19.282   7.152  21.331  0.00  0.00    +0.048 A 
ATOM     25  H   UNL     1      15.614   5.581  18.540  0.00  0.00    +0.167 HD
BRANCH  20   3
ATOM      3  O   UNL     1      20.540   5.346  20.413  0.00  0.00    -0.495 OA
ATOM     23  C   UNL     1      21.279   5.202  21.624  0.00  0.00    +0.277 C 
ENDBRANCH  20   3
ENDBRANCH   9  13
BRANCH  14  17
ATOM     17  C   UNL     1      13.668  10.775  15.786  0.00  0.00    +0.256 C 
BRANCH  17   2
ATOM      2  O   UNL     1      13.703  10.972  14.393  0.00  0.00    -0.359 OA
BRANCH   2  22
ATOM     22  C   UNL     1      14.507  12.093  14.030  0.00  0.00    +0.280 C 
BRANCH  22  24
ATOM      5  O   UNL     1      16.917  11.808  14.155  0.00  0.00    -0.248 OA
ATOM     24  C   UNL     1      15.860  11.622  13.571  0.00  0.00    +0.331 C 
BRANCH  24   4
ATOM      4  O   UNL     1      15.748  10.948  12.399  0.00  0.00    -0.479 OA
ATOM     26  H   UNL     1      16.213  10.085  12.428  0.00  0.00    +0.295 HD
ENDBRANCH  24   4
ENDBRANCH  22  24
ENDBRANCH   2  22
ENDBRANCH  17   2
ENDBRANCH  14  17
TORSDOF 7
ENDMDL
MODEL 2
REMARK VINA RESULT:      -6.4      4.254      5.893
REMARK  Name = 51137020
REMARK  8 active torsions:
REMARK  status: ('A' for Active; 'I' for Inactive)
REMARK    1  A    between atoms: O_2  and  C_17
REMARK    2  A    between atoms: O_2  and  C_22
REMARK    3  A    between atoms: O_3  and  C_20
REMARK    4  A    between atoms: O_3  and  C_23
REMARK    5  A    between atoms: O_4  and  C_24
REMARK    6  A    between atoms: C_9  and  C_13
REMARK    7  A    between atoms: C_14  and  C_17
REMARK    8  A    between atoms: C_22  and  C_24
REMARK                            x       y       z     vdW  Elec       q    Type
REMARK                         _______ _______ _______ _____ _____    ______ ____
ROOT
ATOM      1  O   UNL     1      12.562  11.522  20.126  0.00  0.00    -0.273 OA
ATOM      6  N   UNL     1      12.613   9.215  20.012  0.00  0.00    -0.299 N 
ATOM      9  C   UNL     1      13.779   7.680  18.620  0.00  0.00    +0.074 C 
ATOM     10  C   UNL     1      12.670   6.940  19.387  0.00  0.00    +0.032 C 
ATOM     11  C   UNL     1      13.330   9.141  18.745  0.00  0.00    +0.119 C 
ATOM     12  C   UNL     1      12.320   7.884  20.530  0.00  0.00    +0.108 C 
ATOM     14  C   UNL     1      12.290  10.420  20.606  0.00  0.00    +0.241 C 
ENDROOT
BRANCH   9  13
ATOM      7  N   UNL     1      15.765   8.138  20.096  0.00  0.00    -0.341 N 
ATOM      8  N   UNL     1      15.898   6.308  18.841  0.00  0.00    -0.232 NA
ATOM     13  C   UNL     1      15.156   7.342  19.166  0.00  0.00    +0.113 A 
ATOM     15  C   UNL     1      16.983   7.579  20.390  0.00  0.00    +0.070 A 
ATOM     16  C   UNL     1      17.042   6.439  19.594  0.00  0.00    +0.089 A 
ATOM     18  C   UNL     1      18.006   7.962  21.257  0.00  0.00    +0.073 A 
ATOM     19  C   UNL     1      18.182   5.621  19.653  0.00  0.00    +0.033 A 
ATOM     20  C   UNL     1      19.134   7.136  21.305  0.00  0.00    +0.122 A 
ATOM     21  C   UNL     1      19.223   5.985  20.517  0.00  0.00    +0.048 A 
ATOM     25  H   UNL     1      15.390   8.987  20.496  0.00  0.00    +0.167 HD
BRANCH  20   3
ATOM      3  O   UNL     1      20.166   7.461  22.135  0.00  0.00    -0.495 OA
ATOM     23  C   UNL     1      20.788   6.392  22.843  0.00  0.00    +0.277 C 
ENDBRANCH  20   3
ENDBRANCH   9  13
BRANCH  14  17
ATOM     17  C   UNL     1      11.554  10.322  21.919  0.00  0.00    +0.256 C 
BRANCH  17   2
ATOM      2  O   UNL     1      12.516  10.487  22.933  0.00  0.00    -0.359 OA
BRANCH   2  22
ATOM     22  C   UNL     1      12.316  11.692  23.669  0.00  0.00    +0.280 C 
BRANCH  22  24
ATOM      5  O   UNL     1      10.159  12.266  24.628  0.00  0.00    -0.248 OA
ATOM     24  C   UNL     1      11.138  11.537  24.591  0.00  0.00    +0.331 C 
BRANCH  24   4
ATOM      4  O   UNL     1      11.310  10.456  25.392  0.00  0.00    -0.479 OA
ATOM     26  H   UNL     1      10.462  10.001  25.580  0.00  0.00    +0.295 HD
ENDBRANCH  24   4
ENDBRANCH  22  24
ENDBRANCH   2  22
ENDBRANCH  17   2
ENDBRANCH  14  17
TORSDOF 7
ENDMDL
MODEL 3
REMARK VINA RESULT:      -6.2      2.345      3.556
REMARK  Name = 51137020
REMARK  8 active torsions:
REMARK  status: ('A' for Active; 'I' for Inactive)
REMARK    1  A    between atoms: O_2  and  C_17
REMARK    2  A    between atoms: O_2  and  C_22
REMARK    3  A    between atoms: O_3  and  C_20
REMARK    4  A    between atoms: O_3  and  C_23
REMARK    5  A    between atoms: O_4  and  C_24
REMARK    6  A    between atoms: C_9  and  C_13
REMARK    7  A    between atoms: C_14  and  C_17
REMARK    8  A    between atoms: C_22  and  C_24
REMARK                            x       y       z     vdW  Elec       q    Type
REMARK                         _______ _______ _______ _____ _____    ______ ____
ROOT
ATOM      1  O   UNL     1      11.888   6.411  19.883  0.00  0.00    -0.273 OA
ATOM      6  N   UNL     1      13.228   8.230  20.370  0.00  0.00    -0.299 N 
ATOM      9  C   UNL     1      14.812   8.671  22.087  0.00  0.00    +0.074 C 
ATOM     10  C   UNL     1      14.469   9.979  21.355  0.00  0.00    +0.032 C 
ATOM     11  C   UNL     1      13.637   7.769  21.691  0.00  0.00    +0.119 C 
ATOM     12  C   UNL     1      13.837   9.515  20.049  0.00  0.00    +0.108 C 
ATOM     14  C   UNL     1      12.377   7.496  19.564  0.00  0.00    +0.241 C 
ENDROOT
BRANCH   9  13
ATOM      7  N   UNL     1      17.316   8.911  22.023  0.00  0.00    -0.341 N 
ATOM      8  N   UNL     1      16.503   7.050  21.120  0.00  0.00    -0.232 NA
ATOM     13  C   UNL     1      16.202   8.177  21.726  0.00  0.00    +0.113 A 
ATOM     15  C   UNL     1      18.409   8.212  21.579  0.00  0.00    +0.070 A 
ATOM     16  C   UNL     1      17.875   7.054  21.018  0.00  0.00    +0.089 A 
ATOM     18  C   UNL     1      19.777   8.484  21.616  0.00  0.00    +0.073 A 
ATOM     19  C   UNL     1      18.742   6.102  20.459  0.00  0.00    +0.033 A 
ATOM     20  C   UNL     1      20.626   7.524  21.054  0.00  0.00    +0.122 A 
ATOM     21  C   UNL     1      20.119   6.353  20.485  0.00  0.00    +0.048 A 
ATOM     25  H   UNL     1      17.335   9.810  22.485  0.00  0.00    +0.167 HD
BRANCH  20   3
ATOM      3  O   UNL     1      21.973   7.738  21.063  0.00  0.00    -0.495 OA
ATOM     23  C   UNL     1      22.462   8.742  21.948  0.00  0.00    +0.277 C 
ENDBRANCH  20   3
ENDBRANCH   9  13
BRANCH  14  17
ATOM     17  C   UNL     1      12.058   8.112  18.225  0.00  0.00    +0.256 C 
BRANCH  17   2
ATOM      2  O   UNL     1      12.877   7.466  17.280  0.00  0.00    -0.359 OA
BRANCH   2  22
ATOM     22  C   UNL     1      13.769   8.374  16.635  0.00  0.00    +0.280 C 
BRANCH  22  24
ATOM      5  O   UNL     1      12.142   9.285  15.078  0.00  0.00    -0.248 OA
ATOM     24  C   UNL     1      12.985   9.455  15.946  0.00  0.00    +0.331 C 
BRANCH  24   4
ATOM      4  O   UNL     1      13.344  10.673  16.426  0.00  0.00    -0.479 OA
ATOM     26  H   UNL     1      14.268  10.901  16.190  0.00  0.00    +0.295 HD
ENDBRANCH  24   4
ENDBRANCH  22  24
ENDBRANCH   2  22
ENDBRANCH  17   2
ENDBRANCH  14  17
TORSDOF 7
ENDMDL
MODEL 4
REMARK VINA RESULT:      -6.2     26.754     28.659
REMARK  Name = 51137020
REMARK  8 active torsions:
REMARK  status: ('A' for Active; 'I' for Inactive)
REMARK    1  A    between atoms: O_2  and  C_17
REMARK    2  A    between atoms: O_2  and  C_22
REMARK    3  A    between atoms: O_3  and  C_20
REMARK    4  A    between atoms: O_3  and  C_23
REMARK    5  A    between atoms: O_4  and  C_24
REMARK    6  A    between atoms: C_9  and  C_13
REMARK    7  A    between atoms: C_14  and  C_17
REMARK    8  A    between atoms: C_22  and  C_24
REMARK                            x       y       z     vdW  Elec       q    Type
REMARK                         _______ _______ _______ _____ _____    ______ ____
ROOT
ATOM      1  O   UNL     1      -2.762  -9.543  10.846  0.00  0.00    -0.273 OA
ATOM      6  N   UNL     1      -2.513 -11.149  12.489  0.00  0.00    -0.299 N 
ATOM      9  C   UNL     1      -1.939 -11.043  14.793  0.00  0.00    +0.074 C 
ATOM     10  C   UNL     1      -1.856 -12.500  14.309  0.00  0.00    +0.032 C 
ATOM     11  C   UNL     1      -1.897 -10.267  13.472  0.00  0.00    +0.119 C 
ATOM     12  C   UNL     1      -2.655 -12.503  13.012  0.00  0.00    +0.108 C 
ATOM     14  C   UNL     1      -2.904 -10.702  11.240  0.00  0.00    +0.241 C 
ENDROOT
BRANCH   9  13
ATOM      7  N   UNL     1      -4.277 -10.203  15.196  0.00  0.00    -0.341 N 
ATOM      8  N   UNL     1      -3.282 -11.158  16.940  0.00  0.00    -0.232 NA
ATOM     13  C   UNL     1      -3.153 -10.817  15.677  0.00  0.00    +0.113 A 
ATOM     15  C   UNL     1      -5.191 -10.145  16.217  0.00  0.00    +0.070 A 
ATOM     16  C   UNL     1      -4.546 -10.747  17.294  0.00  0.00    +0.089 A 
ATOM     18  C   UNL     1      -6.486  -9.632  16.290  0.00  0.00    +0.073 A 
ATOM     19  C   UNL     1      -5.218 -10.852  18.523  0.00  0.00    +0.033 A 
ATOM     20  C   UNL     1      -7.141  -9.746  17.521  0.00  0.00    +0.122 A 
ATOM     21  C   UNL     1      -6.520 -10.345  18.620  0.00  0.00    +0.048 A 
ATOM     25  H   UNL     1      -4.413  -9.852  14.258  0.00  0.00    +0.167 HD
BRANCH  20   3
ATOM      3  O   UNL     1      -8.409  -9.261  17.649  0.00  0.00    -0.495 OA
ATOM     23  C   UNL     1      -9.456 -10.220  17.782  0.00  0.00    +0.277 C 
ENDBRANCH  20   3
ENDBRANCH   9  13
BRANCH  14  17
ATOM     17  C   UNL     1      -3.531 -11.740  10.345  0.00  0.00    +0.256 C 
BRANCH  17   2
ATOM      2  O   UNL     1      -4.698 -11.161   9.812  0.00  0.00    -0.359 OA
BRANCH   2  22
ATOM     22  C   UNL     1      -4.672 -11.118   8.387  0.00  0.00    +0.280 C 
BRANCH  22  24
ATOM      5  O   UNL     1      -5.979  -9.557   7.062  0.00  0.00    -0.248 OA
ATOM     24  C   UNL     1      -5.124  -9.766   7.909  0.00  0.00    +0.331 C 
BRANCH  24   4
ATOM      4  O   UNL     1      -4.444  -8.788   8.559  0.00  0.00    -0.479 OA
ATOM     26  H   UNL     1      -5.011  -8.009   8.743  0.00  0.00    +0.295 HD
ENDBRANCH  24   4
ENDBRANCH  22  24
ENDBRANCH   2  22
ENDBRANCH  17   2
ENDBRANCH  14  17
TORSDOF 7
ENDMDL
MODEL 5
REMARK VINA RESULT:      -6.1     31.204     33.607
REMARK  Name = 51137020
REMARK  8 active torsions:
REMARK  status: ('A' for Active; 'I' for Inactive)
REMARK    1  A    between atoms: O_2  and  C_17
REMARK    2  A    between atoms: O_2  and  C_22
REMARK    3  A    between atoms: O_3  and  C_20
REMARK    4  A    between atoms: O_3  and  C_23
REMARK    5  A    between atoms: O_4  and  C_24
REMARK    6  A    between atoms: C_9  and  C_13
REMARK    7  A    between atoms: C_14  and  C_17
REMARK    8  A    between atoms: C_22  and  C_24
REMARK                            x       y       z     vdW  Elec       q    Type
REMARK                         _______ _______ _______ _____ _____    ______ ____
ROOT
ATOM      1  O   UNL     1     -16.861   1.845  22.885  0.00  0.00    -0.273 OA
ATOM      6  N   UNL     1     -17.740   2.746  24.822  0.00  0.00    -0.299 N 
ATOM      9  C   UNL     1     -18.526   1.788  26.851  0.00  0.00    +0.074 C 
ATOM     10  C   UNL     1     -18.957   3.262  26.777  0.00  0.00    +0.032 C 
ATOM     11  C   UNL     1     -18.194   1.481  25.387  0.00  0.00    +0.119 C 
ATOM     12  C   UNL     1     -18.046   3.859  25.713  0.00  0.00    +0.108 C 
ATOM     14  C   UNL     1     -17.097   2.819  23.601  0.00  0.00    +0.241 C 
ENDROOT
BRANCH   9  13
ATOM      7  N   UNL     1     -17.302   2.373  28.971  0.00  0.00    -0.341 N 
ATOM      8  N   UNL     1     -16.455   0.681  27.805  0.00  0.00    -0.232 NA
ATOM     13  C   UNL     1     -17.408   1.584  27.860  0.00  0.00    +0.113 A 
ATOM     15  C   UNL     1     -16.208   1.950  29.681  0.00  0.00    +0.070 A 
ATOM     16  C   UNL     1     -15.696   0.894  28.932  0.00  0.00    +0.089 A 
ATOM     18  C   UNL     1     -15.637   2.387  30.877  0.00  0.00    +0.073 A 
ATOM     19  C   UNL     1     -14.549   0.224  29.388  0.00  0.00    +0.033 A 
ATOM     20  C   UNL     1     -14.496   1.709  31.316  0.00  0.00    +0.122 A 
ATOM     21  C   UNL     1     -13.959   0.646  30.586  0.00  0.00    +0.048 A 
ATOM     25  H   UNL     1     -17.918   3.133  29.228  0.00  0.00    +0.167 HD
BRANCH  20   3
ATOM      3  O   UNL     1     -13.896   2.094  32.479  0.00  0.00    -0.495 OA
ATOM     23  C   UNL     1     -14.617   1.860  33.686  0.00  0.00    +0.277 C 
ENDBRANCH  20   3
ENDBRANCH   9  13
BRANCH  14  17
ATOM     17  C   UNL     1     -16.687   4.203  23.164  0.00  0.00    +0.256 C 
BRANCH  17   2
ATOM      2  O   UNL     1     -15.386   4.090  22.638  0.00  0.00    -0.359 OA
BRANCH   2  22
ATOM     22  C   UNL     1     -14.459   4.938  23.314  0.00  0.00    +0.280 C 
BRANCH  22  24
ATOM      5  O   UNL     1     -13.097   5.903  21.548  0.00  0.00    -0.248 OA
ATOM     24  C   UNL     1     -13.225   5.115  22.473  0.00  0.00    +0.331 C 
BRANCH  24   4
ATOM      4  O   UNL     1     -12.250   4.267  22.888  0.00  0.00    -0.479 OA
ATOM     26  H   UNL     1     -12.013   3.616  22.194  0.00  0.00    +0.295 HD
ENDBRANCH  24   4
ENDBRANCH  22  24
ENDBRANCH   2  22
ENDBRANCH  17   2
ENDBRANCH  14  17
TORSDOF 7
ENDMDL
MODEL 6
REMARK VINA RESULT:      -6.0      5.066      7.637
REMARK  Name = 51137020
REMARK  8 active torsions:
REMARK  status: ('A' for Active; 'I' for Inactive)
REMARK    1  A    between atoms: O_2  and  C_17
REMARK    2  A    between atoms: O_2  and  C_22
REMARK    3  A    between atoms: O_3  and  C_20
REMARK    4  A    between atoms: O_3  and  C_23
REMARK    5  A    between atoms: O_4  and  C_24
REMARK    6  A    between atoms: C_9  and  C_13
REMARK    7  A    between atoms: C_14  and  C_17
REMARK    8  A    between atoms: C_22  and  C_24
REMARK                            x       y       z     vdW  Elec       q    Type
REMARK                         _______ _______ _______ _____ _____    ______ ____
ROOT
ATOM      1  O   UNL     1      14.964   7.977  19.666  0.00  0.00    -0.273 OA
ATOM      6  N   UNL     1      12.734   8.007  20.271  0.00  0.00    -0.299 N 
ATOM      9  C   UNL     1      11.615   8.332  22.343  0.00  0.00    +0.074 C 
ATOM     10  C   UNL     1      10.624   7.781  21.304  0.00  0.00    +0.032 C 
ATOM     11  C   UNL     1      12.967   7.981  21.710  0.00  0.00    +0.119 C 
ATOM     12  C   UNL     1      11.309   8.043  19.968  0.00  0.00    +0.108 C 
ATOM     14  C   UNL     1      13.772   8.008  19.357  0.00  0.00    +0.241 C 
ENDROOT
BRANCH   9  13
ATOM      7  N   UNL     1      11.142  10.245  23.908  0.00  0.00    -0.341 N 
ATOM      8  N   UNL     1      11.319  10.780  21.757  0.00  0.00    -0.232 NA
ATOM     13  C   UNL     1      11.361   9.801  22.633  0.00  0.00    +0.113 A 
ATOM     15  C   UNL     1      10.947  11.602  23.850  0.00  0.00    +0.070 A 
ATOM     16  C   UNL     1      11.062  11.911  22.497  0.00  0.00    +0.089 A 
ATOM     18  C   UNL     1      10.686  12.556  24.833  0.00  0.00    +0.073 A 
ATOM     19  C   UNL     1      10.911  13.245  22.084  0.00  0.00    +0.033 A 
ATOM     20  C   UNL     1      10.540  13.879  24.405  0.00  0.00    +0.122 A 
ATOM     21  C   UNL     1      10.649  14.220  23.054  0.00  0.00    +0.048 A 
ATOM     25  H   UNL     1      11.125   9.679  24.745  0.00  0.00    +0.167 HD
BRANCH  20   3
ATOM      3  O   UNL     1      10.284  14.854  25.323  0.00  0.00    -0.495 OA
ATOM     23  C   UNL     1      11.171  14.942  26.436  0.00  0.00    +0.277 C 
ENDBRANCH  20   3
ENDBRANCH   9  13
BRANCH  14  17
ATOM     17  C   UNL     1      13.361   8.043  17.907  0.00  0.00    +0.256 C 
BRANCH  17   2
ATOM      2  O   UNL     1      14.407   8.672  17.207  0.00  0.00    -0.359 OA
BRANCH   2  22
ATOM     22  C   UNL     1      14.117   8.805  15.816  0.00  0.00    +0.280 C 
BRANCH  22  24
ATOM      5  O   UNL     1      11.814   9.230  15.169  0.00  0.00    -0.248 OA
ATOM     24  C   UNL     1      12.872   9.628  15.633  0.00  0.00    +0.331 C 
BRANCH  24   4
ATOM      4  O   UNL     1      13.083  10.898  16.061  0.00  0.00    -0.479 OA
ATOM     26  H   UNL     1      13.158  10.947  17.037  0.00  0.00    +0.295 HD
ENDBRANCH  24   4
ENDBRANCH  22  24
ENDBRANCH   2  22
ENDBRANCH  17   2
ENDBRANCH  14  17
TORSDOF 7
ENDMDL
MODEL 7
REMARK VINA RESULT:      -6.0     27.091     28.587
REMARK  Name = 51137020
REMARK  8 active torsions:
REMARK  status: ('A' for Active; 'I' for Inactive)
REMARK    1  A    between atoms: O_2  and  C_17
REMARK    2  A    between atoms: O_2  and  C_22
REMARK    3  A    between atoms: O_3  and  C_20
REMARK    4  A    between atoms: O_3  and  C_23
REMARK    5  A    between atoms: O_4  and  C_24
REMARK    6  A    between atoms: C_9  and  C_13
REMARK    7  A    between atoms: C_14  and  C_17
REMARK    8  A    between atoms: C_22  and  C_24
REMARK                            x       y       z     vdW  Elec       q    Type
REMARK                         _______ _______ _______ _____ _____    ______ ____
ROOT
ATOM      1  O   UNL     1      -3.064  -9.154  10.022  0.00  0.00    -0.273 OA
ATOM      6  N   UNL     1      -2.872 -11.049  11.331  0.00  0.00    -0.299 N 
ATOM      9  C   UNL     1      -1.966 -11.448  13.492  0.00  0.00    +0.074 C 
ATOM     10  C   UNL     1      -2.213 -12.789  12.782  0.00  0.00    +0.032 C 
ATOM     11  C   UNL     1      -1.976 -10.461  12.319  0.00  0.00    +0.119 C 
ATOM     12  C   UNL     1      -3.176 -12.437  11.655  0.00  0.00    +0.108 C 
ATOM     14  C   UNL     1      -3.352 -10.330  10.251  0.00  0.00    +0.241 C 
ENDROOT
BRANCH   9  13
ATOM      7  N   UNL     1      -2.837 -11.768  15.831  0.00  0.00    -0.341 N 
ATOM      8  N   UNL     1      -4.068 -10.469  14.514  0.00  0.00    -0.232 NA
ATOM     13  C   UNL     1      -2.983 -11.205  14.594  0.00  0.00    +0.113 A 
ATOM     15  C   UNL     1      -3.899 -11.368  16.601  0.00  0.00    +0.070 A 
ATOM     16  C   UNL     1      -4.654 -10.558  15.756  0.00  0.00    +0.089 A 
ATOM     18  C   UNL     1      -4.256 -11.637  17.922  0.00  0.00    +0.073 A 
ATOM     19  C   UNL     1      -5.835  -9.974  16.241  0.00  0.00    +0.033 A 
ATOM     20  C   UNL     1      -5.435 -11.047  18.390  0.00  0.00    +0.122 A 
ATOM     21  C   UNL     1      -6.213 -10.231  17.565  0.00  0.00    +0.048 A 
ATOM     25  H   UNL     1      -2.083 -12.373  16.129  0.00  0.00    +0.167 HD
BRANCH  20   3
ATOM      3  O   UNL     1      -5.833 -11.276  19.674  0.00  0.00    -0.495 OA
ATOM     23  C   UNL     1      -7.045 -12.005  19.855  0.00  0.00    +0.277 C 
ENDBRANCH  20   3
ENDBRANCH   9  13
BRANCH  14  17
ATOM     17  C   UNL     1      -4.274 -11.083   9.327  0.00  0.00    +0.256 C 
BRANCH  17   2
ATOM      2  O   UNL     1      -5.052 -10.119   8.660  0.00  0.00    -0.359 OA
BRANCH   2  22
ATOM     22  C   UNL     1      -6.313  -9.913   9.297  0.00  0.00    +0.280 C 
BRANCH  22  24
ATOM      5  O   UNL     1      -7.819  -8.009   9.229  0.00  0.00    -0.248 OA
ATOM     24  C   UNL     1      -6.683  -8.457   9.234  0.00  0.00    +0.331 C 
BRANCH  24   4
ATOM      4  O   UNL     1      -5.565  -7.691   9.185  0.00  0.00    -0.479 OA
ATOM     26  H   UNL     1      -5.777  -6.740   9.080  0.00  0.00    +0.295 HD
ENDBRANCH  24   4
ENDBRANCH  22  24
ENDBRANCH   2  22
ENDBRANCH  17   2
ENDBRANCH  14  17
TORSDOF 7
ENDMDL
MODEL 8
REMARK VINA RESULT:      -5.8     28.005     30.709
REMARK  Name = 51137020
REMARK  8 active torsions:
REMARK  status: ('A' for Active; 'I' for Inactive)
REMARK    1  A    between atoms: O_2  and  C_17
REMARK    2  A    between atoms: O_2  and  C_22
REMARK    3  A    between atoms: O_3  and  C_20
REMARK    4  A    between atoms: O_3  and  C_23
REMARK    5  A    between atoms: O_4  and  C_24
REMARK    6  A    between atoms: C_9  and  C_13
REMARK    7  A    between atoms: C_14  and  C_17
REMARK    8  A    between atoms: C_22  and  C_24
REMARK                            x       y       z     vdW  Elec       q    Type
REMARK                         _______ _______ _______ _____ _____    ______ ____
ROOT
ATOM      1  O   UNL     1      -4.009 -11.247  18.073  0.00  0.00    -0.273 OA
ATOM      6  N   UNL     1      -6.083 -12.265  18.127  0.00  0.00    -0.299 N 
ATOM      9  C   UNL     1      -8.060 -11.865  19.385  0.00  0.00    +0.074 C 
ATOM     10  C   UNL     1      -8.161 -13.233  18.690  0.00  0.00    +0.032 C 
ATOM     11  C   UNL     1      -6.552 -11.592  19.331  0.00  0.00    +0.119 C 
ATOM     12  C   UNL     1      -7.097 -13.172  17.601  0.00  0.00    +0.108 C 
ATOM     14  C   UNL     1      -4.832 -12.027  17.589  0.00  0.00    +0.241 C 
ENDROOT
BRANCH   9  13
ATOM      7  N   UNL     1      -8.449  -9.699  18.163  0.00  0.00    -0.341 N 
ATOM      8  N   UNL     1     -10.269 -10.895  18.609  0.00  0.00    -0.232 NA
ATOM     13  C   UNL     1      -8.961 -10.836  18.724  0.00  0.00    +0.113 A 
ATOM     15  C   UNL     1      -9.496  -8.976  17.651  0.00  0.00    +0.070 A 
ATOM     16  C   UNL     1     -10.621  -9.743  17.943  0.00  0.00    +0.089 A 
ATOM     18  C   UNL     1      -9.555  -7.755  16.981  0.00  0.00    +0.073 A 
ATOM     19  C   UNL     1     -11.887  -9.280  17.548  0.00  0.00    +0.033 A 
ATOM     20  C   UNL     1     -10.824  -7.308  16.595  0.00  0.00    +0.122 A 
ATOM     21  C   UNL     1     -11.971  -8.055  16.873  0.00  0.00    +0.048 A 
ATOM     25  H   UNL     1      -7.474  -9.434  18.131  0.00  0.00    +0.167 HD
BRANCH  20   3
ATOM      3  O   UNL     1     -10.941  -6.120  15.936  0.00  0.00    -0.495 OA
ATOM     23  C   UNL     1     -12.155  -5.894  15.224  0.00  0.00    +0.277 C 
ENDBRANCH  20   3
ENDBRANCH   9  13
BRANCH  14  17
ATOM     17  C   UNL     1      -4.504 -12.800  16.337  0.00  0.00    +0.256 C 
BRANCH  17   2
ATOM      2  O   UNL     1      -4.094 -11.857  15.377  0.00  0.00    -0.359 OA
BRANCH   2  22
ATOM     22  C   UNL     1      -2.777 -12.120  14.895  0.00  0.00    +0.280 C 
BRANCH  22  24
ATOM      5  O   UNL     1      -1.584 -10.037  14.516  0.00  0.00    -0.248 OA
ATOM     24  C   UNL     1      -1.868 -10.974  15.246  0.00  0.00    +0.331 C 
BRANCH  24   4
ATOM      4  O   UNL     1      -1.396 -11.121  16.510  0.00  0.00    -0.479 OA
ATOM     26  H   UNL     1      -0.943 -10.311  16.828  0.00  0.00    +0.295 HD
ENDBRANCH  24   4
ENDBRANCH  22  24
ENDBRANCH   2  22
ENDBRANCH  17   2
ENDBRANCH  14  17
TORSDOF 7
ENDMDL
MODEL 9
REMARK VINA RESULT:      -5.8     27.216     30.347
REMARK  Name = 51137020
REMARK  8 active torsions:
REMARK  status: ('A' for Active; 'I' for Inactive)
REMARK    1  A    between atoms: O_2  and  C_17
REMARK    2  A    between atoms: O_2  and  C_22
REMARK    3  A    between atoms: O_3  and  C_20
REMARK    4  A    between atoms: O_3  and  C_23
REMARK    5  A    between atoms: O_4  and  C_24
REMARK    6  A    between atoms: C_9  and  C_13
REMARK    7  A    between atoms: C_14  and  C_17
REMARK    8  A    between atoms: C_22  and  C_24
REMARK                            x       y       z     vdW  Elec       q    Type
REMARK                         _______ _______ _______ _____ _____    ______ ____
ROOT
ATOM      1  O   UNL     1     -14.233   4.462  21.842  0.00  0.00    -0.273 OA
ATOM      6  N   UNL     1     -13.668   6.682  21.537  0.00  0.00    -0.299 N 
ATOM      9  C   UNL     1     -11.794   7.762  20.549  0.00  0.00    +0.074 C 
ATOM     10  C   UNL     1     -12.617   8.786  21.348  0.00  0.00    +0.032 C 
ATOM     11  C   UNL     1     -12.289   6.433  21.133  0.00  0.00    +0.119 C 
ATOM     12  C   UNL     1     -13.968   8.108  21.535  0.00  0.00    +0.108 C 
ATOM     14  C   UNL     1     -14.537   5.656  21.858  0.00  0.00    +0.241 C 
ENDROOT
BRANCH   9  13
ATOM      7  N   UNL     1     -10.886   8.104  18.227  0.00  0.00    -0.341 N 
ATOM      8  N   UNL     1     -13.100   7.998  18.391  0.00  0.00    -0.232 NA
ATOM     13  C   UNL     1     -11.966   7.954  19.052  0.00  0.00    +0.113 A 
ATOM     15  C   UNL     1     -11.356   8.255  16.947  0.00  0.00    +0.070 A 
ATOM     16  C   UNL     1     -12.740   8.185  17.076  0.00  0.00    +0.089 A 
ATOM     18  C   UNL     1     -10.708   8.441  15.726  0.00  0.00    +0.073 A 
ATOM     19  C   UNL     1     -13.541   8.307  15.929  0.00  0.00    +0.033 A 
ATOM     20  C   UNL     1     -11.521   8.560  14.594  0.00  0.00    +0.122 A 
ATOM     21  C   UNL     1     -12.914   8.495  14.691  0.00  0.00    +0.048 A 
ATOM     25  H   UNL     1      -9.914   8.106  18.507  0.00  0.00    +0.167 HD
BRANCH  20   3
ATOM      3  O   UNL     1     -10.943   8.745  13.373  0.00  0.00    -0.495 OA
ATOM     23  C   UNL     1     -10.191   7.655  12.843  0.00  0.00    +0.277 C 
ENDBRANCH  20   3
ENDBRANCH   9  13
BRANCH  14  17
ATOM     17  C   UNL     1     -15.930   6.083  22.248  0.00  0.00    +0.256 C 
BRANCH  17   2
ATOM      2  O   UNL     1     -16.678   4.904  22.423  0.00  0.00    -0.359 OA
BRANCH   2  22
ATOM     22  C   UNL     1     -16.999   4.671  23.794  0.00  0.00    +0.280 C 
BRANCH  22  24
ATOM      5  O   UNL     1     -15.948   3.221  25.435  0.00  0.00    -0.248 OA
ATOM     24  C   UNL     1     -16.286   3.441  24.282  0.00  0.00    +0.331 C 
BRANCH  24   4
ATOM      4  O   UNL     1     -16.063   2.589  23.249  0.00  0.00    -0.479 OA
ATOM     26  H   UNL     1     -16.900   2.280  22.843  0.00  0.00    +0.295 HD
ENDBRANCH  24   4
ENDBRANCH  22  24
ENDBRANCH   2  22
ENDBRANCH  17   2
ENDBRANCH  14  17
TORSDOF 7
ENDMDL
MODEL 10
REMARK VINA RESULT:      -5.8     27.278     29.550
REMARK  Name = 51137020
REMARK  8 active torsions:
REMARK  status: ('A' for Active; 'I' for Inactive)
REMARK    1  A    between atoms: O_2  and  C_17
REMARK    2  A    between atoms: O_2  and  C_22
REMARK    3  A    between atoms: O_3  and  C_20
REMARK    4  A    between atoms: O_3  and  C_23
REMARK    5  A    between atoms: O_4  and  C_24
REMARK    6  A    between atoms: C_9  and  C_13
REMARK    7  A    between atoms: C_14  and  C_17
REMARK    8  A    between atoms: C_22  and  C_24
REMARK                            x       y       z     vdW  Elec       q    Type
REMARK                         _______ _______ _______ _____ _____    ______ ____
ROOT
ATOM      1  O   UNL     1      -5.396 -12.853  16.837  0.00  0.00    -0.273 OA
ATOM      6  N   UNL     1      -3.565 -11.732  15.983  0.00  0.00    -0.299 N 
ATOM      9  C   UNL     1      -2.251 -12.019  14.023  0.00  0.00    +0.074 C 
ATOM     10  C   UNL     1      -1.532 -11.062  14.988  0.00  0.00    +0.032 C 
ATOM     11  C   UNL     1      -3.253 -12.714  14.952  0.00  0.00    +0.119 C 
ATOM     12  C   UNL     1      -2.628 -10.615  15.947  0.00  0.00    +0.108 C 
ATOM     14  C   UNL     1      -4.632 -11.887  16.849  0.00  0.00    +0.241 C 
ENDROOT
BRANCH   9  13
ATOM      7  N   UNL     1      -4.123 -11.477  12.430  0.00  0.00    -0.341 N 
ATOM      8  N   UNL     1      -2.211 -10.402  12.072  0.00  0.00    -0.232 NA
ATOM     13  C   UNL     1      -2.831 -11.278  12.830  0.00  0.00    +0.113 A 
ATOM     15  C   UNL     1      -4.352 -10.676  11.341  0.00  0.00    +0.070 A 
ATOM     16  C   UNL     1      -3.143 -10.015  11.138  0.00  0.00    +0.089 A 
ATOM     18  C   UNL     1      -5.477 -10.478  10.540  0.00  0.00    +0.073 A 
ATOM     19  C   UNL     1      -3.033  -9.100  10.078  0.00  0.00    +0.033 A 
ATOM     20  C   UNL     1      -5.350  -9.564   9.490  0.00  0.00    +0.122 A 
ATOM     21  C   UNL     1      -4.150  -8.886   9.260  0.00  0.00    +0.048 A 
ATOM     25  H   UNL     1      -4.792 -12.104  12.857  0.00  0.00    +0.167 HD
BRANCH  20   3
ATOM      3  O   UNL     1      -6.418  -9.331   8.674  0.00  0.00    -0.495 OA
ATOM     23  C   UNL     1      -7.185  -8.157   8.932  0.00  0.00    +0.277 C 
ENDBRANCH  20   3
ENDBRANCH   9  13
BRANCH  14  17
ATOM     17  C   UNL     1      -4.820 -10.777  17.852  0.00  0.00    +0.256 C 
BRANCH  17   2
ATOM      2  O   UNL     1      -6.208 -10.641  18.046  0.00  0.00    -0.359 OA
BRANCH   2  22
ATOM     22  C   UNL     1      -6.568 -10.741  19.423  0.00  0.00    +0.280 C 
BRANCH  22  24
ATOM      5  O   UNL     1      -8.749 -11.629  20.020  0.00  0.00    -0.248 OA
ATOM     24  C   UNL     1      -7.616 -11.805  19.599  0.00  0.00    +0.331 C 
BRANCH  24   4
ATOM      4  O   UNL     1      -7.126 -13.012  19.219  0.00  0.00    -0.479 OA
ATOM     26  H   UNL     1      -7.587 -13.361  18.428  0.00  0.00    +0.295 HD
ENDBRANCH  24   4
ENDBRANCH  22  24
ENDBRANCH   2  22
ENDBRANCH  17   2
ENDBRANCH  14  17
TORSDOF 7
ENDMDL
