MODEL 1
REMARK VINA RESULT:      -7.6      0.000      0.000
REMARK  Name = 75536101
REMARK  8 active torsions:
REMARK  status: ('A' for Active; 'I' for Inactive)
REMARK    1  A    between atoms: O_1  and  C_8
REMARK    2  A    between atoms: O_2  and  C_10
REMARK    3  A    between atoms: O_3  and  C_18
REMARK    4  A    between atoms: O_3  and  C_25
REMARK    5  A    between atoms: N_4  and  C_6
REMARK    6  A    between atoms: N_4  and  C_12
REMARK    7  A    between atoms: C_7  and  C_11
REMARK    8  A    between atoms: C_12  and  C_15
REMARK                            x       y       z     vdW  Elec       q    Type
REMARK                         _______ _______ _______ _____ _____    ______ ____
ROOT
ATOM      6  C   UNL     1      12.772   7.746  18.605  0.00  0.00    +0.092 C 
ATOM      7  C   UNL     1      13.934   8.712  18.931  0.00  0.00    +0.041 C 
ATOM      8  C   UNL     1      11.996   8.490  17.520  0.00  0.00    +0.160 C 
ATOM      9  C   UNL     1      14.145   9.555  17.644  0.00  0.00    +0.043 C 
ATOM     10  C   UNL     1      13.109   9.051  16.639  0.00  0.00    +0.145 C 
ENDROOT
BRANCH   7  11
ATOM     11  C   UNL     1      15.180   8.003  19.419  0.00  0.00    -0.042 A 
ATOM     13  C   UNL     1      15.544   6.775  18.868  0.00  0.00    +0.007 A 
ATOM     14  C   UNL     1      15.964   8.579  20.419  0.00  0.00    +0.007 A 
ATOM     16  C   UNL     1      16.691   6.122  19.316  0.00  0.00    +0.046 A 
ATOM     17  C   UNL     1      17.111   7.924  20.868  0.00  0.00    +0.046 A 
ATOM     18  C   UNL     1      17.475   6.696  20.317  0.00  0.00    +0.120 A 
BRANCH  18   3
ATOM      3  O   UNL     1      18.594   6.058  20.755  0.00  0.00    -0.495 OA
ATOM     25  C   UNL     1      19.832   6.756  20.627  0.00  0.00    +0.277 C 
ENDBRANCH  18   3
ENDBRANCH   7  11
BRANCH   8   1
ATOM      1  O   UNL     1      11.139   7.622  16.803  0.00  0.00    -0.388 OA
ATOM     29  H   UNL     1      10.356   8.136  16.541  0.00  0.00    +0.210 HD
ENDBRANCH   8   1
BRANCH  10   2
ATOM      2  O   UNL     1      13.680   8.015  15.846  0.00  0.00    -0.389 OA
ATOM     30  H   UNL     1      12.993   7.342  15.706  0.00  0.00    +0.210 HD
ENDBRANCH  10   2
BRANCH   6   4
ATOM      4  N   UNL     1      11.941   7.474  19.773  0.00  0.00    -0.306 NA
ATOM     28  H   UNL     1      11.497   6.562  19.660  0.00  0.00    +0.123 HD
BRANCH   4  12
ATOM     12  C   UNL     1      10.903   8.485  19.918  0.00  0.00    +0.118 C 
BRANCH  12  15
ATOM      5  N   UNL     1      10.812   9.528  23.555  0.00  0.00    -0.255 NA
ATOM     15  C   UNL     1      11.091   9.305  21.167  0.00  0.00    -0.015 A 
ATOM     19  C   UNL     1      11.689  10.556  21.123  0.00  0.00    +0.016 A 
ATOM     20  C   UNL     1      10.673   8.841  22.398  0.00  0.00    +0.116 A 
ATOM     21  C   UNL     1      11.853  11.301  22.299  0.00  0.00    +0.001 A 
ATOM     22  C   UNL     1      11.394  10.742  23.509  0.00  0.00    +0.071 A 
ATOM     23  C   UNL     1      12.456  12.571  22.288  0.00  0.00    +0.010 A 
ATOM     24  C   UNL     1      11.555  11.482  24.677  0.00  0.00    +0.028 A 
ATOM     26  C   UNL     1      12.605  13.289  23.471  0.00  0.00    +0.001 A 
ATOM     27  C   UNL     1      12.155  12.744  24.667  0.00  0.00    +0.002 A 
ENDBRANCH  12  15
ENDBRANCH   4  12
ENDBRANCH   6   4
TORSDOF 7
ENDMDL
MODEL 2
REMARK VINA RESULT:      -7.5      2.996      7.212
REMARK  Name = 75536101
REMARK  8 active torsions:
REMARK  status: ('A' for Active; 'I' for Inactive)
REMARK    1  A    between atoms: O_1  and  C_8
REMARK    2  A    between atoms: O_2  and  C_10
REMARK    3  A    between atoms: O_3  and  C_18
REMARK    4  A    between atoms: O_3  and  C_25
REMARK    5  A    between atoms: N_4  and  C_6
REMARK    6  A    between atoms: N_4  and  C_12
REMARK    7  A    between atoms: C_7  and  C_11
REMARK    8  A    between atoms: C_12  and  C_15
REMARK                            x       y       z     vdW  Elec       q    Type
REMARK                         _______ _______ _______ _____ _____    ______ ____
ROOT
ATOM      6  C   UNL     1      12.919   7.354  19.668  0.00  0.00    +0.092 C 
ATOM      7  C   UNL     1      13.117   8.886  19.603  0.00  0.00    +0.041 C 
ATOM      8  C   UNL     1      12.107   7.163  20.948  0.00  0.00    +0.160 C 
ATOM      9  C   UNL     1      11.923   9.492  20.389  0.00  0.00    +0.043 C 
ATOM     10  C   UNL     1      11.094   8.301  20.875  0.00  0.00    +0.145 C 
ENDROOT
BRANCH   7  11
ATOM     11  C   UNL     1      13.256   9.409  18.188  0.00  0.00    -0.042 A 
ATOM     13  C   UNL     1      14.288  10.293  17.871  0.00  0.00    +0.007 A 
ATOM     14  C   UNL     1      12.355   9.007  17.203  0.00  0.00    +0.007 A 
ATOM     16  C   UNL     1      14.417  10.775  16.569  0.00  0.00    +0.046 A 
ATOM     17  C   UNL     1      12.484   9.490  15.901  0.00  0.00    +0.046 A 
ATOM     18  C   UNL     1      13.516  10.374  15.583  0.00  0.00    +0.120 A 
BRANCH  18   3
ATOM      3  O   UNL     1      13.641  10.845  14.314  0.00  0.00    -0.495 OA
ATOM     25  C   UNL     1      13.668  12.262  14.146  0.00  0.00    +0.277 C 
ENDBRANCH  18   3
ENDBRANCH   7  11
BRANCH   8   1
ATOM      1  O   UNL     1      11.480   5.895  20.985  0.00  0.00    -0.388 OA
ATOM     29  H   UNL     1      10.596   6.019  21.371  0.00  0.00    +0.210 HD
ENDBRANCH   8   1
BRANCH  10   2
ATOM      2  O   UNL     1      10.085   8.002  19.915  0.00  0.00    -0.389 OA
ATOM     30  H   UNL     1       9.759   8.846  19.561  0.00  0.00    +0.210 HD
ENDBRANCH  10   2
BRANCH   6   4
ATOM      4  N   UNL     1      14.189   6.638  19.721  0.00  0.00    -0.306 NA
ATOM     28  H   UNL     1      14.026   5.696  20.076  0.00  0.00    +0.123 HD
BRANCH   4  12
ATOM     12  C   UNL     1      15.128   7.315  20.604  0.00  0.00    +0.118 C 
BRANCH  12  15
ATOM      5  N   UNL     1      18.114   5.413  19.268  0.00  0.00    -0.255 NA
ATOM     15  C   UNL     1      16.513   6.731  20.503  0.00  0.00    -0.015 A 
ATOM     19  C   UNL     1      17.457   6.942  21.497  0.00  0.00    +0.016 A 
ATOM     20  C   UNL     1      16.889   5.965  19.419  0.00  0.00    +0.116 A 
ATOM     21  C   UNL     1      18.739   6.388  21.380  0.00  0.00    +0.001 A 
ATOM     22  C   UNL     1      19.029   5.619  20.234  0.00  0.00    +0.071 A 
ATOM     23  C   UNL     1      19.718   6.584  22.370  0.00  0.00    +0.010 A 
ATOM     24  C   UNL     1      20.302   5.068  20.118  0.00  0.00    +0.028 A 
ATOM     26  C   UNL     1      20.984   6.021  22.228  0.00  0.00    +0.001 A 
ATOM     27  C   UNL     1      21.276   5.263  21.102  0.00  0.00    +0.002 A 
ENDBRANCH  12  15
ENDBRANCH   4  12
ENDBRANCH   6   4
TORSDOF 7
ENDMDL
MODEL 3
REMARK VINA RESULT:      -7.4      2.956      6.066
REMARK  Name = 75536101
REMARK  8 active torsions:
REMARK  status: ('A' for Active; 'I' for Inactive)
REMARK    1  A    between atoms: O_1  and  C_8
REMARK    2  A    between atoms: O_2  and  C_10
REMARK    3  A    between atoms: O_3  and  C_18
REMARK    4  A    between atoms: O_3  and  C_25
REMARK    5  A    between atoms: N_4  and  C_6
REMARK    6  A    between atoms: N_4  and  C_12
REMARK    7  A    between atoms: C_7  and  C_11
REMARK    8  A    between atoms: C_12  and  C_15
REMARK                            x       y       z     vdW  Elec       q    Type
REMARK                         _______ _______ _______ _____ _____    ______ ____
ROOT
ATOM      6  C   UNL     1      12.864   7.582  21.212  0.00  0.00    +0.092 C 
ATOM      7  C   UNL     1      12.548   8.671  22.262  0.00  0.00    +0.041 C 
ATOM      8  C   UNL     1      11.777   6.537  21.457  0.00  0.00    +0.160 C 
ATOM      9  C   UNL     1      11.028   8.540  22.550  0.00  0.00    +0.043 C 
ATOM     10  C   UNL     1      10.531   7.394  21.668  0.00  0.00    +0.145 C 
ENDROOT
BRANCH   7  11
ATOM     11  C   UNL     1      12.981  10.057  21.832  0.00  0.00    -0.042 A 
ATOM     13  C   UNL     1      14.167  10.601  22.325  0.00  0.00    +0.007 A 
ATOM     14  C   UNL     1      12.195  10.789  20.943  0.00  0.00    +0.007 A 
ATOM     16  C   UNL     1      14.566  11.877  21.930  0.00  0.00    +0.046 A 
ATOM     17  C   UNL     1      12.594  12.066  20.548  0.00  0.00    +0.046 A 
ATOM     18  C   UNL     1      13.780  12.610  21.041  0.00  0.00    +0.120 A 
BRANCH  18   3
ATOM      3  O   UNL     1      14.169  13.855  20.656  0.00  0.00    -0.495 OA
ATOM     25  C   UNL     1      13.456  14.453  19.574  0.00  0.00    +0.277 C 
ENDBRANCH  18   3
ENDBRANCH   7  11
BRANCH   8   1
ATOM      1  O   UNL     1      11.637   5.660  20.355  0.00  0.00    -0.388 OA
ATOM     29  H   UNL     1      10.780   5.209  20.449  0.00  0.00    +0.210 HD
ENDBRANCH   8   1
BRANCH  10   2
ATOM      2  O   UNL     1      10.075   7.914  20.423  0.00  0.00    -0.389 OA
ATOM     30  H   UNL     1       9.730   8.807  20.590  0.00  0.00    +0.210 HD
ENDBRANCH  10   2
BRANCH   6   4
ATOM      4  N   UNL     1      14.200   7.022  21.386  0.00  0.00    -0.306 NA
ATOM     28  H   UNL     1      14.804   7.728  21.808  0.00  0.00    +0.123 HD
BRANCH   4  12
ATOM     12  C   UNL     1      14.768   6.626  20.105  0.00  0.00    +0.118 C 
BRANCH  12  15
ATOM      5  N   UNL     1      13.449   8.211  16.931  0.00  0.00    -0.255 NA
ATOM     15  C   UNL     1      14.496   7.648  19.033  0.00  0.00    -0.015 A 
ATOM     19  C   UNL     1      15.007   8.935  19.119  0.00  0.00    +0.016 A 
ATOM     20  C   UNL     1      13.730   7.340  17.927  0.00  0.00    +0.116 A 
ATOM     21  C   UNL     1      14.740   9.869  18.108  0.00  0.00    +0.001 A 
ATOM     22  C   UNL     1      13.947   9.459  17.018  0.00  0.00    +0.071 A 
ATOM     23  C   UNL     1      15.243  11.180  18.167  0.00  0.00    +0.010 A 
ATOM     24  C   UNL     1      13.682  10.386  16.013  0.00  0.00    +0.028 A 
ATOM     26  C   UNL     1      14.963  12.087  17.148  0.00  0.00    +0.001 A 
ATOM     27  C   UNL     1      14.182  11.690  16.071  0.00  0.00    +0.002 A 
ENDBRANCH  12  15
ENDBRANCH   4  12
ENDBRANCH   6   4
TORSDOF 7
ENDMDL
MODEL 4
REMARK VINA RESULT:      -7.4      3.036      7.117
REMARK  Name = 75536101
REMARK  8 active torsions:
REMARK  status: ('A' for Active; 'I' for Inactive)
REMARK    1  A    between atoms: O_1  and  C_8
REMARK    2  A    between atoms: O_2  and  C_10
REMARK    3  A    between atoms: O_3  and  C_18
REMARK    4  A    between atoms: O_3  and  C_25
REMARK    5  A    between atoms: N_4  and  C_6
REMARK    6  A    between atoms: N_4  and  C_12
REMARK    7  A    between atoms: C_7  and  C_11
REMARK    8  A    between atoms: C_12  and  C_15
REMARK                            x       y       z     vdW  Elec       q    Type
REMARK                         _______ _______ _______ _____ _____    ______ ____
ROOT
ATOM      6  C   UNL     1      12.923  10.756  23.121  0.00  0.00    +0.092 C 
ATOM      7  C   UNL     1      12.675  11.480  21.778  0.00  0.00    +0.041 C 
ATOM      8  C   UNL     1      12.544  11.811  24.159  0.00  0.00    +0.160 C 
ATOM      9  C   UNL     1      11.600  12.559  22.081  0.00  0.00    +0.043 C 
ATOM     10  C   UNL     1      11.274  12.419  23.569  0.00  0.00    +0.145 C 
ENDROOT
BRANCH   7  11
ATOM     11  C   UNL     1      12.307  10.537  20.651  0.00  0.00    -0.042 A 
ATOM     13  C   UNL     1      12.820  10.748  19.371  0.00  0.00    +0.007 A 
ATOM     14  C   UNL     1      11.458   9.458  20.894  0.00  0.00    +0.007 A 
ATOM     16  C   UNL     1      12.481   9.880  18.333  0.00  0.00    +0.046 A 
ATOM     17  C   UNL     1      11.119   8.590  19.855  0.00  0.00    +0.046 A 
ATOM     18  C   UNL     1      11.631   8.801  18.575  0.00  0.00    +0.120 A 
BRANCH  18   3
ATOM      3  O   UNL     1      11.300   7.955  17.562  0.00  0.00    -0.495 OA
ATOM     25  C   UNL     1      10.756   8.539  16.380  0.00  0.00    +0.277 C 
ENDBRANCH  18   3
ENDBRANCH   7  11
BRANCH   8   1
ATOM      1  O   UNL     1      12.313  11.233  25.430  0.00  0.00    -0.388 OA
ATOM     29  H   UNL     1      13.102  11.402  25.974  0.00  0.00    +0.210 HD
ENDBRANCH   8   1
BRANCH  10   2
ATOM      2  O   UNL     1      10.177  11.526  23.734  0.00  0.00    -0.389 OA
ATOM     30  H   UNL     1      10.363  10.976  24.513  0.00  0.00    +0.210 HD
ENDBRANCH  10   2
BRANCH   6   4
ATOM      4  N   UNL     1      14.311  10.329  23.266  0.00  0.00    -0.306 NA
ATOM     28  H   UNL     1      14.700  10.746  24.112  0.00  0.00    +0.123 HD
BRANCH   4  12
ATOM     12  C   UNL     1      15.107  10.759  22.125  0.00  0.00    +0.118 C 
BRANCH  12  15
ATOM      5  N   UNL     1      18.138   8.551  21.616  0.00  0.00    -0.255 NA
ATOM     15  C   UNL     1      15.990   9.653  21.610  0.00  0.00    -0.015 A 
ATOM     19  C   UNL     1      15.522   8.730  20.687  0.00  0.00    +0.016 A 
ATOM     20  C   UNL     1      17.295   9.520  22.039  0.00  0.00    +0.116 A 
ATOM     21  C   UNL     1      16.363   7.709  20.222  0.00  0.00    +0.001 A 
ATOM     22  C   UNL     1      17.681   7.656  20.720  0.00  0.00    +0.071 A 
ATOM     23  C   UNL     1      15.918   6.758  19.287  0.00  0.00    +0.010 A 
ATOM     24  C   UNL     1      18.516   6.643  20.258  0.00  0.00    +0.028 A 
ATOM     26  C   UNL     1      16.775   5.755  18.843  0.00  0.00    +0.001 A 
ATOM     27  C   UNL     1      18.075   5.697  19.328  0.00  0.00    +0.002 A 
ENDBRANCH  12  15
ENDBRANCH   4  12
ENDBRANCH   6   4
TORSDOF 7
ENDMDL
MODEL 5
REMARK VINA RESULT:      -7.3      3.093      6.453
REMARK  Name = 75536101
REMARK  8 active torsions:
REMARK  status: ('A' for Active; 'I' for Inactive)
REMARK    1  A    between atoms: O_1  and  C_8
REMARK    2  A    between atoms: O_2  and  C_10
REMARK    3  A    between atoms: O_3  and  C_18
REMARK    4  A    between atoms: O_3  and  C_25
REMARK    5  A    between atoms: N_4  and  C_6
REMARK    6  A    between atoms: N_4  and  C_12
REMARK    7  A    between atoms: C_7  and  C_11
REMARK    8  A    between atoms: C_12  and  C_15
REMARK                            x       y       z     vdW  Elec       q    Type
REMARK                         _______ _______ _______ _____ _____    ______ ____
ROOT
ATOM      6  C   UNL     1      12.884   7.159  20.922  0.00  0.00    +0.092 C 
ATOM      7  C   UNL     1      12.949   8.383  21.864  0.00  0.00    +0.041 C 
ATOM      8  C   UNL     1      11.691   6.370  21.459  0.00  0.00    +0.160 C 
ATOM      9  C   UNL     1      11.503   8.574  22.395  0.00  0.00    +0.043 C 
ATOM     10  C   UNL     1      10.669   7.466  21.749  0.00  0.00    +0.145 C 
ENDROOT
BRANCH   7  11
ATOM     11  C   UNL     1      13.535   9.613  21.202  0.00  0.00    -0.042 A 
ATOM     13  C   UNL     1      14.413  10.433  21.911  0.00  0.00    +0.007 A 
ATOM     14  C   UNL     1      13.198   9.925  19.886  0.00  0.00    +0.007 A 
ATOM     16  C   UNL     1      14.953  11.566  21.303  0.00  0.00    +0.046 A 
ATOM     17  C   UNL     1      13.738  11.059  19.278  0.00  0.00    +0.046 A 
ATOM     18  C   UNL     1      14.616  11.879  19.986  0.00  0.00    +0.120 A 
BRANCH  18   3
ATOM      3  O   UNL     1      15.141  12.985  19.393  0.00  0.00    -0.495 OA
ATOM     25  C   UNL     1      15.921  13.853  20.214  0.00  0.00    +0.277 C 
ENDBRANCH  18   3
ENDBRANCH   7  11
BRANCH   8   1
ATOM      1  O   UNL     1      11.212   5.436  20.511  0.00  0.00    -0.388 OA
ATOM     29  H   UNL     1      10.258   5.593  20.402  0.00  0.00    +0.210 HD
ENDBRANCH   8   1
BRANCH  10   2
ATOM      2  O   UNL     1      10.102   7.944  20.534  0.00  0.00    -0.389 OA
ATOM     30  H   UNL     1      10.185   7.236  19.874  0.00  0.00    +0.210 HD
ENDBRANCH  10   2
BRANCH   6   4
ATOM      4  N   UNL     1      14.113   6.372  20.958  0.00  0.00    -0.306 NA
ATOM     28  H   UNL     1      14.650   6.633  21.785  0.00  0.00    +0.123 HD
BRANCH   4  12
ATOM     12  C   UNL     1      14.924   6.623  19.775  0.00  0.00    +0.118 C 
BRANCH  12  15
ATOM      5  N   UNL     1      18.660   6.058  19.991  0.00  0.00    -0.255 NA
ATOM     15  C   UNL     1      16.375   6.826  20.124  0.00  0.00    -0.015 A 
ATOM     19  C   UNL     1      16.788   7.918  20.873  0.00  0.00    +0.016 A 
ATOM     20  C   UNL     1      17.342   5.933  19.712  0.00  0.00    +0.116 A 
ATOM     21  C   UNL     1      18.145   8.086  21.184  0.00  0.00    +0.001 A 
ATOM     22  C   UNL     1      19.058   7.120  20.718  0.00  0.00    +0.071 A 
ATOM     23  C   UNL     1      18.595   9.183  21.940  0.00  0.00    +0.010 A 
ATOM     24  C   UNL     1      20.405   7.286  21.028  0.00  0.00    +0.028 A 
ATOM     26  C   UNL     1      19.948   9.324  22.236  0.00  0.00    +0.001 A 
ATOM     27  C   UNL     1      20.854   8.375  21.779  0.00  0.00    +0.002 A 
ENDBRANCH  12  15
ENDBRANCH   4  12
ENDBRANCH   6   4
TORSDOF 7
ENDMDL
MODEL 6
REMARK VINA RESULT:      -7.3      2.913      6.769
REMARK  Name = 75536101
REMARK  8 active torsions:
REMARK  status: ('A' for Active; 'I' for Inactive)
REMARK    1  A    between atoms: O_1  and  C_8
REMARK    2  A    between atoms: O_2  and  C_10
REMARK    3  A    between atoms: O_3  and  C_18
REMARK    4  A    between atoms: O_3  and  C_25
REMARK    5  A    between atoms: N_4  and  C_6
REMARK    6  A    between atoms: N_4  and  C_12
REMARK    7  A    between atoms: C_7  and  C_11
REMARK    8  A    between atoms: C_12  and  C_15
REMARK                            x       y       z     vdW  Elec       q    Type
REMARK                         _______ _______ _______ _____ _____    ______ ____
ROOT
ATOM      6  C   UNL     1      12.954   7.250  20.514  0.00  0.00    +0.092 C 
ATOM      7  C   UNL     1      13.148   8.742  20.870  0.00  0.00    +0.041 C 
ATOM      8  C   UNL     1      11.782   6.831  21.401  0.00  0.00    +0.160 C 
ATOM      9  C   UNL     1      11.762   9.233  21.368  0.00  0.00    +0.043 C 
ATOM     10  C   UNL     1      10.833   8.021  21.284  0.00  0.00    +0.145 C 
ENDROOT
BRANCH   7  11
ATOM     11  C   UNL     1      13.721   9.557  19.729  0.00  0.00    -0.042 A 
ATOM     13  C   UNL     1      14.743  10.475  19.973  0.00  0.00    +0.007 A 
ATOM     14  C   UNL     1      13.228   9.389  18.435  0.00  0.00    +0.007 A 
ATOM     16  C   UNL     1      15.271  11.225  18.923  0.00  0.00    +0.046 A 
ATOM     17  C   UNL     1      13.756  10.141  17.385  0.00  0.00    +0.046 A 
ATOM     18  C   UNL     1      14.778  11.059  17.629  0.00  0.00    +0.120 A 
BRANCH  18   3
ATOM      3  O   UNL     1      15.293  11.792  16.605  0.00  0.00    -0.495 OA
ATOM     25  C   UNL     1      15.276  11.197  15.308  0.00  0.00    +0.277 C 
ENDBRANCH  18   3
ENDBRANCH   7  11
BRANCH   8   1
ATOM      1  O   UNL     1      11.187   5.631  20.947  0.00  0.00    -0.388 OA
ATOM     29  H   UNL     1      11.762   5.264  20.253  0.00  0.00    +0.210 HD
ENDBRANCH   8   1
BRANCH  10   2
ATOM      2  O   UNL     1      10.180   8.008  20.019  0.00  0.00    -0.389 OA
ATOM     30  H   UNL     1      10.319   7.129  19.628  0.00  0.00    +0.210 HD
ENDBRANCH  10   2
BRANCH   6   4
ATOM      4  N   UNL     1      14.149   6.460  20.789  0.00  0.00    -0.306 NA
ATOM     28  H   UNL     1      14.560   6.774  21.668  0.00  0.00    +0.123 HD
BRANCH   4  12
ATOM     12  C   UNL     1      15.134   6.624  19.728  0.00  0.00    +0.118 C 
BRANCH  12  15
ATOM      5  N   UNL     1      18.038   8.110  21.646  0.00  0.00    -0.255 NA
ATOM     15  C   UNL     1      16.521   6.823  20.279  0.00  0.00    -0.015 A 
ATOM     19  C   UNL     1      17.554   5.953  19.958  0.00  0.00    +0.016 A 
ATOM     20  C   UNL     1      16.814   7.877  21.120  0.00  0.00    +0.116 A 
ATOM     21  C   UNL     1      18.837   6.159  20.482  0.00  0.00    +0.001 A 
ATOM     22  C   UNL     1      19.037   7.264  21.333  0.00  0.00    +0.071 A 
ATOM     23  C   UNL     1      19.904   5.295  20.177  0.00  0.00    +0.010 A 
ATOM     24  C   UNL     1      20.313   7.469  21.854  0.00  0.00    +0.028 A 
ATOM     26  C   UNL     1      21.169   5.523  20.711  0.00  0.00    +0.001 A 
ATOM     27  C   UNL     1      21.373   6.611  21.551  0.00  0.00    +0.002 A 
ENDBRANCH  12  15
ENDBRANCH   4  12
ENDBRANCH   6   4
TORSDOF 7
ENDMDL
MODEL 7
REMARK VINA RESULT:      -7.3      2.622      6.156
REMARK  Name = 75536101
REMARK  8 active torsions:
REMARK  status: ('A' for Active; 'I' for Inactive)
REMARK    1  A    between atoms: O_1  and  C_8
REMARK    2  A    between atoms: O_2  and  C_10
REMARK    3  A    between atoms: O_3  and  C_18
REMARK    4  A    between atoms: O_3  and  C_25
REMARK    5  A    between atoms: N_4  and  C_6
REMARK    6  A    between atoms: N_4  and  C_12
REMARK    7  A    between atoms: C_7  and  C_11
REMARK    8  A    between atoms: C_12  and  C_15
REMARK                            x       y       z     vdW  Elec       q    Type
REMARK                         _______ _______ _______ _____ _____    ______ ____
ROOT
ATOM      6  C   UNL     1      12.048  10.812  22.410  0.00  0.00    +0.092 C 
ATOM      7  C   UNL     1      13.344  11.532  21.973  0.00  0.00    +0.041 C 
ATOM      8  C   UNL     1      11.444  11.773  23.432  0.00  0.00    +0.160 C 
ATOM      9  C   UNL     1      13.080  13.043  22.216  0.00  0.00    +0.043 C 
ATOM     10  C   UNL     1      11.661  13.135  22.779  0.00  0.00    +0.145 C 
ENDROOT
BRANCH   7  11
ATOM     11  C   UNL     1      13.765  11.196  20.558  0.00  0.00    -0.042 A 
ATOM     13  C   UNL     1      15.093  10.866  20.286  0.00  0.00    +0.007 A 
ATOM     14  C   UNL     1      12.826  11.215  19.527  0.00  0.00    +0.007 A 
ATOM     16  C   UNL     1      15.482  10.556  18.983  0.00  0.00    +0.046 A 
ATOM     17  C   UNL     1      13.215  10.906  18.224  0.00  0.00    +0.046 A 
ATOM     18  C   UNL     1      14.543  10.576  17.951  0.00  0.00    +0.120 A 
BRANCH  18   3
ATOM      3  O   UNL     1      14.922  10.275  16.680  0.00  0.00    -0.495 OA
ATOM     25  C   UNL     1      13.994   9.540  15.883  0.00  0.00    +0.277 C 
ENDBRANCH  18   3
ENDBRANCH   7  11
BRANCH   8   1
ATOM      1  O   UNL     1      10.073  11.504  23.655  0.00  0.00    -0.388 OA
ATOM     29  H   UNL     1      10.005  11.007  24.489  0.00  0.00    +0.210 HD
ENDBRANCH   8   1
BRANCH  10   2
ATOM      2  O   UNL     1      10.737  13.322  21.711  0.00  0.00    -0.389 OA
ATOM     30  H   UNL     1       9.995  13.845  22.056  0.00  0.00    +0.210 HD
ENDBRANCH  10   2
BRANCH   6   4
ATOM      4  N   UNL     1      12.319   9.502  22.993  0.00  0.00    -0.306 NA
ATOM     28  H   UNL     1      13.323   9.404  23.140  0.00  0.00    +0.123 HD
BRANCH   4  12
ATOM     12  C   UNL     1      11.869   8.437  22.108  0.00  0.00    +0.118 C 
BRANCH  12  15
ATOM      5  N   UNL     1      13.776   7.072  19.138  0.00  0.00    -0.255 NA
ATOM     15  C   UNL     1      12.996   7.892  21.270  0.00  0.00    -0.015 A 
ATOM     19  C   UNL     1      14.261   7.700  21.805  0.00  0.00    +0.016 A 
ATOM     20  C   UNL     1      12.807   7.565  19.943  0.00  0.00    +0.116 A 
ATOM     21  C   UNL     1      15.294   7.191  21.005  0.00  0.00    +0.001 A 
ATOM     22  C   UNL     1      15.004   6.886  19.660  0.00  0.00    +0.071 A 
ATOM     23  C   UNL     1      16.587   6.986  21.516  0.00  0.00    +0.010 A 
ATOM     24  C   UNL     1      16.029   6.381  18.865  0.00  0.00    +0.028 A 
ATOM     26  C   UNL     1      17.594   6.478  20.700  0.00  0.00    +0.001 A 
ATOM     27  C   UNL     1      17.315   6.176  19.373  0.00  0.00    +0.002 A 
ENDBRANCH  12  15
ENDBRANCH   4  12
ENDBRANCH   6   4
TORSDOF 7
ENDMDL
MODEL 8
REMARK VINA RESULT:      -7.0     24.601     26.483
REMARK  Name = 75536101
REMARK  8 active torsions:
REMARK  status: ('A' for Active; 'I' for Inactive)
REMARK    1  A    between atoms: O_1  and  C_8
REMARK    2  A    between atoms: O_2  and  C_10
REMARK    3  A    between atoms: O_3  and  C_18
REMARK    4  A    between atoms: O_3  and  C_25
REMARK    5  A    between atoms: N_4  and  C_6
REMARK    6  A    between atoms: N_4  and  C_12
REMARK    7  A    between atoms: C_7  and  C_11
REMARK    8  A    between atoms: C_12  and  C_15
REMARK                            x       y       z     vdW  Elec       q    Type
REMARK                         _______ _______ _______ _____ _____    ______ ____
ROOT
ATOM      6  C   UNL     1     -10.884  10.077  17.468  0.00  0.00    +0.092 C 
ATOM      7  C   UNL     1     -10.614   8.631  17.942  0.00  0.00    +0.041 C 
ATOM      8  C   UNL     1     -10.252  10.110  16.077  0.00  0.00    +0.160 C 
ATOM      9  C   UNL     1     -10.480   7.788  16.645  0.00  0.00    +0.043 C 
ATOM     10  C   UNL     1     -10.673   8.768  15.486  0.00  0.00    +0.145 C 
ENDROOT
BRANCH   7  11
ATOM     11  C   UNL     1     -11.658   8.117  18.911  0.00  0.00    -0.042 A 
ATOM     13  C   UNL     1     -11.268   7.612  20.152  0.00  0.00    +0.007 A 
ATOM     14  C   UNL     1     -13.008   8.148  18.563  0.00  0.00    +0.007 A 
ATOM     16  C   UNL     1     -12.229   7.138  21.044  0.00  0.00    +0.046 A 
ATOM     17  C   UNL     1     -13.969   7.673  19.456  0.00  0.00    +0.046 A 
ATOM     18  C   UNL     1     -13.579   7.169  20.697  0.00  0.00    +0.120 A 
BRANCH  18   3
ATOM      3  O   UNL     1     -14.516   6.705  21.568  0.00  0.00    -0.495 OA
ATOM     25  C   UNL     1     -14.496   5.309  21.861  0.00  0.00    +0.277 C 
ENDBRANCH  18   3
ENDBRANCH   7  11
BRANCH   8   1
ATOM      1  O   UNL     1     -10.731  11.200  15.312  0.00  0.00    -0.388 OA
ATOM     29  H   UNL     1     -10.279  12.001  15.630  0.00  0.00    +0.210 HD
ENDBRANCH   8   1
BRANCH  10   2
ATOM      2  O   UNL     1     -12.048   8.801  15.116  0.00  0.00    -0.389 OA
ATOM     30  H   UNL     1     -12.133   8.335  14.268  0.00  0.00    +0.210 HD
ENDBRANCH  10   2
BRANCH   6   4
ATOM      4  N   UNL     1     -10.286  11.067  18.357  0.00  0.00    -0.306 NA
ATOM     28  H   UNL     1     -10.025  10.614  19.232  0.00  0.00    +0.123 HD
BRANCH   4  12
ATOM     12  C   UNL     1     -11.229  12.138  18.648  0.00  0.00    +0.118 C 
BRANCH  12  15
ATOM      5  N   UNL     1     -14.715  11.332  19.880  0.00  0.00    -0.255 NA
ATOM     15  C   UNL     1     -12.349  11.671  19.540  0.00  0.00    -0.015 A 
ATOM     19  C   UNL     1     -12.097  11.161  20.805  0.00  0.00    +0.016 A 
ATOM     20  C   UNL     1     -13.665  11.735  19.129  0.00  0.00    +0.116 A 
ATOM     21  C   UNL     1     -13.156  10.732  21.616  0.00  0.00    +0.001 A 
ATOM     22  C   UNL     1     -14.467  10.837  21.108  0.00  0.00    +0.071 A 
ATOM     23  C   UNL     1     -12.933  10.210  22.902  0.00  0.00    +0.010 A 
ATOM     24  C   UNL     1     -15.520  10.412  21.914  0.00  0.00    +0.028 A 
ATOM     26  C   UNL     1     -14.005   9.792  23.687  0.00  0.00    +0.001 A 
ATOM     27  C   UNL     1     -15.299   9.893  23.192  0.00  0.00    +0.002 A 
ENDBRANCH  12  15
ENDBRANCH   4  12
ENDBRANCH   6   4
TORSDOF 7
ENDMDL
MODEL 9
REMARK VINA RESULT:      -7.0     26.177     28.839
REMARK  Name = 75536101
REMARK  8 active torsions:
REMARK  status: ('A' for Active; 'I' for Inactive)
REMARK    1  A    between atoms: O_1  and  C_8
REMARK    2  A    between atoms: O_2  and  C_10
REMARK    3  A    between atoms: O_3  and  C_18
REMARK    4  A    between atoms: O_3  and  C_25
REMARK    5  A    between atoms: N_4  and  C_6
REMARK    6  A    between atoms: N_4  and  C_12
REMARK    7  A    between atoms: C_7  and  C_11
REMARK    8  A    between atoms: C_12  and  C_15
REMARK                            x       y       z     vdW  Elec       q    Type
REMARK                         _______ _______ _______ _____ _____    ______ ____
ROOT
ATOM      6  C   UNL     1      -4.039 -11.177  16.961  0.00  0.00    +0.092 C 
ATOM      7  C   UNL     1      -5.428 -10.597  16.607  0.00  0.00    +0.041 C 
ATOM      8  C   UNL     1      -4.106 -11.336  18.479  0.00  0.00    +0.160 C 
ATOM      9  C   UNL     1      -6.377 -11.073  17.741  0.00  0.00    +0.043 C 
ATOM     10  C   UNL     1      -5.509 -11.896  18.695  0.00  0.00    +0.145 C 
ENDROOT
BRANCH   7  11
ATOM     11  C   UNL     1      -5.892 -10.970  15.214  0.00  0.00    -0.042 A 
ATOM     13  C   UNL     1      -6.269  -9.972  14.315  0.00  0.00    +0.007 A 
ATOM     14  C   UNL     1      -5.941 -12.309  14.830  0.00  0.00    +0.007 A 
ATOM     16  C   UNL     1      -6.696 -10.314  13.033  0.00  0.00    +0.046 A 
ATOM     17  C   UNL     1      -6.369 -12.651  13.546  0.00  0.00    +0.046 A 
ATOM     18  C   UNL     1      -6.746 -11.653  12.648  0.00  0.00    +0.120 A 
BRANCH  18   3
ATOM      3  O   UNL     1      -7.164 -11.987  11.397  0.00  0.00    -0.495 OA
ATOM     25  C   UNL     1      -7.596 -10.922  10.551  0.00  0.00    +0.277 C 
ENDBRANCH  18   3
ENDBRANCH   7  11
BRANCH   8   1
ATOM      1  O   UNL     1      -3.105 -12.214  18.956  0.00  0.00    -0.388 OA
ATOM     29  H   UNL     1      -3.380 -13.120  18.732  0.00  0.00    +0.210 HD
ENDBRANCH   8   1
BRANCH  10   2
ATOM      2  O   UNL     1      -5.555 -13.268  18.316  0.00  0.00    -0.389 OA
ATOM     30  H   UNL     1      -4.974 -13.378  17.545  0.00  0.00    +0.210 HD
ENDBRANCH  10   2
BRANCH   6   4
ATOM      4  N   UNL     1      -2.955 -10.287  16.557  0.00  0.00    -0.306 NA
ATOM     28  H   UNL     1      -3.326  -9.573  15.930  0.00  0.00    +0.123 HD
BRANCH   4  12
ATOM     12  C   UNL     1      -1.911 -11.025  15.861  0.00  0.00    +0.118 C 
BRANCH  12  15
ATOM      5  N   UNL     1      -2.767 -13.215  12.895  0.00  0.00    -0.255 NA
ATOM     15  C   UNL     1      -2.347 -11.444  14.481  0.00  0.00    -0.015 A 
ATOM     19  C   UNL     1      -2.723 -10.506  13.530  0.00  0.00    +0.016 A 
ATOM     20  C   UNL     1      -2.386 -12.774  14.115  0.00  0.00    +0.116 A 
ATOM     21  C   UNL     1      -3.125 -10.920  12.253  0.00  0.00    +0.001 A 
ATOM     22  C   UNL     1      -3.131 -12.302  11.974  0.00  0.00    +0.071 A 
ATOM     23  C   UNL     1      -3.513  -9.995  11.268  0.00  0.00    +0.010 A 
ATOM     24  C   UNL     1      -3.530 -12.714  10.705  0.00  0.00    +0.028 A 
ATOM     26  C   UNL     1      -3.906 -10.434  10.007  0.00  0.00    +0.001 A 
ATOM     27  C   UNL     1      -3.915 -11.795   9.725  0.00  0.00    +0.002 A 
ENDBRANCH  12  15
ENDBRANCH   4  12
ENDBRANCH   6   4
TORSDOF 7
ENDMDL
MODEL 10
REMARK VINA RESULT:      -6.8     26.616     29.471
REMARK  Name = 75536101
REMARK  8 active torsions:
REMARK  status: ('A' for Active; 'I' for Inactive)
REMARK    1  A    between atoms: O_1  and  C_8
REMARK    2  A    between atoms: O_2  and  C_10
REMARK    3  A    between atoms: O_3  and  C_18
REMARK    4  A    between atoms: O_3  and  C_25
REMARK    5  A    between atoms: N_4  and  C_6
REMARK    6  A    between atoms: N_4  and  C_12
REMARK    7  A    between atoms: C_7  and  C_11
REMARK    8  A    between atoms: C_12  and  C_15
REMARK                            x       y       z     vdW  Elec       q    Type
REMARK                         _______ _______ _______ _____ _____    ______ ____
ROOT
ATOM      6  C   UNL     1      -2.729 -12.393  12.736  0.00  0.00    +0.092 C 
ATOM      7  C   UNL     1      -2.273 -10.966  12.357  0.00  0.00    +0.041 C 
ATOM      8  C   UNL     1      -1.977 -12.664  14.038  0.00  0.00    +0.160 C 
ATOM      9  C   UNL     1      -1.875 -10.289  13.697  0.00  0.00    +0.043 C 
ATOM     10  C   UNL     1      -2.111 -11.339  14.784  0.00  0.00    +0.145 C 
ENDROOT
BRANCH   7  11
ATOM     11  C   UNL     1      -3.309 -10.201  11.560  0.00  0.00    -0.042 A 
ATOM     13  C   UNL     1      -2.946  -9.570  10.370  0.00  0.00    +0.007 A 
ATOM     14  C   UNL     1      -4.625 -10.128  12.015  0.00  0.00    +0.007 A 
ATOM     16  C   UNL     1      -3.899  -8.865   9.636  0.00  0.00    +0.046 A 
ATOM     17  C   UNL     1      -5.578  -9.423  11.280  0.00  0.00    +0.046 A 
ATOM     18  C   UNL     1      -5.215  -8.792  10.090  0.00  0.00    +0.120 A 
BRANCH  18   3
ATOM      3  O   UNL     1      -6.145  -8.104   9.374  0.00  0.00    -0.495 OA
ATOM     25  C   UNL     1      -7.515  -8.423   9.613  0.00  0.00    +0.277 C 
ENDBRANCH  18   3
ENDBRANCH   7  11
BRANCH   8   1
ATOM      1  O   UNL     1      -2.550 -13.739  14.759  0.00  0.00    -0.388 OA
ATOM     29  H   UNL     1      -2.150 -13.742  15.645  0.00  0.00    +0.210 HD
ENDBRANCH   8   1
BRANCH  10   2
ATOM      2  O   UNL     1      -3.429 -11.197  15.303  0.00  0.00    -0.389 OA
ATOM     30  H   UNL     1      -3.348 -10.933  16.235  0.00  0.00    +0.210 HD
ENDBRANCH  10   2
BRANCH   6   4
ATOM      4  N   UNL     1      -2.393 -13.369  11.704  0.00  0.00    -0.306 NA
ATOM     28  H   UNL     1      -2.086 -12.874  10.866  0.00  0.00    +0.123 HD
BRANCH   4  12
ATOM     12  C   UNL     1      -3.549 -14.187  11.368  0.00  0.00    +0.118 C 
BRANCH  12  15
ATOM      5  N   UNL     1      -6.742 -12.744   9.938  0.00  0.00    -0.255 NA
ATOM     15  C   UNL     1      -4.495 -13.466  10.443  0.00  0.00    -0.015 A 
ATOM     19  C   UNL     1      -4.043 -12.870   9.275  0.00  0.00    +0.016 A 
ATOM     20  C   UNL     1      -5.842 -13.376  10.726  0.00  0.00    +0.116 A 
ATOM     21  C   UNL     1      -4.943 -12.204   8.430  0.00  0.00    +0.001 A 
ATOM     22  C   UNL     1      -6.301 -12.166   8.805  0.00  0.00    +0.071 A 
ATOM     23  C   UNL     1      -4.516 -11.589   7.240  0.00  0.00    +0.010 A 
ATOM     24  C   UNL     1      -7.195 -11.506   7.965  0.00  0.00    +0.028 A 
ATOM     26  C   UNL     1      -5.431 -10.936   6.419  0.00  0.00    +0.001 A 
ATOM     27  C   UNL     1      -6.772 -10.894   6.782  0.00  0.00    +0.002 A 
ENDBRANCH  12  15
ENDBRANCH   4  12
ENDBRANCH   6   4
TORSDOF 7
ENDMDL
