MODEL 1
REMARK VINA RESULT:      -6.9      0.000      0.000
REMARK  Name = 11912213
REMARK  7 active torsions:
REMARK  status: ('A' for Active; 'I' for Inactive)
REMARK    1  A    between atoms: S_1  and  C_21
REMARK    2  A    between atoms: S_1  and  C_25
REMARK    3  A    between atoms: O_4  and  C_29
REMARK    4  A    between atoms: C_18  and  C_21
REMARK    5  A    between atoms: C_19  and  C_22
REMARK    6  A    between atoms: C_25  and  C_29
REMARK    7  A    between atoms: C_26  and  C_30
REMARK                            x       y       z     vdW  Elec       q    Type
REMARK                         _______ _______ _______ _____ _____    ______ ____
ROOT
ATOM      2  O   UNL     1      12.496   7.166   3.397  0.00  0.00    -0.267 OA
ATOM      3  O   UNL     1      12.303   7.067  -1.945  0.00  0.00    -0.275 OA
ATOM      6  N   UNL     1      13.320   5.146  -1.125  0.00  0.00    -0.300 N 
ATOM      7  N   UNL     1      13.158   5.378   2.056  0.00  0.00    -0.311 N 
ATOM      9  C   UNL     1      15.186   5.501   0.498  0.00  0.00    +0.027 C 
ATOM     10  C   UNL     1      13.852   3.439   0.605  0.00  0.00    +0.054 C 
ATOM     11  C   UNL     1      15.270   3.995   0.716  0.00  0.00    +0.018 C 
ATOM     12  C   UNL     1      14.603   5.816  -0.891  0.00  0.00    +0.113 C 
ATOM     13  C   UNL     1      14.352   6.119   1.627  0.00  0.00    +0.130 C 
ATOM     14  C   UNL     1      13.298   3.711  -0.808  0.00  0.00    +0.117 C 
ATOM     15  C   UNL     1      12.938   4.061   1.644  0.00  0.00    +0.027 A 
ATOM     16  C   UNL     1      11.906   3.363   2.143  0.00  0.00    +0.022 A 
ATOM     17  C   UNL     1      12.315   6.021   2.983  0.00  0.00    +0.259 A 
ATOM     18  C   UNL     1      12.263   5.862  -1.687  0.00  0.00    +0.225 C 
ATOM     19  C   UNL     1      11.145   5.224   3.497  0.00  0.00    +0.047 A 
ATOM     20  C   UNL     1      10.996   3.958   3.079  0.00  0.00    +0.015 A 
ENDROOT
BRANCH  19  22
ATOM     22  C   UNL     1      10.173   5.814   4.435  0.00  0.00    -0.011 A 
ATOM     23  C   UNL     1      10.215   5.476   5.788  0.00  0.00    +0.027 A 
ATOM     24  C   UNL     1       9.211   6.710   3.971  0.00  0.00    +0.009 A 
ATOM     26  C   UNL     1       9.296   6.034   6.676  0.00  0.00    +0.052 A 
ATOM     27  C   UNL     1       8.291   7.269   4.858  0.00  0.00    +0.002 A 
ATOM     28  C   UNL     1       8.333   6.931   6.211  0.00  0.00    +0.019 A 
BRANCH  26  30
ATOM      8  N   UNL     1       9.371   5.405   9.188  0.00  0.00    -0.191 NA
ATOM     30  C   UNL     1       9.337   5.687   8.062  0.00  0.00    +0.099 C 
ENDBRANCH  26  30
ENDBRANCH  19  22
BRANCH  18  21
ATOM     21  C   UNL     1      11.004   5.086  -1.980  0.00  0.00    +0.165 C 
BRANCH  21   1
ATOM      1  S   UNL     1      10.938   4.803  -3.756  0.00  0.00    -0.140 S 
BRANCH   1  25
ATOM     25  C   UNL     1      11.010   2.994  -3.753  0.00  0.00    +0.189 C 
BRANCH  25  29
ATOM      5  O   UNL     1       9.318   1.392  -3.140  0.00  0.00    -0.250 OA
ATOM     29  C   UNL     1       9.616   2.439  -3.700  0.00  0.00    +0.315 C 
BRANCH  29   4
ATOM      4  O   UNL     1       8.712   3.232  -4.329  0.00  0.00    -0.480 OA
ATOM     31  H   UNL     1       9.146   3.965  -4.817  0.00  0.00    +0.295 HD
ENDBRANCH  29   4
ENDBRANCH  25  29
ENDBRANCH   1  25
ENDBRANCH  21   1
ENDBRANCH  18  21
TORSDOF 7
ENDMDL
MODEL 2
REMARK VINA RESULT:      -6.9     14.856     18.941
REMARK  Name = 11912213
REMARK  7 active torsions:
REMARK  status: ('A' for Active; 'I' for Inactive)
REMARK    1  A    between atoms: S_1  and  C_21
REMARK    2  A    between atoms: S_1  and  C_25
REMARK    3  A    between atoms: O_4  and  C_29
REMARK    4  A    between atoms: C_18  and  C_21
REMARK    5  A    between atoms: C_19  and  C_22
REMARK    6  A    between atoms: C_25  and  C_29
REMARK    7  A    between atoms: C_26  and  C_30
REMARK                            x       y       z     vdW  Elec       q    Type
REMARK                         _______ _______ _______ _____ _____    ______ ____
ROOT
ATOM      2  O   UNL     1      15.411   5.856  19.705  0.00  0.00    -0.267 OA
ATOM      3  O   UNL     1      13.742   8.517  15.378  0.00  0.00    -0.275 OA
ATOM      6  N   UNL     1      13.020   9.570  17.319  0.00  0.00    -0.300 N 
ATOM      7  N   UNL     1      14.278   7.893  19.727  0.00  0.00    -0.311 N 
ATOM      9  C   UNL     1      11.840   8.123  18.979  0.00  0.00    +0.027 C 
ATOM     10  C   UNL     1      13.073  10.106  19.748  0.00  0.00    +0.054 C 
ATOM     11  C   UNL     1      11.797   9.294  19.953  0.00  0.00    +0.018 C 
ATOM     12  C   UNL     1      11.916   8.629  17.527  0.00  0.00    +0.113 C 
ATOM     13  C   UNL     1      13.030   7.224  19.337  0.00  0.00    +0.130 C 
ATOM     14  C   UNL     1      13.112  10.655  18.308  0.00  0.00    +0.117 C 
ATOM     15  C   UNL     1      14.306   9.262  20.009  0.00  0.00    +0.027 A 
ATOM     16  C   UNL     1      15.428   9.829  20.480  0.00  0.00    +0.022 A 
ATOM     17  C   UNL     1      15.407   7.071  19.908  0.00  0.00    +0.259 A 
ATOM     18  C   UNL     1      13.836   9.436  16.196  0.00  0.00    +0.225 C 
ATOM     19  C   UNL     1      16.660   7.743  20.402  0.00  0.00    +0.047 A 
ATOM     20  C   UNL     1      16.621   9.056  20.673  0.00  0.00    +0.015 A 
ENDROOT
BRANCH  19  22
ATOM     22  C   UNL     1      17.912   6.986  20.582  0.00  0.00    -0.011 A 
ATOM     23  C   UNL     1      18.778   7.308  21.627  0.00  0.00    +0.027 A 
ATOM     24  C   UNL     1      18.231   5.947  19.708  0.00  0.00    +0.009 A 
ATOM     26  C   UNL     1      19.963   6.592  21.798  0.00  0.00    +0.052 A 
ATOM     27  C   UNL     1      19.415   5.230  19.878  0.00  0.00    +0.002 A 
ATOM     28  C   UNL     1      20.282   5.552  20.923  0.00  0.00    +0.019 A 
BRANCH  26  30
ATOM      8  N   UNL     1      21.575   7.189  23.736  0.00  0.00    -0.191 NA
ATOM     30  C   UNL     1      20.852   6.922  22.867  0.00  0.00    +0.099 C 
ENDBRANCH  26  30
ENDBRANCH  19  22
BRANCH  18  21
ATOM     21  C   UNL     1      14.895  10.491  16.001  0.00  0.00    +0.165 C 
BRANCH  21   1
ATOM      1  S   UNL     1      14.254  11.698  14.830  0.00  0.00    -0.140 S 
BRANCH   1  25
ATOM     25  C   UNL     1      15.825  12.364  14.227  0.00  0.00    +0.189 C 
BRANCH  25  29
ATOM      5  O   UNL     1      16.390  12.786  11.923  0.00  0.00    -0.250 OA
ATOM     29  C   UNL     1      15.996  12.005  12.779  0.00  0.00    +0.315 C 
BRANCH  29   4
ATOM      4  O   UNL     1      15.682  10.710  12.519  0.00  0.00    -0.480 OA
ATOM     31  H   UNL     1      16.316  10.300  11.892  0.00  0.00    +0.295 HD
ENDBRANCH  29   4
ENDBRANCH  25  29
ENDBRANCH   1  25
ENDBRANCH  21   1
ENDBRANCH  18  21
TORSDOF 7
ENDMDL
MODEL 3
REMARK VINA RESULT:      -6.7      1.658      2.131
REMARK  Name = 11912213
REMARK  7 active torsions:
REMARK  status: ('A' for Active; 'I' for Inactive)
REMARK    1  A    between atoms: S_1  and  C_21
REMARK    2  A    between atoms: S_1  and  C_25
REMARK    3  A    between atoms: O_4  and  C_29
REMARK    4  A    between atoms: C_18  and  C_21
REMARK    5  A    between atoms: C_19  and  C_22
REMARK    6  A    between atoms: C_25  and  C_29
REMARK    7  A    between atoms: C_26  and  C_30
REMARK                            x       y       z     vdW  Elec       q    Type
REMARK                         _______ _______ _______ _____ _____    ______ ____
ROOT
ATOM      2  O   UNL     1      12.395   7.412   3.401  0.00  0.00    -0.267 OA
ATOM      3  O   UNL     1      12.550   6.724  -1.900  0.00  0.00    -0.275 OA
ATOM      6  N   UNL     1      13.251   4.800  -0.801  0.00  0.00    -0.300 N 
ATOM      7  N   UNL     1      12.907   5.414   2.313  0.00  0.00    -0.311 N 
ATOM      9  C   UNL     1      15.034   5.109   0.921  0.00  0.00    +0.027 C 
ATOM     10  C   UNL     1      13.438   3.250   1.136  0.00  0.00    +0.054 C 
ATOM     11  C   UNL     1      14.905   3.638   1.302  0.00  0.00    +0.018 C 
ATOM     12  C   UNL     1      14.591   5.330  -0.536  0.00  0.00    +0.113 C 
ATOM     13  C   UNL     1      14.213   5.949   1.907  0.00  0.00    +0.130 C 
ATOM     14  C   UNL     1      13.020   3.424  -0.338  0.00  0.00    +0.117 C 
ATOM     15  C   UNL     1      12.546   4.095   2.026  0.00  0.00    +0.027 A 
ATOM     16  C   UNL     1      11.400   3.590   2.510  0.00  0.00    +0.022 A 
ATOM     17  C   UNL     1      12.094   6.257   3.096  0.00  0.00    +0.259 A 
ATOM     18  C   UNL     1      12.336   5.570  -1.520  0.00  0.00    +0.225 C 
ATOM     19  C   UNL     1      10.799   5.673   3.594  0.00  0.00    +0.047 A 
ATOM     20  C   UNL     1      10.515   4.395   3.302  0.00  0.00    +0.015 A 
ENDROOT
BRANCH  19  22
ATOM     22  C   UNL     1       9.852   6.481   4.383  0.00  0.00    -0.011 A 
ATOM     23  C   UNL     1       9.015   7.397   3.745  0.00  0.00    +0.027 A 
ATOM     24  C   UNL     1       9.791   6.330   5.768  0.00  0.00    +0.009 A 
ATOM     26  C   UNL     1       8.119   8.162   4.492  0.00  0.00    +0.052 A 
ATOM     27  C   UNL     1       8.895   7.094   6.516  0.00  0.00    +0.002 A 
ATOM     28  C   UNL     1       8.058   8.010   5.878  0.00  0.00    +0.019 A 
BRANCH  26  30
ATOM      8  N   UNL     1       6.567   9.866   3.308  0.00  0.00    -0.191 NA
ATOM     30  C   UNL     1       7.263   9.102   3.839  0.00  0.00    +0.099 C 
ENDBRANCH  26  30
ENDBRANCH  19  22
BRANCH  18  21
ATOM     21  C   UNL     1      11.009   4.925  -1.831  0.00  0.00    +0.165 C 
BRANCH  21   1
ATOM      1  S   UNL     1      10.930   4.668  -3.610  0.00  0.00    -0.140 S 
BRANCH   1  25
ATOM     25  C   UNL     1       9.268   3.959  -3.716  0.00  0.00    +0.189 C 
BRANCH  25  29
ATOM      5  O   UNL     1       9.481   1.630  -3.135  0.00  0.00    -0.250 OA
ATOM     29  C   UNL     1       9.370   2.488  -4.001  0.00  0.00    +0.315 C 
BRANCH  29   4
ATOM      4  O   UNL     1       9.310   2.206  -5.327  0.00  0.00    -0.480 OA
ATOM     31  H   UNL     1       9.750   2.897  -5.867  0.00  0.00    +0.295 HD
ENDBRANCH  29   4
ENDBRANCH  25  29
ENDBRANCH   1  25
ENDBRANCH  21   1
ENDBRANCH  18  21
TORSDOF 7
ENDMDL
MODEL 4
REMARK VINA RESULT:      -6.4     25.271     29.004
REMARK  Name = 11912213
REMARK  7 active torsions:
REMARK  status: ('A' for Active; 'I' for Inactive)
REMARK    1  A    between atoms: S_1  and  C_21
REMARK    2  A    between atoms: S_1  and  C_25
REMARK    3  A    between atoms: O_4  and  C_29
REMARK    4  A    between atoms: C_18  and  C_21
REMARK    5  A    between atoms: C_19  and  C_22
REMARK    6  A    between atoms: C_25  and  C_29
REMARK    7  A    between atoms: C_26  and  C_30
REMARK                            x       y       z     vdW  Elec       q    Type
REMARK                         _______ _______ _______ _____ _____    ______ ____
ROOT
ATOM      2  O   UNL     1      -5.720 -13.336  15.061  0.00  0.00    -0.267 OA
ATOM      3  O   UNL     1     -10.202 -10.578  16.004  0.00  0.00    -0.275 OA
ATOM      6  N   UNL     1      -9.002 -10.890  17.969  0.00  0.00    -0.300 N 
ATOM      7  N   UNL     1      -6.322 -12.399  17.109  0.00  0.00    -0.311 N 
ATOM      9  C   UNL     1      -8.319 -13.239  18.475  0.00  0.00    +0.027 C 
ATOM     10  C   UNL     1      -6.965 -11.367  19.316  0.00  0.00    +0.054 C 
ATOM     11  C   UNL     1      -7.528 -12.739  19.678  0.00  0.00    +0.018 C 
ATOM     12  C   UNL     1      -9.466 -12.270  18.140  0.00  0.00    +0.113 C 
ATOM     13  C   UNL     1      -7.358 -13.425  17.294  0.00  0.00    +0.130 C 
ATOM     14  C   UNL     1      -8.124 -10.389  19.037  0.00  0.00    +0.117 C 
ATOM     15  C   UNL     1      -6.060 -11.451  18.102  0.00  0.00    +0.027 A 
ATOM     16  C   UNL     1      -5.030 -10.601  17.964  0.00  0.00    +0.022 A 
ATOM     17  C   UNL     1      -5.542 -12.492  15.940  0.00  0.00    +0.259 A 
ATOM     18  C   UNL     1      -9.466 -10.137  16.890  0.00  0.00    +0.225 C 
ATOM     19  C   UNL     1      -4.418 -11.501  15.798  0.00  0.00    +0.047 A 
ATOM     20  C   UNL     1      -4.203 -10.626  16.792  0.00  0.00    +0.015 A 
ENDROOT
BRANCH  19  22
ATOM     22  C   UNL     1      -3.568 -11.479  14.595  0.00  0.00    -0.011 A 
ATOM     23  C   UNL     1      -3.914 -10.672  13.510  0.00  0.00    +0.027 A 
ATOM     24  C   UNL     1      -2.417 -12.264  14.539  0.00  0.00    +0.009 A 
ATOM     26  C   UNL     1      -3.110 -10.651  12.371  0.00  0.00    +0.052 A 
ATOM     27  C   UNL     1      -1.611 -12.243  13.400  0.00  0.00    +0.002 A 
ATOM     28  C   UNL     1      -1.958 -11.436  12.315  0.00  0.00    +0.019 A 
BRANCH  26  30
ATOM      8  N   UNL     1      -3.752  -9.156  10.355  0.00  0.00    -0.191 NA
ATOM     30  C   UNL     1      -3.465  -9.826  11.259  0.00  0.00    +0.099 C 
ENDBRANCH  26  30
ENDBRANCH  19  22
BRANCH  18  21
ATOM     21  C   UNL     1      -9.015  -8.700  16.827  0.00  0.00    +0.165 C 
BRANCH  21   1
ATOM      1  S   UNL     1     -10.466  -7.662  17.062  0.00  0.00    -0.140 S 
BRANCH   1  25
ATOM     25  C   UNL     1     -10.350  -6.674  15.550  0.00  0.00    +0.189 C 
BRANCH  25  29
ATOM      5  O   UNL     1     -12.666  -6.158  15.975  0.00  0.00    -0.250 OA
ATOM     29  C   UNL     1     -11.650  -5.958  15.321  0.00  0.00    +0.315 C 
BRANCH  29   4
ATOM      4  O   UNL     1     -11.577  -5.048  14.316  0.00  0.00    -0.480 OA
ATOM     31  H   UNL     1     -10.658  -4.732  14.176  0.00  0.00    +0.295 HD
ENDBRANCH  29   4
ENDBRANCH  25  29
ENDBRANCH   1  25
ENDBRANCH  21   1
ENDBRANCH  18  21
TORSDOF 7
ENDMDL
MODEL 5
REMARK VINA RESULT:      -6.3     25.947     29.220
REMARK  Name = 11912213
REMARK  7 active torsions:
REMARK  status: ('A' for Active; 'I' for Inactive)
REMARK    1  A    between atoms: S_1  and  C_21
REMARK    2  A    between atoms: S_1  and  C_25
REMARK    3  A    between atoms: O_4  and  C_29
REMARK    4  A    between atoms: C_18  and  C_21
REMARK    5  A    between atoms: C_19  and  C_22
REMARK    6  A    between atoms: C_25  and  C_29
REMARK    7  A    between atoms: C_26  and  C_30
REMARK                            x       y       z     vdW  Elec       q    Type
REMARK                         _______ _______ _______ _____ _____    ______ ____
ROOT
ATOM      2  O   UNL     1     -13.435  10.641  19.954  0.00  0.00    -0.267 OA
ATOM      3  O   UNL     1     -13.648  11.984  14.783  0.00  0.00    -0.275 OA
ATOM      6  N   UNL     1     -11.532  12.394  15.651  0.00  0.00    -0.300 N 
ATOM      7  N   UNL     1     -11.626  11.361  18.671  0.00  0.00    -0.311 N 
ATOM      9  C   UNL     1     -11.452  13.744  17.752  0.00  0.00    +0.027 C 
ATOM     10  C   UNL     1      -9.669  12.119  17.277  0.00  0.00    +0.054 C 
ATOM     11  C   UNL     1      -9.947  13.515  17.829  0.00  0.00    +0.018 C 
ATOM     12  C   UNL     1     -11.939  13.645  16.296  0.00  0.00    +0.113 C 
ATOM     13  C   UNL     1     -12.154  12.732  18.665  0.00  0.00    +0.130 C 
ATOM     14  C   UNL     1     -10.111  12.047  15.802  0.00  0.00    +0.117 C 
ATOM     15  C   UNL     1     -10.396  11.058  18.083  0.00  0.00    +0.027 A 
ATOM     16  C   UNL     1      -9.876   9.826  18.206  0.00  0.00    +0.022 A 
ATOM     17  C   UNL     1     -12.366  10.403  19.392  0.00  0.00    +0.259 A 
ATOM     18  C   UNL     1     -12.459  11.675  14.896  0.00  0.00    +0.225 C 
ATOM     19  C   UNL     1     -11.775   9.021  19.481  0.00  0.00    +0.047 A 
ATOM     20  C   UNL     1     -10.581   8.794  18.911  0.00  0.00    +0.015 A 
ENDROOT
BRANCH  19  22
ATOM     22  C   UNL     1     -12.485   7.930  20.171  0.00  0.00    -0.011 A 
ATOM     23  C   UNL     1     -13.869   7.807  20.042  0.00  0.00    +0.027 A 
ATOM     24  C   UNL     1     -11.775   7.020  20.953  0.00  0.00    +0.009 A 
ATOM     26  C   UNL     1     -14.542   6.774  20.695  0.00  0.00    +0.052 A 
ATOM     27  C   UNL     1     -12.447   5.986  21.606  0.00  0.00    +0.002 A 
ATOM     28  C   UNL     1     -13.831   5.863  21.477  0.00  0.00    +0.019 A 
BRANCH  26  30
ATOM      8  N   UNL     1     -17.112   6.545  20.460  0.00  0.00    -0.191 NA
ATOM     30  C   UNL     1     -15.960   6.648  20.565  0.00  0.00    +0.099 C 
ENDBRANCH  26  30
ENDBRANCH  19  22
BRANCH  18  21
ATOM     21  C   UNL     1     -11.946  10.445  14.191  0.00  0.00    +0.165 C 
BRANCH  21   1
ATOM      1  S   UNL     1     -12.211   9.039  15.282  0.00  0.00    -0.140 S 
BRANCH   1  25
ATOM     25  C   UNL     1     -10.653   8.165  14.995  0.00  0.00    +0.189 C 
BRANCH  25  29
ATOM      5  O   UNL     1     -11.557   6.793  13.232  0.00  0.00    -0.250 OA
ATOM     29  C   UNL     1     -10.674   7.543  13.628  0.00  0.00    +0.315 C 
BRANCH  29   4
ATOM      4  O   UNL     1      -9.613   7.914  12.868  0.00  0.00    -0.480 OA
ATOM     31  H   UNL     1      -9.485   8.887  12.870  0.00  0.00    +0.295 HD
ENDBRANCH  29   4
ENDBRANCH  25  29
ENDBRANCH   1  25
ENDBRANCH  21   1
ENDBRANCH  18  21
TORSDOF 7
ENDMDL
MODEL 6
REMARK VINA RESULT:      -6.3      2.440      3.360
REMARK  Name = 11912213
REMARK  7 active torsions:
REMARK  status: ('A' for Active; 'I' for Inactive)
REMARK    1  A    between atoms: S_1  and  C_21
REMARK    2  A    between atoms: S_1  and  C_25
REMARK    3  A    between atoms: O_4  and  C_29
REMARK    4  A    between atoms: C_18  and  C_21
REMARK    5  A    between atoms: C_19  and  C_22
REMARK    6  A    between atoms: C_25  and  C_29
REMARK    7  A    between atoms: C_26  and  C_30
REMARK                            x       y       z     vdW  Elec       q    Type
REMARK                         _______ _______ _______ _____ _____    ______ ____
ROOT
ATOM      2  O   UNL     1      12.453   7.341   3.535  0.00  0.00    -0.267 OA
ATOM      3  O   UNL     1      12.637   6.870  -1.788  0.00  0.00    -0.275 OA
ATOM      6  N   UNL     1      13.306   4.894  -0.765  0.00  0.00    -0.300 N 
ATOM      7  N   UNL     1      12.947   5.383   2.370  0.00  0.00    -0.311 N 
ATOM      9  C   UNL     1      15.081   5.109   0.980  0.00  0.00    +0.027 C 
ATOM     10  C   UNL     1      13.461   3.264   1.108  0.00  0.00    +0.054 C 
ATOM     11  C   UNL     1      14.932   3.627   1.299  0.00  0.00    +0.018 C 
ATOM     12  C   UNL     1      14.651   5.396  -0.470  0.00  0.00    +0.113 C 
ATOM     13  C   UNL     1      14.263   5.919   1.994  0.00  0.00    +0.130 C 
ATOM     14  C   UNL     1      13.056   3.503  -0.361  0.00  0.00    +0.117 C 
ATOM     15  C   UNL     1      12.573   4.082   2.025  0.00  0.00    +0.027 A 
ATOM     16  C   UNL     1      11.418   3.572   2.481  0.00  0.00    +0.022 A 
ATOM     17  C   UNL     1      12.140   6.204   3.181  0.00  0.00    +0.259 A 
ATOM     18  C   UNL     1      12.406   5.704  -1.458  0.00  0.00    +0.225 C 
ATOM     19  C   UNL     1      10.834   5.616   3.646  0.00  0.00    +0.047 A 
ATOM     20  C   UNL     1      10.536   4.355   3.299  0.00  0.00    +0.015 A 
ENDROOT
BRANCH  19  22
ATOM     22  C   UNL     1       9.891   6.403   4.461  0.00  0.00    -0.011 A 
ATOM     23  C   UNL     1       9.059   7.344   3.854  0.00  0.00    +0.027 A 
ATOM     24  C   UNL     1       9.830   6.207   5.841  0.00  0.00    +0.009 A 
ATOM     26  C   UNL     1       8.167   8.089   4.625  0.00  0.00    +0.052 A 
ATOM     27  C   UNL     1       8.937   6.951   6.613  0.00  0.00    +0.002 A 
ATOM     28  C   UNL     1       8.105   7.892   6.005  0.00  0.00    +0.019 A 
BRANCH  26  30
ATOM      8  N   UNL     1       6.623   9.838   3.499  0.00  0.00    -0.191 NA
ATOM     30  C   UNL     1       7.315   9.054   4.004  0.00  0.00    +0.099 C 
ENDBRANCH  26  30
ENDBRANCH  19  22
BRANCH  18  21
ATOM     21  C   UNL     1      11.074   5.089  -1.804  0.00  0.00    +0.165 C 
BRANCH  21   1
ATOM      1  S   UNL     1       9.816   6.359  -1.596  0.00  0.00    -0.140 S 
BRANCH   1  25
ATOM     25  C   UNL     1       9.926   6.571   0.198  0.00  0.00    +0.189 C 
BRANCH  25  29
ATOM      5  O   UNL     1       9.266   8.845   0.647  0.00  0.00    -0.250 OA
ATOM     29  C   UNL     1      10.161   8.019   0.517  0.00  0.00    +0.315 C 
BRANCH  29   4
ATOM      4  O   UNL     1      11.477   8.316   0.662  0.00  0.00    -0.480 OA
ATOM     31  H   UNL     1      11.666   8.716   1.539  0.00  0.00    +0.295 HD
ENDBRANCH  29   4
ENDBRANCH  25  29
ENDBRANCH   1  25
ENDBRANCH  21   1
ENDBRANCH  18  21
TORSDOF 7
ENDMDL
MODEL 7
REMARK VINA RESULT:      -6.2     21.040     22.933
REMARK  Name = 11912213
REMARK  7 active torsions:
REMARK  status: ('A' for Active; 'I' for Inactive)
REMARK    1  A    between atoms: S_1  and  C_21
REMARK    2  A    between atoms: S_1  and  C_25
REMARK    3  A    between atoms: O_4  and  C_29
REMARK    4  A    between atoms: C_18  and  C_21
REMARK    5  A    between atoms: C_19  and  C_22
REMARK    6  A    between atoms: C_25  and  C_29
REMARK    7  A    between atoms: C_26  and  C_30
REMARK                            x       y       z     vdW  Elec       q    Type
REMARK                         _______ _______ _______ _____ _____    ______ ____
ROOT
ATOM      2  O   UNL     1       1.506 -11.868  -3.524  0.00  0.00    -0.267 OA
ATOM      3  O   UNL     1      -2.559 -13.438  -6.622  0.00  0.00    -0.275 OA
ATOM      6  N   UNL     1      -0.524 -14.032  -7.573  0.00  0.00    -0.300 N 
ATOM      7  N   UNL     1       1.704 -13.140  -5.467  0.00  0.00    -0.311 N 
ATOM      9  C   UNL     1       1.163 -12.202  -7.788  0.00  0.00    +0.027 C 
ATOM     10  C   UNL     1       1.913 -14.532  -7.557  0.00  0.00    +0.054 C 
ATOM     11  C   UNL     1       2.185 -13.218  -8.284  0.00  0.00    +0.018 C 
ATOM     12  C   UNL     1      -0.267 -12.685  -8.088  0.00  0.00    +0.113 C 
ATOM     13  C   UNL     1       1.387 -11.964  -6.290  0.00  0.00    +0.130 C 
ATOM     14  C   UNL     1       0.498 -15.035  -7.908  0.00  0.00    +0.117 C 
ATOM     15  C   UNL     1       2.039 -14.363  -6.055  0.00  0.00    +0.027 A 
ATOM     16  C   UNL     1       2.442 -15.389  -5.288  0.00  0.00    +0.022 A 
ATOM     17  C   UNL     1       1.759 -12.940  -4.074  0.00  0.00    +0.259 A 
ATOM     18  C   UNL     1      -1.714 -14.294  -6.893  0.00  0.00    +0.225 C 
ATOM     19  C   UNL     1       2.178 -14.120  -3.239  0.00  0.00    +0.047 A 
ATOM     20  C   UNL     1       2.506 -15.263  -3.860  0.00  0.00    +0.015 A 
ENDROOT
BRANCH  19  22
ATOM     22  C   UNL     1       2.226 -14.036  -1.769  0.00  0.00    -0.011 A 
ATOM     23  C   UNL     1       1.054 -14.169  -1.023  0.00  0.00    +0.027 A 
ATOM     24  C   UNL     1       3.443 -13.823  -1.121  0.00  0.00    +0.009 A 
ATOM     26  C   UNL     1       1.099 -14.089   0.369  0.00  0.00    +0.052 A 
ATOM     27  C   UNL     1       3.489 -13.744   0.271  0.00  0.00    +0.002 A 
ATOM     28  C   UNL     1       2.317 -13.877   1.016  0.00  0.00    +0.019 A 
BRANCH  26  30
ATOM      8  N   UNL     1      -1.077 -14.333   1.754  0.00  0.00    -0.191 NA
ATOM     30  C   UNL     1      -0.101 -14.224   1.133  0.00  0.00    +0.099 C 
ENDBRANCH  26  30
ENDBRANCH  19  22
BRANCH  18  21
ATOM     21  C   UNL     1      -1.949 -15.722  -6.470  0.00  0.00    +0.165 C 
BRANCH  21   1
ATOM      1  S   UNL     1      -2.750 -15.690  -4.859  0.00  0.00    -0.140 S 
BRANCH   1  25
ATOM     25  C   UNL     1      -1.379 -15.033  -3.878  0.00  0.00    +0.189 C 
BRANCH  25  29
ATOM      5  O   UNL     1      -2.333 -13.760  -2.068  0.00  0.00    -0.250 OA
ATOM     29  C   UNL     1      -1.819 -13.779  -3.179  0.00  0.00    +0.315 C 
BRANCH  29   4
ATOM      4  O   UNL     1      -1.573 -12.660  -3.907  0.00  0.00    -0.480 OA
ATOM     31  H   UNL     1      -2.400 -12.187  -4.140  0.00  0.00    +0.295 HD
ENDBRANCH  29   4
ENDBRANCH  25  29
ENDBRANCH   1  25
ENDBRANCH  21   1
ENDBRANCH  18  21
TORSDOF 7
ENDMDL
MODEL 8
REMARK VINA RESULT:      -6.1     24.201     26.727
REMARK  Name = 11912213
REMARK  7 active torsions:
REMARK  status: ('A' for Active; 'I' for Inactive)
REMARK    1  A    between atoms: S_1  and  C_21
REMARK    2  A    between atoms: S_1  and  C_25
REMARK    3  A    between atoms: O_4  and  C_29
REMARK    4  A    between atoms: C_18  and  C_21
REMARK    5  A    between atoms: C_19  and  C_22
REMARK    6  A    between atoms: C_25  and  C_29
REMARK    7  A    between atoms: C_26  and  C_30
REMARK                            x       y       z     vdW  Elec       q    Type
REMARK                         _______ _______ _______ _____ _____    ______ ____
ROOT
ATOM      2  O   UNL     1      -5.174 -13.004  10.216  0.00  0.00    -0.267 OA
ATOM      3  O   UNL     1      -5.919 -12.593  15.495  0.00  0.00    -0.275 OA
ATOM      6  N   UNL     1      -3.653 -12.573  14.982  0.00  0.00    -0.300 N 
ATOM      7  N   UNL     1      -3.492 -12.660  11.794  0.00  0.00    -0.311 N 
ATOM      9  C   UNL     1      -2.842 -14.432  13.523  0.00  0.00    +0.027 C 
ATOM     10  C   UNL     1      -1.679 -12.266  13.499  0.00  0.00    +0.054 C 
ATOM     11  C   UNL     1      -1.467 -13.778  13.472  0.00  0.00    +0.018 C 
ATOM     12  C   UNL     1      -3.587 -14.026  14.808  0.00  0.00    +0.113 C 
ATOM     13  C   UNL     1      -3.622 -14.047  12.260  0.00  0.00    +0.130 C 
ATOM     14  C   UNL     1      -2.376 -11.864  14.814  0.00  0.00    +0.117 C 
ATOM     15  C   UNL     1      -2.513 -11.811  12.316  0.00  0.00    +0.027 A 
ATOM     16  C   UNL     1      -2.333 -10.588  11.792  0.00  0.00    +0.022 A 
ATOM     17  C   UNL     1      -4.325 -12.272  10.726  0.00  0.00    +0.259 A 
ATOM     18  C   UNL     1      -4.858 -11.979  15.360  0.00  0.00    +0.225 C 
ATOM     19  C   UNL     1      -4.124 -10.882  10.184  0.00  0.00    +0.047 A 
ATOM     20  C   UNL     1      -3.156 -10.119  10.714  0.00  0.00    +0.015 A 
ENDROOT
BRANCH  19  22
ATOM     22  C   UNL     1      -4.971 -10.356   9.099  0.00  0.00    -0.011 A 
ATOM     23  C   UNL     1      -6.002  -9.462   9.388  0.00  0.00    +0.027 A 
ATOM     24  C   UNL     1      -4.743 -10.753   7.781  0.00  0.00    +0.009 A 
ATOM     26  C   UNL     1      -6.804  -8.964   8.361  0.00  0.00    +0.052 A 
ATOM     27  C   UNL     1      -5.544 -10.256   6.753  0.00  0.00    +0.002 A 
ATOM     28  C   UNL     1      -6.575  -9.361   7.043  0.00  0.00    +0.019 A 
BRANCH  26  30
ATOM      8  N   UNL     1      -8.721  -7.305   8.896  0.00  0.00    -0.191 NA
ATOM     30  C   UNL     1      -7.861  -8.049   8.657  0.00  0.00    +0.099 C 
ENDBRANCH  26  30
ENDBRANCH  19  22
BRANCH  18  21
ATOM     21  C   UNL     1      -4.829 -10.492  15.606  0.00  0.00    +0.165 C 
BRANCH  21   1
ATOM      1  S   UNL     1      -5.994 -10.134  16.929  0.00  0.00    -0.140 S 
BRANCH   1  25
ATOM     25  C   UNL     1      -5.029 -10.758  18.327  0.00  0.00    +0.189 C 
BRANCH  25  29
ATOM      5  O   UNL     1      -6.488 -11.385  20.140  0.00  0.00    -0.250 OA
ATOM     29  C   UNL     1      -5.871 -11.706  19.132  0.00  0.00    +0.315 C 
BRANCH  29   4
ATOM      4  O   UNL     1      -5.889 -12.960  18.614  0.00  0.00    -0.480 OA
ATOM     31  H   UNL     1      -5.366 -13.587  19.158  0.00  0.00    +0.295 HD
ENDBRANCH  29   4
ENDBRANCH  25  29
ENDBRANCH   1  25
ENDBRANCH  21   1
ENDBRANCH  18  21
TORSDOF 7
ENDMDL
MODEL 9
REMARK VINA RESULT:      -6.1      3.161      7.570
REMARK  Name = 11912213
REMARK  7 active torsions:
REMARK  status: ('A' for Active; 'I' for Inactive)
REMARK    1  A    between atoms: S_1  and  C_21
REMARK    2  A    between atoms: S_1  and  C_25
REMARK    3  A    between atoms: O_4  and  C_29
REMARK    4  A    between atoms: C_18  and  C_21
REMARK    5  A    between atoms: C_19  and  C_22
REMARK    6  A    between atoms: C_25  and  C_29
REMARK    7  A    between atoms: C_26  and  C_30
REMARK                            x       y       z     vdW  Elec       q    Type
REMARK                         _______ _______ _______ _____ _____    ______ ____
ROOT
ATOM      2  O   UNL     1      10.160   6.753   0.956  0.00  0.00    -0.267 OA
ATOM      3  O   UNL     1      12.070   9.622   5.044  0.00  0.00    -0.275 OA
ATOM      6  N   UNL     1      10.569   8.017   5.798  0.00  0.00    -0.300 N 
ATOM      7  N   UNL     1       9.716   6.352   3.210  0.00  0.00    -0.311 N 
ATOM      9  C   UNL     1       8.349   7.967   4.652  0.00  0.00    +0.027 C 
ATOM     10  C   UNL     1       9.255   5.909   5.647  0.00  0.00    +0.054 C 
ATOM     11  C   UNL     1       7.978   6.722   5.449  0.00  0.00    +0.018 C 
ATOM     12  C   UNL     1       9.394   8.803   5.412  0.00  0.00    +0.113 C 
ATOM     13  C   UNL     1       8.851   7.539   3.268  0.00  0.00    +0.130 C 
ATOM     14  C   UNL     1      10.274   6.736   6.457  0.00  0.00    +0.117 C 
ATOM     15  C   UNL     1       9.861   5.509   4.315  0.00  0.00    +0.027 A 
ATOM     16  C   UNL     1      10.559   4.368   4.203  0.00  0.00    +0.022 A 
ATOM     17  C   UNL     1      10.296   6.053   1.961  0.00  0.00    +0.259 A 
ATOM     18  C   UNL     1      11.845   8.544   5.600  0.00  0.00    +0.225 C 
ATOM     19  C   UNL     1      11.102   4.785   1.878  0.00  0.00    +0.047 A 
ATOM     20  C   UNL     1      11.191   4.007   2.967  0.00  0.00    +0.015 A 
ENDROOT
BRANCH  19  22
ATOM     22  C   UNL     1      11.790   4.399   0.633  0.00  0.00    -0.011 A 
ATOM     23  C   UNL     1      13.182   4.449   0.560  0.00  0.00    +0.027 A 
ATOM     24  C   UNL     1      11.050   3.983  -0.473  0.00  0.00    +0.009 A 
ATOM     26  C   UNL     1      13.834   4.083  -0.618  0.00  0.00    +0.052 A 
ATOM     27  C   UNL     1      11.700   3.617  -1.652  0.00  0.00    +0.002 A 
ATOM     28  C   UNL     1      13.092   3.667  -1.725  0.00  0.00    +0.019 A 
BRANCH  26  30
ATOM      8  N   UNL     1      16.419   4.177  -0.756  0.00  0.00    -0.191 NA
ATOM     30  C   UNL     1      15.260   4.135  -0.694  0.00  0.00    +0.099 C 
ENDBRANCH  26  30
ENDBRANCH  19  22
BRANCH  18  21
ATOM     21  C   UNL     1      13.002   7.717   6.101  0.00  0.00    +0.165 C 
BRANCH  21   1
ATOM      1  S   UNL     1      14.327   7.839   4.890  0.00  0.00    -0.140 S 
BRANCH   1  25
ATOM     25  C   UNL     1      13.544   6.940   3.528  0.00  0.00    +0.189 C 
BRANCH  25  29
ATOM      5  O   UNL     1      14.451   7.760   1.451  0.00  0.00    -0.250 OA
ATOM     29  C   UNL     1      13.561   7.793   2.292  0.00  0.00    +0.315 C 
BRANCH  29   4
ATOM      4  O   UNL     1      12.472   8.597   2.195  0.00  0.00    -0.480 OA
ATOM     31  H   UNL     1      12.709   9.545   2.290  0.00  0.00    +0.295 HD
ENDBRANCH  29   4
ENDBRANCH  25  29
ENDBRANCH   1  25
ENDBRANCH  21   1
ENDBRANCH  18  21
TORSDOF 7
ENDMDL
MODEL 10
REMARK VINA RESULT:      -6.1      4.090      5.860
REMARK  Name = 11912213
REMARK  7 active torsions:
REMARK  status: ('A' for Active; 'I' for Inactive)
REMARK    1  A    between atoms: S_1  and  C_21
REMARK    2  A    between atoms: S_1  and  C_25
REMARK    3  A    between atoms: O_4  and  C_29
REMARK    4  A    between atoms: C_18  and  C_21
REMARK    5  A    between atoms: C_19  and  C_22
REMARK    6  A    between atoms: C_25  and  C_29
REMARK    7  A    between atoms: C_26  and  C_30
REMARK                            x       y       z     vdW  Elec       q    Type
REMARK                         _______ _______ _______ _____ _____    ______ ____
ROOT
ATOM      2  O   UNL     1      11.438   9.049   5.441  0.00  0.00    -0.267 OA
ATOM      3  O   UNL     1      14.711   9.402   1.227  0.00  0.00    -0.275 OA
ATOM      6  N   UNL     1      15.865   9.816   3.201  0.00  0.00    -0.300 N 
ATOM      7  N   UNL     1      13.743   9.382   5.547  0.00  0.00    -0.311 N 
ATOM      9  C   UNL     1      14.864  11.529   4.718  0.00  0.00    +0.027 C 
ATOM     10  C   UNL     1      16.238   9.720   5.659  0.00  0.00    +0.054 C 
ATOM     11  C   UNL     1      15.929  11.211   5.762  0.00  0.00    +0.018 C 
ATOM     12  C   UNL     1      15.375  11.193   3.306  0.00  0.00    +0.113 C 
ATOM     13  C   UNL     1      13.584  10.761   5.066  0.00  0.00    +0.130 C 
ATOM     14  C   UNL     1      16.800   9.403   4.259  0.00  0.00    +0.117 C 
ATOM     15  C   UNL     1      14.997   8.886   5.915  0.00  0.00    +0.027 A 
ATOM     16  C   UNL     1      15.102   7.665   6.464  0.00  0.00    +0.022 A 
ATOM     17  C   UNL     1      12.563   8.633   5.720  0.00  0.00    +0.259 A 
ATOM     18  C   UNL     1      15.497   9.036   2.104  0.00  0.00    +0.225 C 
ATOM     19  C   UNL     1      12.718   7.254   6.304  0.00  0.00    +0.047 A 
ATOM     20  C   UNL     1      13.944   6.839   6.655  0.00  0.00    +0.015 A 
ENDROOT
BRANCH  19  22
ATOM     22  C   UNL     1      11.556   6.367   6.485  0.00  0.00    -0.011 A 
ATOM     23  C   UNL     1      11.077   6.096   7.767  0.00  0.00    +0.027 A 
ATOM     24  C   UNL     1      10.932   5.797   5.375  0.00  0.00    +0.009 A 
ATOM     26  C   UNL     1       9.976   5.256   7.940  0.00  0.00    +0.052 A 
ATOM     27  C   UNL     1       9.832   4.958   5.546  0.00  0.00    +0.002 A 
ATOM     28  C   UNL     1       9.353   4.687   6.828  0.00  0.00    +0.019 A 
BRANCH  26  30
ATOM      8  N   UNL     1       9.088   4.751  10.320  0.00  0.00    -0.191 NA
ATOM     30  C   UNL     1       9.486   4.977   9.253  0.00  0.00    +0.099 C 
ENDBRANCH  26  30
ENDBRANCH  19  22
BRANCH  18  21
ATOM     21  C   UNL     1      16.111   7.661   2.018  0.00  0.00    +0.165 C 
BRANCH  21   1
ATOM      1  S   UNL     1      14.898   6.483   2.633  0.00  0.00    -0.140 S 
BRANCH   1  25
ATOM     25  C   UNL     1      14.843   5.369   1.208  0.00  0.00    +0.189 C 
BRANCH  25  29
ATOM      5  O   UNL     1      13.599   3.315   1.410  0.00  0.00    -0.250 OA
ATOM     29  C   UNL     1      14.601   3.964   1.680  0.00  0.00    +0.315 C 
BRANCH  29   4
ATOM      4  O   UNL     1      15.624   3.480   2.430  0.00  0.00    -0.480 OA
ATOM     31  H   UNL     1      15.309   2.849   3.113  0.00  0.00    +0.295 HD
ENDBRANCH  29   4
ENDBRANCH  25  29
ENDBRANCH   1  25
ENDBRANCH  21   1
ENDBRANCH  18  21
TORSDOF 7
ENDMDL
