MODEL 1
REMARK VINA RESULT:      -6.4      0.000      0.000
REMARK  Name = 38028580
REMARK  14 active torsions:
REMARK  status: ('A' for Active; 'I' for Inactive)
REMARK    1  A    between atoms: O_3  and  C_26
REMARK    2  A    between atoms: N_5  and  C_15
REMARK    3  A    between atoms: N_6  and  C_23
REMARK    4  A    between atoms: C_8  and  C_12
REMARK    5  A    between atoms: C_9  and  C_15
REMARK    6  A    between atoms: C_11  and  C_16
REMARK    7  A    between atoms: C_12  and  C_17
REMARK    8  A    between atoms: C_12  and  C_18
REMARK    9  A    between atoms: C_13  and  C_19
REMARK   10  A    between atoms: C_16  and  C_20
REMARK   11  A    between atoms: C_21  and  C_22
REMARK   12  A    between atoms: C_22  and  C_24
REMARK   13  A    between atoms: C_23  and  C_25
REMARK   14  A    between atoms: C_24  and  C_26
REMARK                            x       y       z     vdW  Elec       q    Type
REMARK                         _______ _______ _______ _____ _____    ______ ____
ROOT
ATOM      8  C   UNL     1      -5.934 -10.364  15.448  0.00  0.00    +0.000 C 
ATOM      9  C   UNL     1      -6.729 -10.446  16.776  0.00  0.00    +0.032 C 
ATOM     10  C   UNL     1      -4.997 -11.574  15.309  0.00  0.00    +0.012 C 
ATOM     11  C   UNL     1      -3.994 -11.670  16.473  0.00  0.00    +0.023 C 
ATOM     13  C   UNL     1      -4.671 -11.490  17.817  0.00  0.00    -0.073 C 
ATOM     14  C   UNL     1      -5.899 -10.954  17.931  0.00  0.00    -0.022 C 
ATOM     19  C   UNL     1      -3.923 -11.983  19.024  0.00  0.00    +0.039 C 
ENDROOT
BRANCH   8  12
ATOM     12  C   UNL     1      -6.863 -10.285  14.233  0.00  0.00    -0.013 C 
ATOM     17  C   UNL     1      -6.089  -9.833  12.999  0.00  0.00    +0.007 C 
ATOM     18  C   UNL     1      -7.533 -11.634  13.986  0.00  0.00    +0.007 C 
ENDBRANCH   8  12
BRANCH   9  15
ATOM     15  C   UNL     1      -7.336  -9.087  17.141  0.00  0.00    +0.112 C 
BRANCH  15   5
ATOM      2  O   UNL     1      -9.666  -7.575  16.329  0.00  0.00    -0.276 OA
ATOM      5  N   UNL     1      -8.675  -9.240  17.617  0.00  0.00    -0.315 N 
ATOM     21  C   UNL     1      -9.748  -8.465  17.170  0.00  0.00    +0.214 C 
ATOM     31  H   UNL     1      -8.866  -9.989  18.276  0.00  0.00    +0.149 HD
BRANCH  21  22
ATOM     22  C   UNL     1     -11.050  -8.847  17.850  0.00  0.00    +0.107 C 
BRANCH  22  24
ATOM     24  C   UNL     1     -10.991 -10.233  18.485  0.00  0.00    +0.129 C 
BRANCH  24  26
ATOM      4  O   UNL     1     -12.154 -10.109  20.619  0.00  0.00    -0.251 OA
ATOM     26  C   UNL     1     -11.107 -10.171  19.990  0.00  0.00    +0.305 C 
BRANCH  26   3
ATOM      3  O   UNL     1      -9.884 -10.190  20.584  0.00  0.00    -0.481 OA
ATOM     33  H   UNL     1      -9.468  -9.302  20.593  0.00  0.00    +0.295 HD
ENDBRANCH  26   3
ENDBRANCH  24  26
ENDBRANCH  22  24
ENDBRANCH  21  22
ENDBRANCH  15   5
ENDBRANCH   9  15
BRANCH  11  16
ATOM     16  C   UNL     1      -2.847 -10.668  16.298  0.00  0.00    +0.103 C 
BRANCH  16  20
ATOM      1  O   UNL     1      -1.184 -11.882  15.027  0.00  0.00    -0.276 OA
ATOM      6  N   UNL     1      -2.294 -10.093  14.045  0.00  0.00    -0.311 N 
ATOM     20  C   UNL     1      -2.008 -10.973  15.078  0.00  0.00    +0.214 C 
ATOM     32  H   UNL     1      -2.997  -9.372  14.182  0.00  0.00    +0.149 HD
BRANCH   6  23
ATOM     23  C   UNL     1      -1.641 -10.147  12.758  0.00  0.00    +0.141 C 
BRANCH  23  25
ATOM      7  N   UNL     1      -3.829  -9.984   9.677  0.00  0.00    -0.263 NA
ATOM     25  C   UNL     1      -2.583 -10.566  11.666  0.00  0.00    -0.012 A 
ATOM     27  C   UNL     1      -3.083 -11.862  11.610  0.00  0.00    +0.008 A 
ATOM     28  C   UNL     1      -2.983  -9.673  10.685  0.00  0.00    +0.115 A 
ATOM     29  C   UNL     1      -3.956 -12.220  10.588  0.00  0.00    +0.020 A 
ATOM     30  C   UNL     1      -4.295 -11.253   9.655  0.00  0.00    +0.111 A 
ENDBRANCH  23  25
ENDBRANCH   6  23
ENDBRANCH  16  20
ENDBRANCH  11  16
TORSDOF 11
ENDMDL
MODEL 2
REMARK VINA RESULT:      -6.2     27.111     29.611
REMARK  Name = 38028580
REMARK  14 active torsions:
REMARK  status: ('A' for Active; 'I' for Inactive)
REMARK    1  A    between atoms: O_3  and  C_26
REMARK    2  A    between atoms: N_5  and  C_15
REMARK    3  A    between atoms: N_6  and  C_23
REMARK    4  A    between atoms: C_8  and  C_12
REMARK    5  A    between atoms: C_9  and  C_15
REMARK    6  A    between atoms: C_11  and  C_16
REMARK    7  A    between atoms: C_12  and  C_17
REMARK    8  A    between atoms: C_12  and  C_18
REMARK    9  A    between atoms: C_13  and  C_19
REMARK   10  A    between atoms: C_16  and  C_20
REMARK   11  A    between atoms: C_21  and  C_22
REMARK   12  A    between atoms: C_22  and  C_24
REMARK   13  A    between atoms: C_23  and  C_25
REMARK   14  A    between atoms: C_24  and  C_26
REMARK                            x       y       z     vdW  Elec       q    Type
REMARK                         _______ _______ _______ _____ _____    ______ ____
ROOT
ATOM      8  C   UNL     1      14.203   9.233  19.149  0.00  0.00    +0.000 C 
ATOM      9  C   UNL     1      14.292   7.784  18.604  0.00  0.00    +0.032 C 
ATOM     10  C   UNL     1      15.609   9.793  19.412  0.00  0.00    +0.012 C 
ATOM     11  C   UNL     1      16.396   8.940  20.423  0.00  0.00    +0.023 C 
ATOM     13  C   UNL     1      16.307   7.461  20.103  0.00  0.00    -0.073 C 
ATOM     14  C   UNL     1      15.369   6.966  19.277  0.00  0.00    -0.022 C 
ATOM     19  C   UNL     1      17.351   6.571  20.717  0.00  0.00    +0.039 C 
ENDROOT
BRANCH   8  12
ATOM     12  C   UNL     1      13.448  10.155  18.187  0.00  0.00    -0.013 C 
ATOM     17  C   UNL     1      13.538  11.604  18.658  0.00  0.00    +0.007 C 
ATOM     18  C   UNL     1      13.996  10.012  16.771  0.00  0.00    +0.007 C 
ENDBRANCH   8  12
BRANCH   9  15
ATOM     15  C   UNL     1      12.946   7.062  18.732  0.00  0.00    +0.112 C 
BRANCH  15   5
ATOM      2  O   UNL     1      10.534   8.451  19.522  0.00  0.00    -0.276 OA
ATOM      5  N   UNL     1      12.420   7.198  20.053  0.00  0.00    -0.315 N 
ATOM     21  C   UNL     1      11.244   7.888  20.350  0.00  0.00    +0.214 C 
ATOM     31  H   UNL     1      12.901   6.720  20.811  0.00  0.00    +0.149 HD
BRANCH  21  22
ATOM     22  C   UNL     1      10.931   7.871  21.835  0.00  0.00    +0.107 C 
BRANCH  22  24
ATOM     24  C   UNL     1      10.412   9.214  22.338  0.00  0.00    +0.129 C 
BRANCH  24  26
ATOM      4  O   UNL     1      12.324  10.672  21.960  0.00  0.00    -0.251 OA
ATOM     26  C   UNL     1      11.537  10.142  22.732  0.00  0.00    +0.305 C 
BRANCH  26   3
ATOM      3  O   UNL     1      11.579  10.329  24.078  0.00  0.00    -0.481 OA
ATOM     33  H   UNL     1      12.458  10.645  24.376  0.00  0.00    +0.295 HD
ENDBRANCH  26   3
ENDBRANCH  24  26
ENDBRANCH  22  24
ENDBRANCH  21  22
ENDBRANCH  15   5
ENDBRANCH   9  15
BRANCH  11  16
ATOM     16  C   UNL     1      15.936   9.219  21.859  0.00  0.00    +0.103 C 
BRANCH  16  20
ATOM      1  O   UNL     1      17.385  11.090  22.362  0.00  0.00    -0.276 OA
ATOM      6  N   UNL     1      15.085  11.330  22.591  0.00  0.00    -0.311 N 
ATOM     20  C   UNL     1      16.247  10.634  22.290  0.00  0.00    +0.214 C 
ATOM     32  H   UNL     1      14.185  10.866  22.498  0.00  0.00    +0.149 HD
BRANCH   6  23
ATOM     23  C   UNL     1      15.080  12.705  23.032  0.00  0.00    +0.141 C 
BRANCH  23  25
ATOM      7  N   UNL     1      12.856  12.580  26.089  0.00  0.00    -0.263 NA
ATOM     25  C   UNL     1      13.941  12.992  23.967  0.00  0.00    -0.012 A 
ATOM     27  C   UNL     1      12.938  13.890  23.620  0.00  0.00    +0.008 A 
ATOM     28  C   UNL     1      13.855  12.369  25.202  0.00  0.00    +0.115 A 
ATOM     29  C   UNL     1      11.894  14.134  24.505  0.00  0.00    +0.020 A 
ATOM     30  C   UNL     1      11.899  13.460  25.716  0.00  0.00    +0.111 A 
ENDBRANCH  23  25
ENDBRANCH   6  23
ENDBRANCH  16  20
ENDBRANCH  11  16
TORSDOF 11
ENDMDL
MODEL 3
REMARK VINA RESULT:      -6.0     24.221     27.667
REMARK  Name = 38028580
REMARK  14 active torsions:
REMARK  status: ('A' for Active; 'I' for Inactive)
REMARK    1  A    between atoms: O_3  and  C_26
REMARK    2  A    between atoms: N_5  and  C_15
REMARK    3  A    between atoms: N_6  and  C_23
REMARK    4  A    between atoms: C_8  and  C_12
REMARK    5  A    between atoms: C_9  and  C_15
REMARK    6  A    between atoms: C_11  and  C_16
REMARK    7  A    between atoms: C_12  and  C_17
REMARK    8  A    between atoms: C_12  and  C_18
REMARK    9  A    between atoms: C_13  and  C_19
REMARK   10  A    between atoms: C_16  and  C_20
REMARK   11  A    between atoms: C_21  and  C_22
REMARK   12  A    between atoms: C_22  and  C_24
REMARK   13  A    between atoms: C_23  and  C_25
REMARK   14  A    between atoms: C_24  and  C_26
REMARK                            x       y       z     vdW  Elec       q    Type
REMARK                         _______ _______ _______ _____ _____    ______ ____
ROOT
ATOM      8  C   UNL     1      12.630   7.541   2.901  0.00  0.00    +0.000 C 
ATOM      9  C   UNL     1      12.121   8.811   3.628  0.00  0.00    +0.032 C 
ATOM     10  C   UNL     1      11.645   7.124   1.798  0.00  0.00    +0.012 C 
ATOM     11  C   UNL     1      10.237   6.838   2.352  0.00  0.00    +0.023 C 
ATOM     13  C   UNL     1       9.771   7.926   3.298  0.00  0.00    -0.073 C 
ATOM     14  C   UNL     1      10.626   8.807   3.848  0.00  0.00    -0.022 C 
ATOM     19  C   UNL     1       8.294   8.008   3.563  0.00  0.00    +0.039 C 
ENDROOT
BRANCH   8  12
ATOM     12  C   UNL     1      14.023   7.751   2.300  0.00  0.00    -0.013 C 
ATOM     17  C   UNL     1      15.044   6.859   3.001  0.00  0.00    +0.007 C 
ATOM     18  C   UNL     1      14.004   7.473   0.801  0.00  0.00    +0.007 C 
ENDBRANCH   8  12
BRANCH   9  15
ATOM     15  C   UNL     1      12.834   9.003   4.971  0.00  0.00    +0.112 C 
BRANCH  15   5
ATOM      2  O   UNL     1      14.370   7.050   6.455  0.00  0.00    -0.276 OA
ATOM      5  N   UNL     1      12.345   8.075   5.942  0.00  0.00    -0.315 N 
ATOM     21  C   UNL     1      13.158   7.161   6.616  0.00  0.00    +0.214 C 
ATOM     31  H   UNL     1      11.362   8.119   6.194  0.00  0.00    +0.149 HD
BRANCH  21  22
ATOM     22  C   UNL     1      12.368   6.301   7.586  0.00  0.00    +0.107 C 
BRANCH  22  24
ATOM     24  C   UNL     1      10.886   6.234   7.231  0.00  0.00    +0.129 C 
BRANCH  24  26
ATOM      4  O   UNL     1       9.176   5.691   8.876  0.00  0.00    -0.251 OA
ATOM     26  C   UNL     1      10.118   5.342   8.178  0.00  0.00    +0.305 C 
BRANCH  26   3
ATOM      3  O   UNL     1      10.605   4.073   8.171  0.00  0.00    -0.481 OA
ATOM     33  H   UNL     1      11.089   3.862   8.997  0.00  0.00    +0.295 HD
ENDBRANCH  26   3
ENDBRANCH  24  26
ENDBRANCH  22  24
ENDBRANCH  21  22
ENDBRANCH  15   5
ENDBRANCH   9  15
BRANCH  11  16
ATOM     16  C   UNL     1      10.178   5.462   3.027  0.00  0.00    +0.103 C 
BRANCH  16  20
ATOM      1  O   UNL     1      10.007   3.903   1.185  0.00  0.00    -0.276 OA
ATOM      6  N   UNL     1      11.942   3.947   2.472  0.00  0.00    -0.311 N 
ATOM     20  C   UNL     1      10.667   4.361   2.114  0.00  0.00    +0.214 C 
ATOM     32  H   UNL     1      12.410   4.390   3.257  0.00  0.00    +0.149 HD
BRANCH   6  23
ATOM     23  C   UNL     1      12.658   2.905   1.774  0.00  0.00    +0.141 C 
BRANCH  23  25
ATOM      7  N   UNL     1      15.938   4.141   0.353  0.00  0.00    -0.263 NA
ATOM     25  C   UNL     1      13.661   3.462   0.806  0.00  0.00    -0.012 A 
ATOM     27  C   UNL     1      13.290   3.817  -0.486  0.00  0.00    +0.008 A 
ATOM     28  C   UNL     1      14.985   3.642   1.173  0.00  0.00    +0.115 A 
ATOM     29  C   UNL     1      14.241   4.333  -1.359  0.00  0.00    +0.020 A 
ATOM     30  C   UNL     1      15.540   4.474  -0.895  0.00  0.00    +0.111 A 
ENDBRANCH  23  25
ENDBRANCH   6  23
ENDBRANCH  16  20
ENDBRANCH  11  16
TORSDOF 11
ENDMDL
MODEL 4
REMARK VINA RESULT:      -6.0     24.121     26.878
REMARK  Name = 38028580
REMARK  14 active torsions:
REMARK  status: ('A' for Active; 'I' for Inactive)
REMARK    1  A    between atoms: O_3  and  C_26
REMARK    2  A    between atoms: N_5  and  C_15
REMARK    3  A    between atoms: N_6  and  C_23
REMARK    4  A    between atoms: C_8  and  C_12
REMARK    5  A    between atoms: C_9  and  C_15
REMARK    6  A    between atoms: C_11  and  C_16
REMARK    7  A    between atoms: C_12  and  C_17
REMARK    8  A    between atoms: C_12  and  C_18
REMARK    9  A    between atoms: C_13  and  C_19
REMARK   10  A    between atoms: C_16  and  C_20
REMARK   11  A    between atoms: C_21  and  C_22
REMARK   12  A    between atoms: C_22  and  C_24
REMARK   13  A    between atoms: C_23  and  C_25
REMARK   14  A    between atoms: C_24  and  C_26
REMARK                            x       y       z     vdW  Elec       q    Type
REMARK                         _______ _______ _______ _____ _____    ______ ____
ROOT
ATOM      8  C   UNL     1       8.949   8.194   5.793  0.00  0.00    +0.000 C 
ATOM      9  C   UNL     1       8.764   8.121   7.330  0.00  0.00    +0.032 C 
ATOM     10  C   UNL     1       8.513   6.874   5.139  0.00  0.00    +0.012 C 
ATOM     11  C   UNL     1       9.309   5.669   5.670  0.00  0.00    +0.023 C 
ATOM     13  C   UNL     1       9.399   5.675   7.183  0.00  0.00    -0.073 C 
ATOM     14  C   UNL     1       9.139   6.777   7.908  0.00  0.00    -0.022 C 
ATOM     19  C   UNL     1       9.751   4.373   7.846  0.00  0.00    +0.039 C 
ENDROOT
BRANCH   8  12
ATOM     12  C   UNL     1       8.169   9.361   5.181  0.00  0.00    -0.013 C 
ATOM     17  C   UNL     1       9.123  10.466   4.739  0.00  0.00    +0.007 C 
ATOM     18  C   UNL     1       7.322   8.878   4.008  0.00  0.00    +0.007 C 
ENDBRANCH   8  12
BRANCH   9  15
ATOM     15  C   UNL     1       9.564   9.222   8.036  0.00  0.00    +0.112 C 
BRANCH  15   5
ATOM      2  O   UNL     1      11.303  11.415   7.303  0.00  0.00    -0.276 OA
ATOM      5  N   UNL     1      10.947   9.148   7.685  0.00  0.00    -0.315 N 
ATOM     21  C   UNL     1      11.719  10.261   7.342  0.00  0.00    +0.214 C 
ATOM     31  H   UNL     1      11.407   8.244   7.740  0.00  0.00    +0.149 HD
BRANCH  21  22
ATOM     22  C   UNL     1      13.152   9.882   7.014  0.00  0.00    +0.107 C 
BRANCH  22  24
ATOM     24  C   UNL     1      13.239   8.661   6.105  0.00  0.00    +0.129 C 
BRANCH  24  26
ATOM      4  O   UNL     1      12.942   6.606   7.375  0.00  0.00    -0.251 OA
ATOM     26  C   UNL     1      13.684   7.428   6.856  0.00  0.00    +0.305 C 
BRANCH  26   3
ATOM      3  O   UNL     1      15.039   7.331   6.893  0.00  0.00    -0.481 OA
ATOM     33  H   UNL     1      15.349   6.831   7.677  0.00  0.00    +0.295 HD
ENDBRANCH  26   3
ENDBRANCH  24  26
ENDBRANCH  22  24
ENDBRANCH  21  22
ENDBRANCH  15   5
ENDBRANCH   9  15
BRANCH  11  16
ATOM     16  C   UNL     1      10.704   5.606   5.037  0.00  0.00    +0.103 C 
BRANCH  16  20
ATOM      1  O   UNL     1      10.615   6.642   2.852  0.00  0.00    -0.276 OA
ATOM      6  N   UNL     1      10.625   4.324   3.021  0.00  0.00    -0.311 N 
ATOM     20  C   UNL     1      10.644   5.616   3.527  0.00  0.00    +0.214 C 
ATOM     32  H   UNL     1      10.656   3.535   3.661  0.00  0.00    +0.149 HD
BRANCH   6  23
ATOM     23  C   UNL     1      10.568   4.030   1.608  0.00  0.00    +0.141 C 
BRANCH  23  25
ATOM      7  N   UNL     1      13.339   4.341  -0.947  0.00  0.00    -0.263 NA
ATOM     25  C   UNL     1      11.934   3.979   0.988  0.00  0.00    -0.012 A 
ATOM     27  C   UNL     1      13.035   3.541   1.715  0.00  0.00    +0.008 A 
ATOM     28  C   UNL     1      12.137   4.365  -0.327  0.00  0.00    +0.115 A 
ATOM     29  C   UNL     1      14.288   3.502   1.113  0.00  0.00    +0.020 A 
ATOM     30  C   UNL     1      14.386   3.909  -0.208  0.00  0.00    +0.111 A 
ENDBRANCH  23  25
ENDBRANCH   6  23
ENDBRANCH  16  20
ENDBRANCH  11  16
TORSDOF 11
ENDMDL
MODEL 5
REMARK VINA RESULT:      -5.9     27.730     30.468
REMARK  Name = 38028580
REMARK  14 active torsions:
REMARK  status: ('A' for Active; 'I' for Inactive)
REMARK    1  A    between atoms: O_3  and  C_26
REMARK    2  A    between atoms: N_5  and  C_15
REMARK    3  A    between atoms: N_6  and  C_23
REMARK    4  A    between atoms: C_8  and  C_12
REMARK    5  A    between atoms: C_9  and  C_15
REMARK    6  A    between atoms: C_11  and  C_16
REMARK    7  A    between atoms: C_12  and  C_17
REMARK    8  A    between atoms: C_12  and  C_18
REMARK    9  A    between atoms: C_13  and  C_19
REMARK   10  A    between atoms: C_16  and  C_20
REMARK   11  A    between atoms: C_21  and  C_22
REMARK   12  A    between atoms: C_22  and  C_24
REMARK   13  A    between atoms: C_23  and  C_25
REMARK   14  A    between atoms: C_24  and  C_26
REMARK                            x       y       z     vdW  Elec       q    Type
REMARK                         _______ _______ _______ _____ _____    ______ ____
ROOT
ATOM      8  C   UNL     1      16.886   8.332  21.388  0.00  0.00    +0.000 C 
ATOM      9  C   UNL     1      16.334   7.271  20.402  0.00  0.00    +0.032 C 
ATOM     10  C   UNL     1      18.344   8.673  21.046  0.00  0.00    +0.012 C 
ATOM     11  C   UNL     1      19.260   7.437  21.099  0.00  0.00    +0.023 C 
ATOM     13  C   UNL     1      18.653   6.255  20.369  0.00  0.00    -0.073 C 
ATOM     14  C   UNL     1      17.347   6.205  20.055  0.00  0.00    -0.022 C 
ATOM     19  C   UNL     1      19.592   5.152  19.968  0.00  0.00    +0.039 C 
ENDROOT
BRANCH   8  12
ATOM     12  C   UNL     1      16.038   9.608  21.381  0.00  0.00    -0.013 C 
ATOM     17  C   UNL     1      16.734  10.713  22.171  0.00  0.00    +0.007 C 
ATOM     18  C   UNL     1      15.765  10.058  19.949  0.00  0.00    +0.007 C 
ENDBRANCH   8  12
BRANCH   9  15
ATOM     15  C   UNL     1      15.066   6.610  20.954  0.00  0.00    +0.112 C 
BRANCH  15   5
ATOM      2  O   UNL     1      12.868   8.162  22.018  0.00  0.00    -0.276 OA
ATOM      5  N   UNL     1      13.909   7.065  20.250  0.00  0.00    -0.315 N 
ATOM     21  C   UNL     1      12.889   7.813  20.841  0.00  0.00    +0.214 C 
ATOM     31  H   UNL     1      13.852   6.879  19.253  0.00  0.00    +0.149 HD
BRANCH  21  22
ATOM     22  C   UNL     1      11.786   8.153  19.855  0.00  0.00    +0.107 C 
BRANCH  22  24
ATOM     24  C   UNL     1      12.287   9.000  18.689  0.00  0.00    +0.129 C 
BRANCH  24  26
ATOM      4  O   UNL     1      12.320   8.761  16.267  0.00  0.00    -0.251 OA
ATOM     26  C   UNL     1      12.207   8.257  17.376  0.00  0.00    +0.305 C 
BRANCH  26   3
ATOM      3  O   UNL     1      11.989   6.929  17.569  0.00  0.00    -0.481 OA
ATOM     33  H   UNL     1      11.420   6.762  18.350  0.00  0.00    +0.295 HD
ENDBRANCH  26   3
ENDBRANCH  24  26
ENDBRANCH  22  24
ENDBRANCH  21  22
ENDBRANCH  15   5
ENDBRANCH   9  15
BRANCH  11  16
ATOM     16  C   UNL     1      19.607   7.068  22.546  0.00  0.00    +0.103 C 
BRANCH  16  20
ATOM      1  O   UNL     1      21.854   7.955  22.692  0.00  0.00    -0.276 OA
ATOM      6  N   UNL     1      21.491   5.690  23.064  0.00  0.00    -0.311 N 
ATOM     20  C   UNL     1      21.101   6.988  22.768  0.00  0.00    +0.214 C 
ATOM     32  H   UNL     1      20.791   4.954  23.109  0.00  0.00    +0.149 HD
BRANCH   6  23
ATOM     23  C   UNL     1      22.862   5.317  23.323  0.00  0.00    +0.141 C 
BRANCH  23  25
ATOM      7  N   UNL     1      24.155   2.237  21.549  0.00  0.00    -0.263 NA
ATOM     25  C   UNL     1      23.419   4.433  22.245  0.00  0.00    -0.012 A 
ATOM     27  C   UNL     1      23.717   4.941  20.986  0.00  0.00    +0.008 A 
ATOM     28  C   UNL     1      23.654   3.087  22.474  0.00  0.00    +0.115 A 
ATOM     29  C   UNL     1      24.234   4.098  20.007  0.00  0.00    +0.020 A 
ATOM     30  C   UNL     1      24.433   2.767  20.336  0.00  0.00    +0.111 A 
ENDBRANCH  23  25
ENDBRANCH   6  23
ENDBRANCH  16  20
ENDBRANCH  11  16
TORSDOF 11
ENDMDL
MODEL 6
REMARK VINA RESULT:      -5.9     18.970     23.000
REMARK  Name = 38028580
REMARK  14 active torsions:
REMARK  status: ('A' for Active; 'I' for Inactive)
REMARK    1  A    between atoms: O_3  and  C_26
REMARK    2  A    between atoms: N_5  and  C_15
REMARK    3  A    between atoms: N_6  and  C_23
REMARK    4  A    between atoms: C_8  and  C_12
REMARK    5  A    between atoms: C_9  and  C_15
REMARK    6  A    between atoms: C_11  and  C_16
REMARK    7  A    between atoms: C_12  and  C_17
REMARK    8  A    between atoms: C_12  and  C_18
REMARK    9  A    between atoms: C_13  and  C_19
REMARK   10  A    between atoms: C_16  and  C_20
REMARK   11  A    between atoms: C_21  and  C_22
REMARK   12  A    between atoms: C_22  and  C_24
REMARK   13  A    between atoms: C_23  and  C_25
REMARK   14  A    between atoms: C_24  and  C_26
REMARK                            x       y       z     vdW  Elec       q    Type
REMARK                         _______ _______ _______ _____ _____    ______ ____
ROOT
ATOM      8  C   UNL     1     -12.309   9.927  18.629  0.00  0.00    +0.000 C 
ATOM      9  C   UNL     1     -12.217   8.526  17.973  0.00  0.00    +0.032 C 
ATOM     10  C   UNL     1     -11.495   9.963  19.931  0.00  0.00    +0.012 C 
ATOM     11  C   UNL     1     -11.978   8.915  20.950  0.00  0.00    +0.023 C 
ATOM     13  C   UNL     1     -12.171   7.554  20.311  0.00  0.00    -0.073 C 
ATOM     14  C   UNL     1     -12.262   7.399  18.978  0.00  0.00    -0.022 C 
ATOM     19  C   UNL     1     -12.211   6.371  21.236  0.00  0.00    +0.039 C 
ENDROOT
BRANCH   8  12
ATOM     12  C   UNL     1     -11.825  11.030  17.683  0.00  0.00    -0.013 C 
ATOM     17  C   UNL     1     -11.763  12.369  18.413  0.00  0.00    +0.007 C 
ATOM     18  C   UNL     1     -10.462  10.670  17.099  0.00  0.00    +0.007 C 
ENDBRANCH   8  12
BRANCH   9  15
ATOM     15  C   UNL     1     -13.327   8.328  16.934  0.00  0.00    +0.112 C 
BRANCH  15   5
ATOM      2  O   UNL     1     -13.646  10.239  14.785  0.00  0.00    -0.276 OA
ATOM      5  N   UNL     1     -12.780   8.246  15.617  0.00  0.00    -0.315 N 
ATOM     21  C   UNL     1     -12.983   9.217  14.633  0.00  0.00    +0.214 C 
ATOM     31  H   UNL     1     -12.167   7.466  15.401  0.00  0.00    +0.149 HD
BRANCH  21  22
ATOM     22  C   UNL     1     -12.285   8.865  13.332  0.00  0.00    +0.107 C 
BRANCH  22  24
ATOM     24  C   UNL     1     -11.858   7.402  13.277  0.00  0.00    +0.129 C 
BRANCH  24  26
ATOM      4  O   UNL     1      -9.553   7.475  12.497  0.00  0.00    -0.251 OA
ATOM     26  C   UNL     1     -10.359   7.248  13.388  0.00  0.00    +0.305 C 
BRANCH  26   3
ATOM      3  O   UNL     1      -9.995   6.815  14.625  0.00  0.00    -0.481 OA
ATOM     33  H   UNL     1     -10.457   5.986  14.873  0.00  0.00    +0.295 HD
ENDBRANCH  26   3
ENDBRANCH  24  26
ENDBRANCH  22  24
ENDBRANCH  21  22
ENDBRANCH  15   5
ENDBRANCH   9  15
BRANCH  11  16
ATOM     16  C   UNL     1     -13.260   9.377  21.652  0.00  0.00    +0.103 C 
BRANCH  16  20
ATOM      1  O   UNL     1     -13.546  11.746  22.055  0.00  0.00    -0.276 OA
ATOM      6  N   UNL     1     -12.261  10.482  23.522  0.00  0.00    -0.311 N 
ATOM     20  C   UNL     1     -13.060  10.674  22.404  0.00  0.00    +0.214 C 
ATOM     32  H   UNL     1     -11.907   9.554  23.731  0.00  0.00    +0.149 HD
BRANCH   6  23
ATOM     23  C   UNL     1     -11.902  11.549  24.427  0.00  0.00    +0.141 C 
BRANCH  23  25
ATOM      7  N   UNL     1     -12.878  10.890  28.021  0.00  0.00    -0.263 NA
ATOM     25  C   UNL     1     -11.828  11.079  25.851  0.00  0.00    -0.012 A 
ATOM     27  C   UNL     1     -10.699  10.426  26.332  0.00  0.00    +0.008 A 
ATOM     28  C   UNL     1     -12.881  11.285  26.728  0.00  0.00    +0.115 A 
ATOM     29  C   UNL     1     -10.658  10.004  27.656  0.00  0.00    +0.020 A 
ATOM     30  C   UNL     1     -11.763  10.258  28.453  0.00  0.00    +0.111 A 
ENDBRANCH  23  25
ENDBRANCH   6  23
ENDBRANCH  16  20
ENDBRANCH  11  16
TORSDOF 11
ENDMDL
MODEL 7
REMARK VINA RESULT:      -5.8     26.521     29.356
REMARK  Name = 38028580
REMARK  14 active torsions:
REMARK  status: ('A' for Active; 'I' for Inactive)
REMARK    1  A    between atoms: O_3  and  C_26
REMARK    2  A    between atoms: N_5  and  C_15
REMARK    3  A    between atoms: N_6  and  C_23
REMARK    4  A    between atoms: C_8  and  C_12
REMARK    5  A    between atoms: C_9  and  C_15
REMARK    6  A    between atoms: C_11  and  C_16
REMARK    7  A    between atoms: C_12  and  C_17
REMARK    8  A    between atoms: C_12  and  C_18
REMARK    9  A    between atoms: C_13  and  C_19
REMARK   10  A    between atoms: C_16  and  C_20
REMARK   11  A    between atoms: C_21  and  C_22
REMARK   12  A    between atoms: C_22  and  C_24
REMARK   13  A    between atoms: C_23  and  C_25
REMARK   14  A    between atoms: C_24  and  C_26
REMARK                            x       y       z     vdW  Elec       q    Type
REMARK                         _______ _______ _______ _____ _____    ______ ____
ROOT
ATOM      8  C   UNL     1      12.697   9.237  20.817  0.00  0.00    +0.000 C 
ATOM      9  C   UNL     1      11.962   8.079  20.095  0.00  0.00    +0.032 C 
ATOM     10  C   UNL     1      12.517  10.551  20.042  0.00  0.00    +0.012 C 
ATOM     11  C   UNL     1      13.054  10.456  18.602  0.00  0.00    +0.023 C 
ATOM     13  C   UNL     1      12.587   9.193  17.908  0.00  0.00    -0.073 C 
ATOM     14  C   UNL     1      12.089   8.146  18.591  0.00  0.00    -0.022 C 
ATOM     19  C   UNL     1      12.661   9.177  16.407  0.00  0.00    +0.039 C 
ENDROOT
BRANCH   8  12
ATOM     12  C   UNL     1      12.203   9.411  22.257  0.00  0.00    -0.013 C 
ATOM     17  C   UNL     1      12.690  10.739  22.829  0.00  0.00    +0.007 C 
ATOM     18  C   UNL     1      10.681   9.325  22.312  0.00  0.00    +0.007 C 
ENDBRANCH   8  12
BRANCH   9  15
ATOM     15  C   UNL     1      12.460   6.715  20.588  0.00  0.00    +0.112 C 
BRANCH  15   5
ATOM      2  O   UNL     1      14.966   6.323  19.197  0.00  0.00    -0.276 OA
ATOM      5  N   UNL     1      13.777   6.822  21.133  0.00  0.00    -0.315 N 
ATOM     21  C   UNL     1      14.940   6.616  20.389  0.00  0.00    +0.214 C 
ATOM     31  H   UNL     1      13.872   7.117  22.101  0.00  0.00    +0.149 HD
BRANCH  21  22
ATOM     22  C   UNL     1      16.193   6.794  21.227  0.00  0.00    +0.107 C 
BRANCH  22  24
ATOM     24  C   UNL     1      17.366   7.332  20.415  0.00  0.00    +0.129 C 
BRANCH  24  26
ATOM      4  O   UNL     1      19.296   5.862  20.616  0.00  0.00    -0.251 OA
ATOM     26  C   UNL     1      18.312   6.232  19.992  0.00  0.00    +0.305 C 
BRANCH  26   3
ATOM      3  O   UNL     1      17.936   5.683  18.806  0.00  0.00    -0.481 OA
ATOM     33  H   UNL     1      18.056   6.307  18.060  0.00  0.00    +0.295 HD
ENDBRANCH  26   3
ENDBRANCH  24  26
ENDBRANCH  22  24
ENDBRANCH  21  22
ENDBRANCH  15   5
ENDBRANCH   9  15
BRANCH  11  16
ATOM     16  C   UNL     1      14.584  10.563  18.575  0.00  0.00    +0.103 C 
BRANCH  16  20
ATOM      1  O   UNL     1      16.217  12.193  17.847  0.00  0.00    -0.276 OA
ATOM      6  N   UNL     1      14.003  12.412  17.176  0.00  0.00    -0.311 N 
ATOM     20  C   UNL     1      15.054  11.798  17.842  0.00  0.00    +0.214 C 
ATOM     32  H   UNL     1      13.072  12.007  17.228  0.00  0.00    +0.149 HD
BRANCH   6  23
ATOM     23  C   UNL     1      14.160  13.615  16.392  0.00  0.00    +0.141 C 
BRANCH  23  25
ATOM      7  N   UNL     1      13.936  11.790  13.087  0.00  0.00    -0.263 NA
ATOM     25  C   UNL     1      14.292  13.319  14.926  0.00  0.00    -0.012 A 
ATOM     27  C   UNL     1      14.872  14.238  14.060  0.00  0.00    +0.008 A 
ATOM     28  C   UNL     1      13.844  12.120  14.395  0.00  0.00    +0.115 A 
ATOM     29  C   UNL     1      14.984  13.935  12.707  0.00  0.00    +0.020 A 
ATOM     30  C   UNL     1      14.505  12.709  12.275  0.00  0.00    +0.111 A 
ENDBRANCH  23  25
ENDBRANCH   6  23
ENDBRANCH  16  20
ENDBRANCH  11  16
TORSDOF 11
ENDMDL
MODEL 8
REMARK VINA RESULT:      -5.8     24.727     27.411
REMARK  Name = 38028580
REMARK  14 active torsions:
REMARK  status: ('A' for Active; 'I' for Inactive)
REMARK    1  A    between atoms: O_3  and  C_26
REMARK    2  A    between atoms: N_5  and  C_15
REMARK    3  A    between atoms: N_6  and  C_23
REMARK    4  A    between atoms: C_8  and  C_12
REMARK    5  A    between atoms: C_9  and  C_15
REMARK    6  A    between atoms: C_11  and  C_16
REMARK    7  A    between atoms: C_12  and  C_17
REMARK    8  A    between atoms: C_12  and  C_18
REMARK    9  A    between atoms: C_13  and  C_19
REMARK   10  A    between atoms: C_16  and  C_20
REMARK   11  A    between atoms: C_21  and  C_22
REMARK   12  A    between atoms: C_22  and  C_24
REMARK   13  A    between atoms: C_23  and  C_25
REMARK   14  A    between atoms: C_24  and  C_26
REMARK                            x       y       z     vdW  Elec       q    Type
REMARK                         _______ _______ _______ _____ _____    ______ ____
ROOT
ATOM      8  C   UNL     1       9.394   8.245   3.413  0.00  0.00    +0.000 C 
ATOM      9  C   UNL     1       8.729   8.146   4.810  0.00  0.00    +0.032 C 
ATOM     10  C   UNL     1       9.260   6.913   2.661  0.00  0.00    +0.012 C 
ATOM     11  C   UNL     1       9.906   5.744   3.427  0.00  0.00    +0.023 C 
ATOM     13  C   UNL     1       9.506   5.737   4.888  0.00  0.00    -0.073 C 
ATOM     14  C   UNL     1       8.969   6.816   5.485  0.00  0.00    -0.022 C 
ATOM     19  C   UNL     1       9.694   4.448   5.637  0.00  0.00    +0.039 C 
ENDROOT
BRANCH   8  12
ATOM     12  C   UNL     1       8.792   9.377   2.576  0.00  0.00    -0.013 C 
ATOM     17  C   UNL     1       9.216   9.244   1.116  0.00  0.00    +0.007 C 
ATOM     18  C   UNL     1       7.271   9.379   2.699  0.00  0.00    +0.007 C 
ENDBRANCH   8  12
BRANCH   9  15
ATOM     15  C   UNL     1       9.202   9.278   5.729  0.00  0.00    +0.112 C 
BRANCH  15   5
ATOM      2  O   UNL     1      11.630  10.827   5.450  0.00  0.00    -0.276 OA
ATOM      5  N   UNL     1      10.485   8.980   6.282  0.00  0.00    -0.315 N 
ATOM     21  C   UNL     1      11.612   9.785   6.099  0.00  0.00    +0.214 C 
ATOM     31  H   UNL     1      10.569   8.167   6.885  0.00  0.00    +0.149 HD
BRANCH  21  22
ATOM     22  C   UNL     1      12.836   9.221   6.799  0.00  0.00    +0.107 C 
BRANCH  22  24
ATOM     24  C   UNL     1      13.279   7.885   6.212  0.00  0.00    +0.129 C 
BRANCH  24  26
ATOM      4  O   UNL     1      11.824   6.446   7.532  0.00  0.00    -0.251 OA
ATOM     26  C   UNL     1      12.942   6.729   7.125  0.00  0.00    +0.305 C 
BRANCH  26   3
ATOM      3  O   UNL     1      14.053   6.017   7.455  0.00  0.00    -0.481 OA
ATOM     33  H   UNL     1      13.869   5.356   8.156  0.00  0.00    +0.295 HD
ENDBRANCH  26   3
ENDBRANCH  24  26
ENDBRANCH  22  24
ENDBRANCH  21  22
ENDBRANCH  15   5
ENDBRANCH   9  15
BRANCH  11  16
ATOM     16  C   UNL     1      11.432   5.760   3.276  0.00  0.00    +0.103 C 
BRANCH  16  20
ATOM      1  O   UNL     1      11.309   3.452   2.559  0.00  0.00    -0.276 OA
ATOM      6  N   UNL     1      13.238   4.679   2.143  0.00  0.00    -0.311 N 
ATOM     20  C   UNL     1      11.952   4.496   2.631  0.00  0.00    +0.214 C 
ATOM     32  H   UNL     1      13.689   5.583   2.247  0.00  0.00    +0.149 HD
BRANCH   6  23
ATOM     23  C   UNL     1      13.985   3.638   1.477  0.00  0.00    +0.141 C 
BRANCH  23  25
ATOM      7  N   UNL     1      14.745   4.416  -2.145  0.00  0.00    -0.263 NA
ATOM     25  C   UNL     1      13.843   3.709  -0.016  0.00  0.00    -0.012 A 
ATOM     27  C   UNL     1      12.732   3.172  -0.656  0.00  0.00    +0.008 A 
ATOM     28  C   UNL     1      14.812   4.316  -0.798  0.00  0.00    +0.115 A 
ATOM     29  C   UNL     1      12.626   3.256  -2.040  0.00  0.00    +0.020 A 
ATOM     30  C   UNL     1      13.650   3.882  -2.733  0.00  0.00    +0.111 A 
ENDBRANCH  23  25
ENDBRANCH   6  23
ENDBRANCH  16  20
ENDBRANCH  11  16
TORSDOF 11
ENDMDL
MODEL 9
REMARK VINA RESULT:      -5.8     24.831     27.837
REMARK  Name = 38028580
REMARK  14 active torsions:
REMARK  status: ('A' for Active; 'I' for Inactive)
REMARK    1  A    between atoms: O_3  and  C_26
REMARK    2  A    between atoms: N_5  and  C_15
REMARK    3  A    between atoms: N_6  and  C_23
REMARK    4  A    between atoms: C_8  and  C_12
REMARK    5  A    between atoms: C_9  and  C_15
REMARK    6  A    between atoms: C_11  and  C_16
REMARK    7  A    between atoms: C_12  and  C_17
REMARK    8  A    between atoms: C_12  and  C_18
REMARK    9  A    between atoms: C_13  and  C_19
REMARK   10  A    between atoms: C_16  and  C_20
REMARK   11  A    between atoms: C_21  and  C_22
REMARK   12  A    between atoms: C_22  and  C_24
REMARK   13  A    between atoms: C_23  and  C_25
REMARK   14  A    between atoms: C_24  and  C_26
REMARK                            x       y       z     vdW  Elec       q    Type
REMARK                         _______ _______ _______ _____ _____    ______ ____
ROOT
ATOM      8  C   UNL     1       9.770   6.757   5.252  0.00  0.00    +0.000 C 
ATOM      9  C   UNL     1      10.152   6.363   3.802  0.00  0.00    +0.032 C 
ATOM     10  C   UNL     1       8.279   7.116   5.334  0.00  0.00    +0.012 C 
ATOM     11  C   UNL     1       7.908   8.282   4.399  0.00  0.00    +0.023 C 
ATOM     13  C   UNL     1       8.483   8.094   3.009  0.00  0.00    -0.073 C 
ATOM     14  C   UNL     1       9.476   7.222   2.760  0.00  0.00    -0.022 C 
ATOM     19  C   UNL     1       7.858   8.898   1.903  0.00  0.00    +0.039 C 
ENDROOT
BRANCH   8  12
ATOM     12  C   UNL     1      10.090   5.637   6.247  0.00  0.00    -0.013 C 
ATOM     17  C   UNL     1       9.393   5.895   7.580  0.00  0.00    +0.007 C 
ATOM     18  C   UNL     1       9.679   4.284   5.676  0.00  0.00    +0.007 C 
ENDBRANCH   8  12
BRANCH   9  15
ATOM     15  C   UNL     1      11.670   6.412   3.598  0.00  0.00    +0.112 C 
BRANCH  15   5
ATOM      2  O   UNL     1      11.809   5.483   0.861  0.00  0.00    -0.276 OA
ATOM      5  N   UNL     1      12.161   5.152   3.137  0.00  0.00    -0.315 N 
ATOM     21  C   UNL     1      12.194   4.780   1.791  0.00  0.00    +0.214 C 
ATOM     31  H   UNL     1      12.558   4.514   3.821  0.00  0.00    +0.149 HD
BRANCH  21  22
ATOM     22  C   UNL     1      12.764   3.386   1.598  0.00  0.00    +0.107 C 
BRANCH  22  24
ATOM     24  C   UNL     1      13.830   3.339   0.508  0.00  0.00    +0.129 C 
BRANCH  24  26
ATOM      4  O   UNL     1      15.920   4.586   0.456  0.00  0.00    -0.251 OA
ATOM     26  C   UNL     1      15.178   3.792   1.018  0.00  0.00    +0.305 C 
BRANCH  26   3
ATOM      3  O   UNL     1      15.485   3.202   2.204  0.00  0.00    -0.481 OA
ATOM     33  H   UNL     1      14.684   3.026   2.742  0.00  0.00    +0.295 HD
ENDBRANCH  26   3
ENDBRANCH  24  26
ENDBRANCH  22  24
ENDBRANCH  21  22
ENDBRANCH  15   5
ENDBRANCH   9  15
BRANCH  11  16
ATOM     16  C   UNL     1       8.341   9.627   4.994  0.00  0.00    +0.103 C 
BRANCH  16  20
ATOM      1  O   UNL     1       7.681  11.917   4.578  0.00  0.00    -0.276 OA
ATOM      6  N   UNL     1       6.085  10.231   4.483  0.00  0.00    -0.311 N 
ATOM     20  C   UNL     1       7.365  10.734   4.665  0.00  0.00    +0.214 C 
ATOM     32  H   UNL     1       5.922   9.232   4.573  0.00  0.00    +0.149 HD
BRANCH   6  23
ATOM     23  C   UNL     1       4.949  11.062   4.160  0.00  0.00    +0.141 C 
BRANCH  23  25
ATOM      7  N   UNL     1       3.435  10.239   0.793  0.00  0.00    -0.263 NA
ATOM     25  C   UNL     1       4.677  11.094   2.684  0.00  0.00    -0.012 A 
ATOM     27  C   UNL     1       5.372  11.959   1.846  0.00  0.00    +0.008 A 
ATOM     28  C   UNL     1       3.728  10.262   2.113  0.00  0.00    +0.115 A 
ATOM     29  C   UNL     1       5.100  11.965   0.482  0.00  0.00    +0.020 A 
ATOM     30  C   UNL     1       4.131  11.093   0.009  0.00  0.00    +0.111 A 
ENDBRANCH  23  25
ENDBRANCH   6  23
ENDBRANCH  16  20
ENDBRANCH  11  16
TORSDOF 11
ENDMDL
MODEL 10
REMARK VINA RESULT:      -5.7      3.968      8.046
REMARK  Name = 38028580
REMARK  14 active torsions:
REMARK  status: ('A' for Active; 'I' for Inactive)
REMARK    1  A    between atoms: O_3  and  C_26
REMARK    2  A    between atoms: N_5  and  C_15
REMARK    3  A    between atoms: N_6  and  C_23
REMARK    4  A    between atoms: C_8  and  C_12
REMARK    5  A    between atoms: C_9  and  C_15
REMARK    6  A    between atoms: C_11  and  C_16
REMARK    7  A    between atoms: C_12  and  C_17
REMARK    8  A    between atoms: C_12  and  C_18
REMARK    9  A    between atoms: C_13  and  C_19
REMARK   10  A    between atoms: C_16  and  C_20
REMARK   11  A    between atoms: C_21  and  C_22
REMARK   12  A    between atoms: C_22  and  C_24
REMARK   13  A    between atoms: C_23  and  C_25
REMARK   14  A    between atoms: C_24  and  C_26
REMARK                            x       y       z     vdW  Elec       q    Type
REMARK                         _______ _______ _______ _____ _____    ______ ____
ROOT
ATOM      8  C   UNL     1      -5.329 -10.334  10.674  0.00  0.00    +0.000 C 
ATOM      9  C   UNL     1      -4.676  -9.423   9.603  0.00  0.00    +0.032 C 
ATOM     10  C   UNL     1      -4.791  -9.988  12.071  0.00  0.00    +0.012 C 
ATOM     11  C   UNL     1      -3.263 -10.147  12.162  0.00  0.00    +0.023 C 
ATOM     13  C   UNL     1      -2.557  -9.500  10.987  0.00  0.00    -0.073 C 
ATOM     14  C   UNL     1      -3.209  -9.172   9.857  0.00  0.00    -0.022 C 
ATOM     19  C   UNL     1      -1.095  -9.197  11.158  0.00  0.00    +0.039 C 
ENDROOT
BRANCH   8  12
ATOM     12  C   UNL     1      -6.857 -10.218  10.663  0.00  0.00    -0.013 C 
ATOM     17  C   UNL     1      -7.493 -11.595  10.493  0.00  0.00    +0.007 C 
ATOM     18  C   UNL     1      -7.350  -9.550  11.942  0.00  0.00    +0.007 C 
ENDBRANCH   8  12
BRANCH   9  15
ATOM     15  C   UNL     1      -4.859 -10.006   8.197  0.00  0.00    +0.112 C 
BRANCH  15   5
ATOM      2  O   UNL     1      -7.360 -10.744   6.943  0.00  0.00    -0.276 OA
ATOM      5  N   UNL     1      -5.709  -9.172   7.408  0.00  0.00    -0.315 N 
ATOM     21  C   UNL     1      -6.906  -9.608   6.836  0.00  0.00    +0.214 C 
ATOM     31  H   UNL     1      -5.455  -8.193   7.303  0.00  0.00    +0.149 HD
BRANCH  21  22
ATOM     22  C   UNL     1      -7.598  -8.508   6.051  0.00  0.00    +0.107 C 
BRANCH  22  24
ATOM     24  C   UNL     1      -8.816  -7.951   6.779  0.00  0.00    +0.129 C 
BRANCH  24  26
ATOM      4  O   UNL     1      -7.456  -6.838   8.464  0.00  0.00    -0.251 OA
ATOM     26  C   UNL     1      -8.443  -6.847   7.741  0.00  0.00    +0.305 C 
BRANCH  26   3
ATOM      3  O   UNL     1      -9.352  -5.836   7.714  0.00  0.00    -0.481 OA
ATOM     33  H   UNL     1     -10.174  -6.070   8.194  0.00  0.00    +0.295 HD
ENDBRANCH  26   3
ENDBRANCH  24  26
ENDBRANCH  22  24
ENDBRANCH  21  22
ENDBRANCH  15   5
ENDBRANCH   9  15
BRANCH  11  16
ATOM     16  C   UNL     1      -2.867 -11.622  12.294  0.00  0.00    +0.103 C 
BRANCH  16  20
ATOM      1  O   UNL     1      -2.663 -13.216  14.104  0.00  0.00    -0.276 OA
ATOM      6  N   UNL     1      -2.673 -10.941  14.578  0.00  0.00    -0.311 N 
ATOM     20  C   UNL     1      -2.724 -12.045  13.739  0.00  0.00    +0.214 C 
ATOM     32  H   UNL     1      -2.728 -10.007  14.180  0.00  0.00    +0.149 HD
BRANCH   6  23
ATOM     23  C   UNL     1      -2.539 -11.045  16.012  0.00  0.00    +0.141 C 
BRANCH  23  25
ATOM      7  N   UNL     1      -6.081  -9.919  16.717  0.00  0.00    -0.263 NA
ATOM     25  C   UNL     1      -3.853 -10.861  16.715  0.00  0.00    -0.012 A 
ATOM     27  C   UNL     1      -4.081 -11.422  17.966  0.00  0.00    +0.008 A 
ATOM     28  C   UNL     1      -4.876 -10.125  16.138  0.00  0.00    +0.115 A 
ATOM     29  C   UNL     1      -5.307 -11.233  18.594  0.00  0.00    +0.020 A 
ATOM     30  C   UNL     1      -6.265 -10.480  17.934  0.00  0.00    +0.111 A 
ENDBRANCH  23  25
ENDBRANCH   6  23
ENDBRANCH  16  20
ENDBRANCH  11  16
TORSDOF 11
ENDMDL
