MODEL 1
REMARK VINA RESULT:      -7.4      0.000      0.000
REMARK  Name = 23983671
REMARK  14 active torsions:
REMARK  status: ('A' for Active; 'I' for Inactive)
REMARK    1  A    between atoms: S_1  and  C_32
REMARK    2  A    between atoms: S_1  and  C_38
REMARK    3  A    between atoms: O_2  and  C_15
REMARK    4  A    between atoms: O_2  and  C_24
REMARK    5  A    between atoms: O_3  and  C_16
REMARK    6  A    between atoms: O_4  and  C_20
REMARK    7  A    between atoms: N_7  and  C_25
REMARK    8  A    between atoms: N_8  and  C_26
REMARK    9  A    between atoms: C_9  and  C_19
REMARK   10  A    between atoms: C_11  and  C_20
REMARK   11  A    between atoms: C_11  and  C_21
REMARK   12  A    between atoms: C_12  and  C_22
REMARK   13  A    between atoms: C_22  and  C_23
REMARK   14  A    between atoms: C_25  and  C_27
REMARK                            x       y       z     vdW  Elec       q    Type
REMARK                         _______ _______ _______ _____ _____    ______ ____
ROOT
ATOM      9  C   UNL     1      -7.443 -10.484  17.821  0.00  0.00    -0.023 C 
ATOM     10  C   UNL     1      -7.199 -12.030  17.621  0.00  0.00    +0.007 C 
ATOM     11  C   UNL     1      -5.714 -12.483  17.348  0.00  0.00    +0.031 C 
ATOM     12  C   UNL     1      -9.009 -10.250  17.756  0.00  0.00    +0.032 C 
ATOM     13  C   UNL     1      -6.763  -9.724  16.651  0.00  0.00    +0.011 C 
ATOM     14  C   UNL     1      -7.933 -12.848  18.706  0.00  0.00    +0.007 C 
ATOM     15  C   UNL     1      -5.117 -11.597  16.212  0.00  0.00    +0.186 C 
ATOM     16  C   UNL     1      -9.802 -11.113  18.763  0.00  0.00    +0.119 C 
ATOM     17  C   UNL     1      -5.302 -10.100  16.439  0.00  0.00    +0.046 C 
ATOM     18  C   UNL     1      -9.440 -12.592  18.669  0.00  0.00    +0.032 C 
ATOM     19  C   UNL     1      -6.866  -9.932  19.147  0.00  0.00    +0.012 C 
ATOM     21  C   UNL     1      -5.716 -13.953  16.837  0.00  0.00    +0.017 C 
ENDROOT
BRANCH  16   3
ATOM      3  O   UNL     1      -9.603 -10.653  20.096  0.00  0.00    -0.391 OA
ATOM     39  H   UNL     1     -10.472 -10.417  20.460  0.00  0.00    +0.210 HD
ENDBRANCH  16   3
BRANCH  15   2
ATOM      2  O   UNL     1      -3.719 -11.825  16.039  0.00  0.00    -0.446 OA
BRANCH   2  24
ATOM      6  O   UNL     1      -2.039 -10.481  15.265  0.00  0.00    -0.226 OA
ATOM      8  N   UNL     1      -3.849 -11.110  13.920  0.00  0.00    -0.251 N 
ATOM     24  C   UNL     1      -3.095 -11.072  15.076  0.00  0.00    +0.405 C 
ATOM     42  H   UNL     1      -4.788 -11.490  14.023  0.00  0.00    +0.158 HD
BRANCH   8  26
ATOM     26  C   UNL     1      -3.580 -10.477  12.685  0.00  0.00    +0.037 A 
ATOM     28  C   UNL     1      -4.620  -9.918  11.944  0.00  0.00    +0.038 A 
ATOM     29  C   UNL     1      -2.270 -10.413  12.206  0.00  0.00    +0.023 A 
ATOM     32  C   UNL     1      -4.354  -9.296  10.724  0.00  0.00    +0.009 A 
ATOM     33  C   UNL     1      -2.003  -9.791  10.987  0.00  0.00    +0.003 A 
ATOM     36  C   UNL     1      -3.045  -9.233  10.246  0.00  0.00    +0.015 A 
BRANCH  32   1
ATOM      1  S   UNL     1      -5.685  -8.583   9.779  0.00  0.00    -0.129 S 
ATOM     38  C   UNL     1      -7.132  -9.049  10.771  0.00  0.00    +0.090 C 
ENDBRANCH  32   1
ENDBRANCH   8  26
ENDBRANCH   2  24
ENDBRANCH  15   2
BRANCH  11  20
ATOM     20  C   UNL     1      -4.812 -12.476  18.598  0.00  0.00    +0.166 C 
BRANCH  20   4
ATOM      4  O   UNL     1      -4.057 -13.667  18.595  0.00  0.00    -0.394 OA
ATOM     40  H   UNL     1      -3.316 -13.542  19.213  0.00  0.00    +0.209 HD
ENDBRANCH  20   4
ENDBRANCH  11  20
BRANCH  12  22
ATOM     22  C   UNL     1      -9.449  -8.781  17.868  0.00  0.00    +0.102 C 
BRANCH  22  23
ATOM      5  O   UNL     1      -9.779  -8.829  15.471  0.00  0.00    -0.276 OA
ATOM      7  N   UNL     1     -10.286  -6.898  16.661  0.00  0.00    -0.311 N 
ATOM     23  C   UNL     1      -9.845  -8.207  16.528  0.00  0.00    +0.214 C 
ATOM     41  H   UNL     1     -10.380  -6.490  17.586  0.00  0.00    +0.149 HD
BRANCH   7  25
ATOM     25  C   UNL     1     -10.729  -6.097  15.544  0.00  0.00    +0.139 C 
BRANCH  25  27
ATOM     27  C   UNL     1     -12.140  -6.418  15.145  0.00  0.00    -0.030 A 
ATOM     30  C   UNL     1     -13.108  -6.642  16.125  0.00  0.00    +0.005 A 
ATOM     31  C   UNL     1     -12.485  -6.490  13.796  0.00  0.00    +0.005 A 
ATOM     34  C   UNL     1     -14.419  -6.939  15.756  0.00  0.00    +0.000 A 
ATOM     35  C   UNL     1     -13.796  -6.788  13.426  0.00  0.00    +0.000 A 
ATOM     37  C   UNL     1     -14.764  -7.013  14.405  0.00  0.00    +0.000 A 
ENDBRANCH  25  27
ENDBRANCH   7  25
ENDBRANCH  22  23
ENDBRANCH  12  22
TORSDOF 11
ENDMDL
MODEL 2
REMARK VINA RESULT:      -7.4      2.088      3.290
REMARK  Name = 23983671
REMARK  14 active torsions:
REMARK  status: ('A' for Active; 'I' for Inactive)
REMARK    1  A    between atoms: S_1  and  C_32
REMARK    2  A    between atoms: S_1  and  C_38
REMARK    3  A    between atoms: O_2  and  C_15
REMARK    4  A    between atoms: O_2  and  C_24
REMARK    5  A    between atoms: O_3  and  C_16
REMARK    6  A    between atoms: O_4  and  C_20
REMARK    7  A    between atoms: N_7  and  C_25
REMARK    8  A    between atoms: N_8  and  C_26
REMARK    9  A    between atoms: C_9  and  C_19
REMARK   10  A    between atoms: C_11  and  C_20
REMARK   11  A    between atoms: C_11  and  C_21
REMARK   12  A    between atoms: C_12  and  C_22
REMARK   13  A    between atoms: C_22  and  C_23
REMARK   14  A    between atoms: C_25  and  C_27
REMARK                            x       y       z     vdW  Elec       q    Type
REMARK                         _______ _______ _______ _____ _____    ______ ____
ROOT
ATOM      9  C   UNL     1      -7.256 -10.396  18.036  0.00  0.00    -0.023 C 
ATOM     10  C   UNL     1      -6.802 -11.907  18.004  0.00  0.00    +0.007 C 
ATOM     11  C   UNL     1      -5.257 -12.178  17.836  0.00  0.00    +0.031 C 
ATOM     12  C   UNL     1      -8.834 -10.384  17.886  0.00  0.00    +0.032 C 
ATOM     13  C   UNL     1      -6.621  -9.666  16.822  0.00  0.00    +0.011 C 
ATOM     14  C   UNL     1      -7.478 -12.710  19.137  0.00  0.00    +0.007 C 
ATOM     15  C   UNL     1      -4.724 -11.332  16.641  0.00  0.00    +0.186 C 
ATOM     16  C   UNL     1      -9.559 -11.247  18.943  0.00  0.00    +0.119 C 
ATOM     17  C   UNL     1      -5.114  -9.859  16.707  0.00  0.00    +0.046 C 
ATOM     18  C   UNL     1      -9.001 -12.665  19.015  0.00  0.00    +0.032 C 
ATOM     19  C   UNL     1      -6.828  -9.647  19.321  0.00  0.00    +0.012 C 
ATOM     21  C   UNL     1      -5.040 -13.677  17.479  0.00  0.00    +0.017 C 
ENDROOT
BRANCH  16   3
ATOM      3  O   UNL     1      -9.492 -10.639  20.229  0.00  0.00    -0.391 OA
ATOM     39  H   UNL     1      -8.711 -10.061  20.243  0.00  0.00    +0.210 HD
ENDBRANCH  16   3
BRANCH  15   2
ATOM      2  O   UNL     1      -3.300 -11.384  16.547  0.00  0.00    -0.446 OA
BRANCH   2  24
ATOM      6  O   UNL     1      -1.577 -11.400  15.044  0.00  0.00    -0.226 OA
ATOM      8  N   UNL     1      -3.812 -11.597  14.377  0.00  0.00    -0.251 N 
ATOM     24  C   UNL     1      -2.778 -11.456  15.280  0.00  0.00    +0.405 C 
ATOM     42  H   UNL     1      -4.744 -11.425  14.749  0.00  0.00    +0.158 HD
BRANCH   8  26
ATOM     26  C   UNL     1      -3.729 -11.710  12.970  0.00  0.00    +0.037 A 
ATOM     28  C   UNL     1      -3.738 -10.565  12.175  0.00  0.00    +0.038 A 
ATOM     29  C   UNL     1      -3.641 -12.970  12.377  0.00  0.00    +0.023 A 
ATOM     32  C   UNL     1      -3.658 -10.677  10.787  0.00  0.00    +0.009 A 
ATOM     33  C   UNL     1      -3.561 -13.083  10.989  0.00  0.00    +0.003 A 
ATOM     36  C   UNL     1      -3.570 -11.937  10.194  0.00  0.00    +0.015 A 
BRANCH  32   1
ATOM      1  S   UNL     1      -3.669  -9.213   9.772  0.00  0.00    -0.129 S 
ATOM     38  C   UNL     1      -4.877  -9.661   8.493  0.00  0.00    +0.090 C 
ENDBRANCH  32   1
ENDBRANCH   8  26
ENDBRANCH   2  24
ENDBRANCH  15   2
BRANCH  11  20
ATOM     20  C   UNL     1      -4.432 -11.929  19.114  0.00  0.00    +0.166 C 
BRANCH  20   4
ATOM      4  O   UNL     1      -3.393 -12.882  19.152  0.00  0.00    -0.394 OA
ATOM     40  H   UNL     1      -3.369 -13.320  18.283  0.00  0.00    +0.209 HD
ENDBRANCH  20   4
ENDBRANCH  11  20
BRANCH  12  22
ATOM     22  C   UNL     1      -9.468  -8.984  17.830  0.00  0.00    +0.102 C 
BRANCH  22  23
ATOM      5  O   UNL     1      -9.780  -7.347  16.076  0.00  0.00    -0.276 OA
ATOM      7  N   UNL     1      -9.810  -9.611  15.552  0.00  0.00    -0.311 N 
ATOM     23  C   UNL     1      -9.700  -8.526  16.409  0.00  0.00    +0.214 C 
ATOM     41  H   UNL     1      -9.652 -10.550  15.905  0.00  0.00    +0.149 HD
BRANCH   7  25
ATOM     25  C   UNL     1     -10.037  -9.475  14.132  0.00  0.00    +0.139 C 
BRANCH  25  27
ATOM     27  C   UNL     1      -9.048 -10.267  13.325  0.00  0.00    -0.030 A 
ATOM     30  C   UNL     1      -8.316 -11.290  13.929  0.00  0.00    +0.005 A 
ATOM     31  C   UNL     1      -8.863  -9.982  11.973  0.00  0.00    +0.005 A 
ATOM     34  C   UNL     1      -7.399 -12.027  13.181  0.00  0.00    +0.000 A 
ATOM     35  C   UNL     1      -7.945 -10.717  11.224  0.00  0.00    +0.000 A 
ATOM     37  C   UNL     1      -7.213 -11.740  11.828  0.00  0.00    +0.000 A 
ENDBRANCH  25  27
ENDBRANCH   7  25
ENDBRANCH  22  23
ENDBRANCH  12  22
TORSDOF 11
ENDMDL
MODEL 3
REMARK VINA RESULT:      -7.2      2.462      7.640
REMARK  Name = 23983671
REMARK  14 active torsions:
REMARK  status: ('A' for Active; 'I' for Inactive)
REMARK    1  A    between atoms: S_1  and  C_32
REMARK    2  A    between atoms: S_1  and  C_38
REMARK    3  A    between atoms: O_2  and  C_15
REMARK    4  A    between atoms: O_2  and  C_24
REMARK    5  A    between atoms: O_3  and  C_16
REMARK    6  A    between atoms: O_4  and  C_20
REMARK    7  A    between atoms: N_7  and  C_25
REMARK    8  A    between atoms: N_8  and  C_26
REMARK    9  A    between atoms: C_9  and  C_19
REMARK   10  A    between atoms: C_11  and  C_20
REMARK   11  A    between atoms: C_11  and  C_21
REMARK   12  A    between atoms: C_12  and  C_22
REMARK   13  A    between atoms: C_22  and  C_23
REMARK   14  A    between atoms: C_25  and  C_27
REMARK                            x       y       z     vdW  Elec       q    Type
REMARK                         _______ _______ _______ _____ _____    ______ ____
ROOT
ATOM      9  C   UNL     1      -4.376 -11.653  14.692  0.00  0.00    -0.023 C 
ATOM     10  C   UNL     1      -4.367 -11.037  16.144  0.00  0.00    +0.007 C 
ATOM     11  C   UNL     1      -5.566 -11.433  17.088  0.00  0.00    +0.031 C 
ATOM     12  C   UNL     1      -3.283 -10.873  13.851  0.00  0.00    +0.032 C 
ATOM     13  C   UNL     1      -5.775 -11.410  14.063  0.00  0.00    +0.011 C 
ATOM     14  C   UNL     1      -2.969 -11.165  16.788  0.00  0.00    +0.007 C 
ATOM     15  C   UNL     1      -6.905 -11.220  16.320  0.00  0.00    +0.186 C 
ATOM     16  C   UNL     1      -1.879 -10.894  14.498  0.00  0.00    +0.119 C 
ATOM     17  C   UNL     1      -6.933 -11.869  14.940  0.00  0.00    +0.046 C 
ATOM     18  C   UNL     1      -1.908 -10.445  15.956  0.00  0.00    +0.032 C 
ATOM     19  C   UNL     1      -4.099 -13.176  14.663  0.00  0.00    +0.012 C 
ATOM     21  C   UNL     1      -5.580 -10.480  18.319  0.00  0.00    +0.017 C 
ENDROOT
BRANCH  16   3
ATOM      3  O   UNL     1      -1.294 -12.188  14.404  0.00  0.00    -0.391 OA
ATOM     39  H   UNL     1      -0.611 -12.156  13.714  0.00  0.00    +0.210 HD
ENDBRANCH  16   3
BRANCH  15   2
ATOM      2  O   UNL     1      -8.022 -11.733  17.046  0.00  0.00    -0.446 OA
BRANCH   2  24
ATOM      6  O   UNL     1     -10.303 -11.587  17.092  0.00  0.00    -0.226 OA
ATOM      8  N   UNL     1      -8.955  -9.791  16.432  0.00  0.00    -0.251 N 
ATOM     24  C   UNL     1      -9.213 -11.073  16.873  0.00  0.00    +0.405 C 
ATOM     42  H   UNL     1      -8.001  -9.619  16.124  0.00  0.00    +0.158 HD
BRANCH   8  26
ATOM     26  C   UNL     1      -9.886  -8.772  16.128  0.00  0.00    +0.037 A 
ATOM     28  C   UNL     1     -10.557  -8.779  14.906  0.00  0.00    +0.038 A 
ATOM     29  C   UNL     1     -10.133  -7.756  17.053  0.00  0.00    +0.023 A 
ATOM     32  C   UNL     1     -11.474  -7.771  14.606  0.00  0.00    +0.009 A 
ATOM     33  C   UNL     1     -11.049  -6.748  16.754  0.00  0.00    +0.003 A 
ATOM     36  C   UNL     1     -11.720  -6.756  15.531  0.00  0.00    +0.015 A 
BRANCH  32   1
ATOM      1  S   UNL     1     -12.330  -7.782  13.044  0.00  0.00    -0.129 S 
ATOM     38  C   UNL     1     -12.678  -6.016  12.803  0.00  0.00    +0.090 C 
ENDBRANCH  32   1
ENDBRANCH   8  26
ENDBRANCH   2  24
ENDBRANCH  15   2
BRANCH  11  20
ATOM     20  C   UNL     1      -5.469 -12.859  17.665  0.00  0.00    +0.166 C 
BRANCH  20   4
ATOM      4  O   UNL     1      -6.260 -12.910  18.832  0.00  0.00    -0.394 OA
ATOM     40  H   UNL     1      -6.389 -11.994  19.135  0.00  0.00    +0.209 HD
ENDBRANCH  20   4
ENDBRANCH  11  20
BRANCH  12  22
ATOM     22  C   UNL     1      -3.183 -11.291  12.374  0.00  0.00    +0.102 C 
BRANCH  22  23
ATOM      5  O   UNL     1      -2.147  -9.656  10.923  0.00  0.00    -0.276 OA
ATOM      7  N   UNL     1      -4.441  -9.578  11.287  0.00  0.00    -0.311 N 
ATOM     23  C   UNL     1      -3.165 -10.097  11.449  0.00  0.00    +0.214 C 
ATOM     41  H   UNL     1      -5.236 -10.056  11.701  0.00  0.00    +0.149 HD
BRANCH   7  25
ATOM     25  C   UNL     1      -4.727  -8.431  10.457  0.00  0.00    +0.139 C 
BRANCH  25  27
ATOM     27  C   UNL     1      -5.484  -8.808   9.216  0.00  0.00    -0.030 A 
ATOM     30  C   UNL     1      -4.884  -9.622   8.254  0.00  0.00    +0.005 A 
ATOM     31  C   UNL     1      -6.785  -8.346   9.026  0.00  0.00    +0.005 A 
ATOM     34  C   UNL     1      -5.587  -9.973   7.102  0.00  0.00    +0.000 A 
ATOM     35  C   UNL     1      -7.488  -8.696   7.873  0.00  0.00    +0.000 A 
ATOM     37  C   UNL     1      -6.889  -9.510   6.911  0.00  0.00    +0.000 A 
ENDBRANCH  25  27
ENDBRANCH   7  25
ENDBRANCH  22  23
ENDBRANCH  12  22
TORSDOF 11
ENDMDL
MODEL 4
REMARK VINA RESULT:      -7.2      2.607      4.552
REMARK  Name = 23983671
REMARK  14 active torsions:
REMARK  status: ('A' for Active; 'I' for Inactive)
REMARK    1  A    between atoms: S_1  and  C_32
REMARK    2  A    between atoms: S_1  and  C_38
REMARK    3  A    between atoms: O_2  and  C_15
REMARK    4  A    between atoms: O_2  and  C_24
REMARK    5  A    between atoms: O_3  and  C_16
REMARK    6  A    between atoms: O_4  and  C_20
REMARK    7  A    between atoms: N_7  and  C_25
REMARK    8  A    between atoms: N_8  and  C_26
REMARK    9  A    between atoms: C_9  and  C_19
REMARK   10  A    between atoms: C_11  and  C_20
REMARK   11  A    between atoms: C_11  and  C_21
REMARK   12  A    between atoms: C_12  and  C_22
REMARK   13  A    between atoms: C_22  and  C_23
REMARK   14  A    between atoms: C_25  and  C_27
REMARK                            x       y       z     vdW  Elec       q    Type
REMARK                         _______ _______ _______ _____ _____    ______ ____
ROOT
ATOM      9  C   UNL     1      -4.165 -11.649  15.821  0.00  0.00    -0.023 C 
ATOM     10  C   UNL     1      -4.290 -12.958  14.949  0.00  0.00    +0.007 C 
ATOM     11  C   UNL     1      -3.461 -12.996  13.607  0.00  0.00    +0.031 C 
ATOM     12  C   UNL     1      -5.308 -11.713  16.917  0.00  0.00    +0.032 C 
ATOM     13  C   UNL     1      -4.406 -10.421  14.902  0.00  0.00    +0.011 C 
ATOM     14  C   UNL     1      -4.152 -14.221  15.827  0.00  0.00    +0.007 C 
ATOM     15  C   UNL     1      -3.725 -11.680  12.814  0.00  0.00    +0.186 C 
ATOM     16  C   UNL     1      -5.272 -13.003  17.769  0.00  0.00    +0.119 C 
ATOM     17  C   UNL     1      -3.544 -10.414  13.646  0.00  0.00    +0.046 C 
ATOM     18  C   UNL     1      -5.231 -14.263  16.909  0.00  0.00    +0.032 C 
ATOM     19  C   UNL     1      -2.780 -11.480  16.490  0.00  0.00    +0.012 C 
ATOM     21  C   UNL     1      -3.968 -14.177  12.730  0.00  0.00    +0.017 C 
ENDROOT
BRANCH  16   3
ATOM      3  O   UNL     1      -4.162 -12.993  18.661  0.00  0.00    -0.391 OA
ATOM     39  H   UNL     1      -3.553 -12.295  18.368  0.00  0.00    +0.210 HD
ENDBRANCH  16   3
BRANCH  15   2
ATOM      2  O   UNL     1      -2.866 -11.562  11.680  0.00  0.00    -0.446 OA
BRANCH   2  24
ATOM      6  O   UNL     1      -2.675  -9.632  10.469  0.00  0.00    -0.226 OA
ATOM      8  N   UNL     1      -4.390 -11.178  10.084  0.00  0.00    -0.251 N 
ATOM     24  C   UNL     1      -3.263 -10.680  10.707  0.00  0.00    +0.405 C 
ATOM     42  H   UNL     1      -4.838 -11.962  10.553  0.00  0.00    +0.158 HD
BRANCH   8  26
ATOM     26  C   UNL     1      -5.129 -10.598   9.028  0.00  0.00    +0.037 A 
ATOM     28  C   UNL     1      -6.089  -9.625   9.299  0.00  0.00    +0.038 A 
ATOM     29  C   UNL     1      -4.896 -11.001   7.712  0.00  0.00    +0.023 A 
ATOM     32  C   UNL     1      -6.819  -9.054   8.256  0.00  0.00    +0.009 A 
ATOM     33  C   UNL     1      -5.626 -10.431   6.669  0.00  0.00    +0.003 A 
ATOM     36  C   UNL     1      -6.587  -9.458   6.941  0.00  0.00    +0.015 A 
BRANCH  32   1
ATOM      1  S   UNL     1      -8.047  -7.811   8.604  0.00  0.00    -0.129 S 
ATOM     38  C   UNL     1      -8.242  -7.021   6.981  0.00  0.00    +0.090 C 
ENDBRANCH  32   1
ENDBRANCH   8  26
ENDBRANCH   2  24
ENDBRANCH  15   2
BRANCH  11  20
ATOM     20  C   UNL     1      -1.952 -13.240  13.806  0.00  0.00    +0.166 C 
BRANCH  20   4
ATOM      4  O   UNL     1      -1.490 -14.006  12.715  0.00  0.00    -0.394 OA
ATOM     40  H   UNL     1      -2.184 -13.989  12.034  0.00  0.00    +0.209 HD
ENDBRANCH  20   4
ENDBRANCH  11  20
BRANCH  12  22
ATOM     22  C   UNL     1      -5.392 -10.483  17.836  0.00  0.00    +0.102 C 
BRANCH  22  23
ATOM      5  O   UNL     1      -6.630 -10.529  19.915  0.00  0.00    -0.276 OA
ATOM      7  N   UNL     1      -7.779 -10.478  17.895  0.00  0.00    -0.311 N 
ATOM     23  C   UNL     1      -6.640 -10.499  18.687  0.00  0.00    +0.214 C 
ATOM     41  H   UNL     1      -7.691 -10.375  16.889  0.00  0.00    +0.149 HD
BRANCH   7  25
ATOM     25  C   UNL     1      -9.118 -10.489  18.438  0.00  0.00    +0.139 C 
BRANCH  25  27
ATOM     27  C   UNL     1      -9.998  -9.462  17.785  0.00  0.00    -0.030 A 
ATOM     30  C   UNL     1     -11.385  -9.603  17.829  0.00  0.00    +0.005 A 
ATOM     31  C   UNL     1      -9.429  -8.367  17.137  0.00  0.00    +0.005 A 
ATOM     34  C   UNL     1     -12.203  -8.649  17.224  0.00  0.00    +0.000 A 
ATOM     35  C   UNL     1     -10.246  -7.412  16.531  0.00  0.00    +0.000 A 
ATOM     37  C   UNL     1     -11.633  -7.554  16.575  0.00  0.00    +0.000 A 
ENDBRANCH  25  27
ENDBRANCH   7  25
ENDBRANCH  22  23
ENDBRANCH  12  22
TORSDOF 11
ENDMDL
MODEL 5
REMARK VINA RESULT:      -7.1      4.164      8.231
REMARK  Name = 23983671
REMARK  14 active torsions:
REMARK  status: ('A' for Active; 'I' for Inactive)
REMARK    1  A    between atoms: S_1  and  C_32
REMARK    2  A    between atoms: S_1  and  C_38
REMARK    3  A    between atoms: O_2  and  C_15
REMARK    4  A    between atoms: O_2  and  C_24
REMARK    5  A    between atoms: O_3  and  C_16
REMARK    6  A    between atoms: O_4  and  C_20
REMARK    7  A    between atoms: N_7  and  C_25
REMARK    8  A    between atoms: N_8  and  C_26
REMARK    9  A    between atoms: C_9  and  C_19
REMARK   10  A    between atoms: C_11  and  C_20
REMARK   11  A    between atoms: C_11  and  C_21
REMARK   12  A    between atoms: C_12  and  C_22
REMARK   13  A    between atoms: C_22  and  C_23
REMARK   14  A    between atoms: C_25  and  C_27
REMARK                            x       y       z     vdW  Elec       q    Type
REMARK                         _______ _______ _______ _____ _____    ______ ____
ROOT
ATOM      9  C   UNL     1     -12.663  -6.209  11.297  0.00  0.00    -0.023 C 
ATOM     10  C   UNL     1     -11.598  -5.409  10.452  0.00  0.00    +0.007 C 
ATOM     11  C   UNL     1     -10.967  -6.158   9.216  0.00  0.00    +0.031 C 
ATOM     12  C   UNL     1     -12.901  -5.393  12.634  0.00  0.00    +0.032 C 
ATOM     13  C   UNL     1     -12.068  -7.601  11.645  0.00  0.00    +0.011 C 
ATOM     14  C   UNL     1     -12.095  -3.977  10.153  0.00  0.00    +0.007 C 
ATOM     15  C   UNL     1     -10.481  -7.566   9.674  0.00  0.00    +0.186 C 
ATOM     16  C   UNL     1     -13.315  -3.924  12.392  0.00  0.00    +0.119 C 
ATOM     17  C   UNL     1     -11.534  -8.362  10.439  0.00  0.00    +0.046 C 
ATOM     18  C   UNL     1     -12.362  -3.203  11.443  0.00  0.00    +0.032 C 
ATOM     19  C   UNL     1     -14.001  -6.435  10.553  0.00  0.00    +0.012 C 
ATOM     21  C   UNL     1      -9.716  -5.370   8.728  0.00  0.00    +0.017 C 
ENDROOT
BRANCH  16   3
ATOM      3  O   UNL     1     -14.645  -3.846  11.890  0.00  0.00    -0.391 OA
ATOM     39  H   UNL     1     -14.686  -4.376  11.077  0.00  0.00    +0.210 HD
ENDBRANCH  16   3
BRANCH  15   2
ATOM      2  O   UNL     1     -10.068  -8.371   8.570  0.00  0.00    -0.446 OA
BRANCH   2  24
ATOM      6  O   UNL     1      -8.683 -10.147   8.173  0.00  0.00    -0.226 OA
ATOM      8  N   UNL     1      -8.089  -8.405   9.619  0.00  0.00    -0.251 N 
ATOM     24  C   UNL     1      -8.907  -9.084   8.739  0.00  0.00    +0.405 C 
ATOM     42  H   UNL     1      -8.533  -7.645  10.130  0.00  0.00    +0.158 HD
BRANCH   8  26
ATOM     26  C   UNL     1      -6.804  -8.777  10.075  0.00  0.00    +0.037 A 
ATOM     28  C   UNL     1      -6.659  -9.457  11.283  0.00  0.00    +0.038 A 
ATOM     29  C   UNL     1      -5.677  -8.460   9.314  0.00  0.00    +0.023 A 
ATOM     32  C   UNL     1      -5.390  -9.821  11.733  0.00  0.00    +0.009 A 
ATOM     33  C   UNL     1      -4.408  -8.824   9.763  0.00  0.00    +0.003 A 
ATOM     36  C   UNL     1      -4.264  -9.504  10.973  0.00  0.00    +0.015 A 
BRANCH  32   1
ATOM      1  S   UNL     1      -5.208 -10.690  13.278  0.00  0.00    -0.129 S 
ATOM     38  C   UNL     1      -3.412 -10.615  13.533  0.00  0.00    +0.090 C 
ENDBRANCH  32   1
ENDBRANCH   8  26
ENDBRANCH   2  24
ENDBRANCH  15   2
BRANCH  11  20
ATOM     20  C   UNL     1     -11.902  -6.256   7.994  0.00  0.00    +0.166 C 
BRANCH  20   4
ATOM      4  O   UNL     1     -11.098  -6.293   6.835  0.00  0.00    -0.394 OA
ATOM     40  H   UNL     1     -10.565  -7.106   6.878  0.00  0.00    +0.209 HD
ENDBRANCH  20   4
ENDBRANCH  11  20
BRANCH  12  22
ATOM     22  C   UNL     1     -13.871  -6.052  13.630  0.00  0.00    +0.102 C 
BRANCH  22  23
ATOM      5  O   UNL     1     -13.819  -6.738  15.950  0.00  0.00    -0.276 OA
ATOM      7  N   UNL     1     -11.880  -5.945  14.943  0.00  0.00    -0.311 N 
ATOM     23  C   UNL     1     -13.222  -6.294  14.973  0.00  0.00    +0.214 C 
ATOM     41  H   UNL     1     -11.453  -5.658  14.068  0.00  0.00    +0.149 HD
BRANCH   7  25
ATOM     25  C   UNL     1     -11.007  -6.068  16.088  0.00  0.00    +0.139 C 
BRANCH  25  27
ATOM     27  C   UNL     1     -10.310  -7.397  16.124  0.00  0.00    -0.030 A 
ATOM     30  C   UNL     1      -9.804  -7.887  17.328  0.00  0.00    +0.005 A 
ATOM     31  C   UNL     1     -10.170  -8.143  14.954  0.00  0.00    +0.005 A 
ATOM     34  C   UNL     1      -9.157  -9.122  17.362  0.00  0.00    +0.000 A 
ATOM     35  C   UNL     1      -9.522  -9.378  14.987  0.00  0.00    +0.000 A 
ATOM     37  C   UNL     1      -9.016  -9.868  16.191  0.00  0.00    +0.000 A 
ENDBRANCH  25  27
ENDBRANCH   7  25
ENDBRANCH  22  23
ENDBRANCH  12  22
TORSDOF 11
ENDMDL
MODEL 6
REMARK VINA RESULT:      -7.0     28.832     32.153
REMARK  Name = 23983671
REMARK  14 active torsions:
REMARK  status: ('A' for Active; 'I' for Inactive)
REMARK    1  A    between atoms: S_1  and  C_32
REMARK    2  A    between atoms: S_1  and  C_38
REMARK    3  A    between atoms: O_2  and  C_15
REMARK    4  A    between atoms: O_2  and  C_24
REMARK    5  A    between atoms: O_3  and  C_16
REMARK    6  A    between atoms: O_4  and  C_20
REMARK    7  A    between atoms: N_7  and  C_25
REMARK    8  A    between atoms: N_8  and  C_26
REMARK    9  A    between atoms: C_9  and  C_19
REMARK   10  A    between atoms: C_11  and  C_20
REMARK   11  A    between atoms: C_11  and  C_21
REMARK   12  A    between atoms: C_12  and  C_22
REMARK   13  A    between atoms: C_22  and  C_23
REMARK   14  A    between atoms: C_25  and  C_27
REMARK                            x       y       z     vdW  Elec       q    Type
REMARK                         _______ _______ _______ _____ _____    ______ ____
ROOT
ATOM      9  C   UNL     1      14.615   9.988  18.767  0.00  0.00    -0.023 C 
ATOM     10  C   UNL     1      15.059   8.476  18.853  0.00  0.00    +0.007 C 
ATOM     11  C   UNL     1      15.720   8.010  20.207  0.00  0.00    +0.031 C 
ATOM     12  C   UNL     1      14.290  10.288  17.245  0.00  0.00    +0.032 C 
ATOM     13  C   UNL     1      15.804  10.877  19.221  0.00  0.00    +0.011 C 
ATOM     14  C   UNL     1      13.947   7.544  18.324  0.00  0.00    +0.007 C 
ATOM     15  C   UNL     1      16.841   9.021  20.596  0.00  0.00    +0.186 C 
ATOM     16  C   UNL     1      13.246   9.325  16.637  0.00  0.00    +0.119 C 
ATOM     17  C   UNL     1      16.391  10.478  20.569  0.00  0.00    +0.046 C 
ATOM     18  C   UNL     1      13.606   7.860  16.867  0.00  0.00    +0.032 C 
ATOM     19  C   UNL     1      13.397  10.328  19.659  0.00  0.00    +0.012 C 
ATOM     21  C   UNL     1      16.398   6.625  19.990  0.00  0.00    +0.017 C 
ENDROOT
BRANCH  16   3
ATOM      3  O   UNL     1      11.947   9.588  17.158  0.00  0.00    -0.391 OA
ATOM     39  H   UNL     1      11.299   9.195  16.549  0.00  0.00    +0.210 HD
ENDBRANCH  16   3
BRANCH  15   2
ATOM      2  O   UNL     1      17.357   8.765  21.902  0.00  0.00    -0.446 OA
BRANCH   2  24
ATOM      6  O   UNL     1      19.558   9.293  21.578  0.00  0.00    -0.226 OA
ATOM      8  N   UNL     1      18.894   7.286  22.583  0.00  0.00    -0.251 N 
ATOM     24  C   UNL     1      18.704   8.515  21.985  0.00  0.00    +0.405 C 
ATOM     42  H   UNL     1      18.061   6.708  22.670  0.00  0.00    +0.158 HD
BRANCH   8  26
ATOM     26  C   UNL     1      20.118   6.637  22.867  0.00  0.00    +0.037 A 
ATOM     28  C   UNL     1      20.614   5.669  21.995  0.00  0.00    +0.038 A 
ATOM     29  C   UNL     1      20.828   6.965  24.023  0.00  0.00    +0.023 A 
ATOM     32  C   UNL     1      21.821   5.028  22.277  0.00  0.00    +0.009 A 
ATOM     33  C   UNL     1      22.034   6.324  24.305  0.00  0.00    +0.003 A 
ATOM     36  C   UNL     1      22.531   5.356  23.432  0.00  0.00    +0.015 A 
BRANCH  32   1
ATOM      1  S   UNL     1      22.454   3.791  21.162  0.00  0.00    -0.129 S 
ATOM     38  C   UNL     1      23.533   2.826  22.257  0.00  0.00    +0.090 C 
ENDBRANCH  32   1
ENDBRANCH   8  26
ENDBRANCH   2  24
ENDBRANCH  15   2
BRANCH  11  20
ATOM     20  C   UNL     1      14.718   7.809  21.361  0.00  0.00    +0.166 C 
BRANCH  20   4
ATOM      4  O   UNL     1      15.310   6.942  22.303  0.00  0.00    -0.394 OA
ATOM     40  H   UNL     1      15.790   7.495  22.944  0.00  0.00    +0.209 HD
ENDBRANCH  20   4
ENDBRANCH  11  20
BRANCH  12  22
ATOM     22  C   UNL     1      13.896  11.744  16.943  0.00  0.00    +0.102 C 
BRANCH  22  23
ATOM      5  O   UNL     1      14.507  13.419  15.307  0.00  0.00    -0.276 OA
ATOM      7  N   UNL     1      15.822  11.518  15.550  0.00  0.00    -0.311 N 
ATOM     23  C   UNL     1      14.748  12.344  15.849  0.00  0.00    +0.214 C 
ATOM     41  H   UNL     1      15.985  10.683  16.105  0.00  0.00    +0.149 HD
BRANCH   7  25
ATOM     25  C   UNL     1      16.805  11.836  14.541  0.00  0.00    +0.139 C 
BRANCH  25  27
ATOM     27  C   UNL     1      18.175  12.022  15.128  0.00  0.00    -0.030 A 
ATOM     30  C   UNL     1      19.285  11.453  14.503  0.00  0.00    +0.005 A 
ATOM     31  C   UNL     1      18.337  12.765  16.297  0.00  0.00    +0.005 A 
ATOM     34  C   UNL     1      20.557  11.626  15.048  0.00  0.00    +0.000 A 
ATOM     35  C   UNL     1      19.609  12.938  16.843  0.00  0.00    +0.000 A 
ATOM     37  C   UNL     1      20.719  12.368  16.218  0.00  0.00    +0.000 A 
ENDBRANCH  25  27
ENDBRANCH   7  25
ENDBRANCH  22  23
ENDBRANCH  12  22
TORSDOF 11
ENDMDL
MODEL 7
REMARK VINA RESULT:      -7.0     28.030     30.568
REMARK  Name = 23983671
REMARK  14 active torsions:
REMARK  status: ('A' for Active; 'I' for Inactive)
REMARK    1  A    between atoms: S_1  and  C_32
REMARK    2  A    between atoms: S_1  and  C_38
REMARK    3  A    between atoms: O_2  and  C_15
REMARK    4  A    between atoms: O_2  and  C_24
REMARK    5  A    between atoms: O_3  and  C_16
REMARK    6  A    between atoms: O_4  and  C_20
REMARK    7  A    between atoms: N_7  and  C_25
REMARK    8  A    between atoms: N_8  and  C_26
REMARK    9  A    between atoms: C_9  and  C_19
REMARK   10  A    between atoms: C_11  and  C_20
REMARK   11  A    between atoms: C_11  and  C_21
REMARK   12  A    between atoms: C_12  and  C_22
REMARK   13  A    between atoms: C_22  and  C_23
REMARK   14  A    between atoms: C_25  and  C_27
REMARK                            x       y       z     vdW  Elec       q    Type
REMARK                         _______ _______ _______ _____ _____    ______ ____
ROOT
ATOM      9  C   UNL     1      14.166   9.182  19.787  0.00  0.00    -0.023 C 
ATOM     10  C   UNL     1      12.951   8.811  18.851  0.00  0.00    +0.007 C 
ATOM     11  C   UNL     1      13.092   9.188  17.326  0.00  0.00    +0.031 C 
ATOM     12  C   UNL     1      13.669   9.008  21.282  0.00  0.00    +0.032 C 
ATOM     13  C   UNL     1      14.540  10.668  19.542  0.00  0.00    +0.011 C 
ATOM     14  C   UNL     1      12.471   7.367  19.118  0.00  0.00    +0.007 C 
ATOM     15  C   UNL     1      13.546  10.675  17.214  0.00  0.00    +0.186 C 
ATOM     16  C   UNL     1      13.093   7.605  21.580  0.00  0.00    +0.119 C 
ATOM     17  C   UNL     1      14.759  11.014  18.074  0.00  0.00    +0.046 C 
ATOM     18  C   UNL     1      12.028   7.190  20.570  0.00  0.00    +0.032 C 
ATOM     19  C   UNL     1      15.429   8.323  19.532  0.00  0.00    +0.012 C 
ATOM     21  C   UNL     1      11.697   9.075  16.644  0.00  0.00    +0.017 C 
ENDROOT
BRANCH  16   3
ATOM      3  O   UNL     1      14.128   6.627  21.616  0.00  0.00    -0.391 OA
ATOM     39  H   UNL     1      14.497   6.619  22.515  0.00  0.00    +0.210 HD
ENDBRANCH  16   3
BRANCH  15   2
ATOM      2  O   UNL     1      13.873  11.030  15.870  0.00  0.00    -0.446 OA
BRANCH   2  24
ATOM      6  O   UNL     1      14.485  13.231  15.959  0.00  0.00    -0.226 OA
ATOM      8  N   UNL     1      15.961  11.557  15.256  0.00  0.00    -0.251 N 
ATOM     24  C   UNL     1      14.762  12.063  15.715  0.00  0.00    +0.405 C 
ATOM     42  H   UNL     1      15.932  10.593  14.929  0.00  0.00    +0.158 HD
BRANCH   8  26
ATOM     26  C   UNL     1      17.149  12.264  14.961  0.00  0.00    +0.037 A 
ATOM     28  C   UNL     1      17.511  12.501  13.636  0.00  0.00    +0.038 A 
ATOM     29  C   UNL     1      17.961  12.725  15.999  0.00  0.00    +0.023 A 
ATOM     32  C   UNL     1      18.684  13.198  13.346  0.00  0.00    +0.009 A 
ATOM     33  C   UNL     1      19.134  13.421  15.710  0.00  0.00    +0.003 A 
ATOM     36  C   UNL     1      19.495  13.658  14.383  0.00  0.00    +0.015 A 
BRANCH  32   1
ATOM      1  S   UNL     1      19.145  13.500  11.652  0.00  0.00    -0.129 S 
ATOM     38  C   UNL     1      18.135  12.275  10.772  0.00  0.00    +0.090 C 
ENDBRANCH  32   1
ENDBRANCH   8  26
ENDBRANCH   2  24
ENDBRANCH  15   2
BRANCH  11  20
ATOM     20  C   UNL     1      14.024   8.253  16.530  0.00  0.00    +0.166 C 
BRANCH  20   4
ATOM      4  O   UNL     1      13.727   8.408  15.160  0.00  0.00    -0.394 OA
ATOM     40  H   UNL     1      13.129   9.171  15.078  0.00  0.00    +0.209 HD
ENDBRANCH  20   4
ENDBRANCH  11  20
BRANCH  12  22
ATOM     22  C   UNL     1      14.702   9.388  22.355  0.00  0.00    +0.102 C 
BRANCH  22  23
ATOM      5  O   UNL     1      15.058  11.441  23.585  0.00  0.00    -0.276 OA
ATOM      7  N   UNL     1      12.898  10.633  23.300  0.00  0.00    -0.311 N 
ATOM     23  C   UNL     1      14.276  10.603  23.145  0.00  0.00    +0.214 C 
ATOM     41  H   UNL     1      12.323   9.937  22.834  0.00  0.00    +0.149 HD
BRANCH   7  25
ATOM     25  C   UNL     1      12.207  11.681  24.014  0.00  0.00    +0.139 C 
BRANCH  25  27
ATOM     27  C   UNL     1      11.541  12.653  23.083  0.00  0.00    -0.030 A 
ATOM     30  C   UNL     1      10.495  13.454  23.542  0.00  0.00    +0.005 A 
ATOM     31  C   UNL     1      11.969  12.756  21.760  0.00  0.00    +0.005 A 
ATOM     34  C   UNL     1       9.877  14.357  22.677  0.00  0.00    +0.000 A 
ATOM     35  C   UNL     1      11.351  13.659  20.894  0.00  0.00    +0.000 A 
ATOM     37  C   UNL     1      10.305  14.460  21.353  0.00  0.00    +0.000 A 
ENDBRANCH  25  27
ENDBRANCH   7  25
ENDBRANCH  22  23
ENDBRANCH  12  22
TORSDOF 11
ENDMDL
MODEL 8
REMARK VINA RESULT:      -6.9      3.551      7.553
REMARK  Name = 23983671
REMARK  14 active torsions:
REMARK  status: ('A' for Active; 'I' for Inactive)
REMARK    1  A    between atoms: S_1  and  C_32
REMARK    2  A    between atoms: S_1  and  C_38
REMARK    3  A    between atoms: O_2  and  C_15
REMARK    4  A    between atoms: O_2  and  C_24
REMARK    5  A    between atoms: O_3  and  C_16
REMARK    6  A    between atoms: O_4  and  C_20
REMARK    7  A    between atoms: N_7  and  C_25
REMARK    8  A    between atoms: N_8  and  C_26
REMARK    9  A    between atoms: C_9  and  C_19
REMARK   10  A    between atoms: C_11  and  C_20
REMARK   11  A    between atoms: C_11  and  C_21
REMARK   12  A    between atoms: C_12  and  C_22
REMARK   13  A    between atoms: C_22  and  C_23
REMARK   14  A    between atoms: C_25  and  C_27
REMARK                            x       y       z     vdW  Elec       q    Type
REMARK                         _______ _______ _______ _____ _____    ______ ____
ROOT
ATOM      9  C   UNL     1     -12.580  -6.588  14.697  0.00  0.00    -0.023 C 
ATOM     10  C   UNL     1     -12.405  -8.138  14.457  0.00  0.00    +0.007 C 
ATOM     11  C   UNL     1     -12.031  -9.011  15.715  0.00  0.00    +0.031 C 
ATOM     12  C   UNL     1     -12.628  -5.901  13.270  0.00  0.00    +0.032 C 
ATOM     13  C   UNL     1     -11.340  -6.068  15.474  0.00  0.00    +0.011 C 
ATOM     14  C   UNL     1     -13.566  -8.697  13.605  0.00  0.00    +0.007 C 
ATOM     15  C   UNL     1     -10.829  -8.346  16.452  0.00  0.00    +0.186 C 
ATOM     16  C   UNL     1     -13.717  -6.486  12.342  0.00  0.00    +0.119 C 
ATOM     17  C   UNL     1     -11.027  -6.861  16.737  0.00  0.00    +0.046 C 
ATOM     18  C   UNL     1     -13.636  -8.007  12.243  0.00  0.00    +0.032 C 
ATOM     19  C   UNL     1     -13.842  -6.227  15.517  0.00  0.00    +0.012 C 
ATOM     21  C   UNL     1     -11.564 -10.417  15.238  0.00  0.00    +0.017 C 
ENDROOT
BRANCH  16   3
ATOM      3  O   UNL     1     -15.017  -6.101  12.776  0.00  0.00    -0.391 OA
ATOM     39  H   UNL     1     -15.449  -6.886  13.151  0.00  0.00    +0.210 HD
ENDBRANCH  16   3
BRANCH  15   2
ATOM      2  O   UNL     1     -10.556  -8.980  17.701  0.00  0.00    -0.446 OA
BRANCH   2  24
ATOM      6  O   UNL     1      -9.801 -11.136  17.603  0.00  0.00    -0.226 OA
ATOM      8  N   UNL     1      -8.343  -9.315  17.804  0.00  0.00    -0.251 N 
ATOM     24  C   UNL     1      -9.571  -9.936  17.695  0.00  0.00    +0.405 C 
ATOM     42  H   UNL     1      -8.373  -8.332  18.067  0.00  0.00    +0.158 HD
BRANCH   8  26
ATOM     26  C   UNL     1      -7.064  -9.917  17.837  0.00  0.00    +0.037 A 
ATOM     28  C   UNL     1      -6.315 -10.029  16.667  0.00  0.00    +0.038 A 
ATOM     29  C   UNL     1      -6.553 -10.400  19.042  0.00  0.00    +0.023 A 
ATOM     32  C   UNL     1      -5.053 -10.624  16.700  0.00  0.00    +0.009 A 
ATOM     33  C   UNL     1      -5.292 -10.995  19.076  0.00  0.00    +0.003 A 
ATOM     36  C   UNL     1      -4.542 -11.107  17.904  0.00  0.00    +0.015 A 
BRANCH  32   1
ATOM      1  S   UNL     1      -4.097 -10.768  15.203  0.00  0.00    -0.129 S 
ATOM     38  C   UNL     1      -2.399 -10.703  15.844  0.00  0.00    +0.090 C 
ENDBRANCH  32   1
ENDBRANCH   8  26
ENDBRANCH   2  24
ENDBRANCH  15   2
BRANCH  11  20
ATOM     20  C   UNL     1     -13.209  -9.267  16.677  0.00  0.00    +0.166 C 
BRANCH  20   4
ATOM      4  O   UNL     1     -12.974 -10.493  17.334  0.00  0.00    -0.394 OA
ATOM     40  H   UNL     1     -12.010 -10.618  17.379  0.00  0.00    +0.209 HD
ENDBRANCH  20   4
ENDBRANCH  11  20
BRANCH  12  22
ATOM     22  C   UNL     1     -12.732  -4.367  13.294  0.00  0.00    +0.102 C 
BRANCH  22  23
ATOM      5  O   UNL     1     -13.753  -3.158  11.463  0.00  0.00    -0.276 OA
ATOM      7  N   UNL     1     -11.624  -4.053  11.203  0.00  0.00    -0.311 N 
ATOM     23  C   UNL     1     -12.791  -3.783  11.902  0.00  0.00    +0.214 C 
ATOM     41  H   UNL     1     -10.849  -4.511  11.674  0.00  0.00    +0.149 HD
BRANCH   7  25
ATOM     25  C   UNL     1     -11.399  -3.618   9.844  0.00  0.00    +0.139 C 
BRANCH  25  27
ATOM     27  C   UNL     1     -10.948  -4.745   8.960  0.00  0.00    -0.030 A 
ATOM     30  C   UNL     1      -9.589  -4.925   8.699  0.00  0.00    +0.005 A 
ATOM     31  C   UNL     1     -11.886  -5.611   8.401  0.00  0.00    +0.005 A 
ATOM     34  C   UNL     1      -9.169  -5.971   7.878  0.00  0.00    +0.000 A 
ATOM     35  C   UNL     1     -11.467  -6.658   7.580  0.00  0.00    +0.000 A 
ATOM     37  C   UNL     1     -10.108  -6.838   7.318  0.00  0.00    +0.000 A 
ENDBRANCH  25  27
ENDBRANCH   7  25
ENDBRANCH  22  23
ENDBRANCH  12  22
TORSDOF 11
ENDMDL
MODEL 9
REMARK VINA RESULT:      -6.8     26.922     31.406
REMARK  Name = 23983671
REMARK  14 active torsions:
REMARK  status: ('A' for Active; 'I' for Inactive)
REMARK    1  A    between atoms: S_1  and  C_32
REMARK    2  A    between atoms: S_1  and  C_38
REMARK    3  A    between atoms: O_2  and  C_15
REMARK    4  A    between atoms: O_2  and  C_24
REMARK    5  A    between atoms: O_3  and  C_16
REMARK    6  A    between atoms: O_4  and  C_20
REMARK    7  A    between atoms: N_7  and  C_25
REMARK    8  A    between atoms: N_8  and  C_26
REMARK    9  A    between atoms: C_9  and  C_19
REMARK   10  A    between atoms: C_11  and  C_20
REMARK   11  A    between atoms: C_11  and  C_21
REMARK   12  A    between atoms: C_12  and  C_22
REMARK   13  A    between atoms: C_22  and  C_23
REMARK   14  A    between atoms: C_25  and  C_27
REMARK                            x       y       z     vdW  Elec       q    Type
REMARK                         _______ _______ _______ _____ _____    ______ ____
ROOT
ATOM      9  C   UNL     1      22.023  -8.489   3.601  0.00  0.00    -0.023 C 
ATOM     10  C   UNL     1      23.044  -7.599   2.793  0.00  0.00    +0.007 C 
ATOM     11  C   UNL     1      22.494  -6.238   2.215  0.00  0.00    +0.031 C 
ATOM     12  C   UNL     1      22.698  -9.910   3.792  0.00  0.00    +0.032 C 
ATOM     13  C   UNL     1      20.731  -8.646   2.754  0.00  0.00    +0.011 C 
ATOM     14  C   UNL     1      24.389  -7.483   3.544  0.00  0.00    +0.007 C 
ATOM     15  C   UNL     1      21.160  -6.515   1.458  0.00  0.00    +0.186 C 
ATOM     16  C   UNL     1      24.090  -9.845   4.460  0.00  0.00    +0.119 C 
ATOM     17  C   UNL     1      20.151  -7.325   2.265  0.00  0.00    +0.046 C 
ATOM     18  C   UNL     1      25.021  -8.858   3.763  0.00  0.00    +0.032 C 
ATOM     19  C   UNL     1      21.626  -7.888   4.971  0.00  0.00    +0.012 C 
ATOM     21  C   UNL     1      23.511  -5.679   1.177  0.00  0.00    +0.017 C 
ENDROOT
BRANCH  16   3
ATOM      3  O   UNL     1      23.978  -9.508   5.839  0.00  0.00    -0.391 OA
ATOM     39  H   UNL     1      23.034  -9.521   6.071  0.00  0.00    +0.210 HD
ENDBRANCH  16   3
BRANCH  15   2
ATOM      2  O   UNL     1      20.511  -5.305   1.068  0.00  0.00    -0.446 OA
BRANCH   2  24
ATOM      6  O   UNL     1      20.934  -5.458  -1.174  0.00  0.00    -0.226 OA
ATOM      8  N   UNL     1      18.854  -4.776  -0.345  0.00  0.00    -0.251 N 
ATOM     24  C   UNL     1      20.165  -5.201  -0.256  0.00  0.00    +0.405 C 
ATOM     42  H   UNL     1      18.448  -4.429   0.522  0.00  0.00    +0.158 HD
BRANCH   8  26
ATOM     26  C   UNL     1      18.094  -4.538  -1.512  0.00  0.00    +0.037 A 
ATOM     28  C   UNL     1      17.712  -5.602  -2.327  0.00  0.00    +0.038 A 
ATOM     29  C   UNL     1      17.727  -3.234  -1.849  0.00  0.00    +0.023 A 
ATOM     32  C   UNL     1      16.963  -5.365  -3.480  0.00  0.00    +0.009 A 
ATOM     33  C   UNL     1      16.979  -2.996  -3.002  0.00  0.00    +0.003 A 
ATOM     36  C   UNL     1      16.597  -4.062  -3.817  0.00  0.00    +0.015 A 
BRANCH  32   1
ATOM      1  S   UNL     1      16.476  -6.726  -4.522  0.00  0.00    -0.129 S 
ATOM     38  C   UNL     1      15.947  -7.956  -3.296  0.00  0.00    +0.090 C 
ENDBRANCH  32   1
ENDBRANCH   8  26
ENDBRANCH   2  24
ENDBRANCH  15   2
BRANCH  11  20
ATOM     20  C   UNL     1      22.322  -5.129   3.271  0.00  0.00    +0.166 C 
BRANCH  20   4
ATOM      4  O   UNL     1      22.379  -3.885   2.608  0.00  0.00    -0.394 OA
ATOM     40  H   UNL     1      23.117  -3.383   2.994  0.00  0.00    +0.209 HD
ENDBRANCH  20   4
ENDBRANCH  11  20
BRANCH  12  22
ATOM     22  C   UNL     1      21.822 -10.951   4.509  0.00  0.00    +0.102 C 
BRANCH  22  23
ATOM      5  O   UNL     1      21.527 -12.084   2.391  0.00  0.00    -0.276 OA
ATOM      7  N   UNL     1      19.998 -12.438   4.106  0.00  0.00    -0.311 N 
ATOM     23  C   UNL     1      21.129 -11.874   3.534  0.00  0.00    +0.214 C 
ATOM     41  H   UNL     1      19.790 -12.267   5.085  0.00  0.00    +0.149 HD
BRANCH   7  25
ATOM     25  C   UNL     1      19.137 -13.361   3.405  0.00  0.00    +0.139 C 
BRANCH  25  27
ATOM     27  C   UNL     1      17.695 -13.187   3.787  0.00  0.00    -0.030 A 
ATOM     30  C   UNL     1      16.727 -13.016   2.797  0.00  0.00    +0.005 A 
ATOM     31  C   UNL     1      17.323 -13.197   5.131  0.00  0.00    +0.005 A 
ATOM     34  C   UNL     1      15.388 -12.854   3.151  0.00  0.00    +0.000 A 
ATOM     35  C   UNL     1      15.984 -13.034   5.486  0.00  0.00    +0.000 A 
ATOM     37  C   UNL     1      15.016 -12.863   4.496  0.00  0.00    +0.000 A 
ENDBRANCH  25  27
ENDBRANCH   7  25
ENDBRANCH  22  23
ENDBRANCH  12  22
TORSDOF 11
ENDMDL
MODEL 10
REMARK VINA RESULT:      -6.7      2.637      3.989
REMARK  Name = 23983671
REMARK  14 active torsions:
REMARK  status: ('A' for Active; 'I' for Inactive)
REMARK    1  A    between atoms: S_1  and  C_32
REMARK    2  A    between atoms: S_1  and  C_38
REMARK    3  A    between atoms: O_2  and  C_15
REMARK    4  A    between atoms: O_2  and  C_24
REMARK    5  A    between atoms: O_3  and  C_16
REMARK    6  A    between atoms: O_4  and  C_20
REMARK    7  A    between atoms: N_7  and  C_25
REMARK    8  A    between atoms: N_8  and  C_26
REMARK    9  A    between atoms: C_9  and  C_19
REMARK   10  A    between atoms: C_11  and  C_20
REMARK   11  A    between atoms: C_11  and  C_21
REMARK   12  A    between atoms: C_12  and  C_22
REMARK   13  A    between atoms: C_22  and  C_23
REMARK   14  A    between atoms: C_25  and  C_27
REMARK                            x       y       z     vdW  Elec       q    Type
REMARK                         _______ _______ _______ _____ _____    ______ ____
ROOT
ATOM      9  C   UNL     1      -5.762 -10.885  16.176  0.00  0.00    -0.023 C 
ATOM     10  C   UNL     1      -5.207 -12.196  15.496  0.00  0.00    +0.007 C 
ATOM     11  C   UNL     1      -4.485 -12.020  14.105  0.00  0.00    +0.031 C 
ATOM     12  C   UNL     1      -6.705 -11.343  17.364  0.00  0.00    +0.032 C 
ATOM     13  C   UNL     1      -6.602 -10.105  15.128  0.00  0.00    +0.011 C 
ATOM     14  C   UNL     1      -4.439 -13.063  16.517  0.00  0.00    +0.007 C 
ATOM     15  C   UNL     1      -5.388 -11.158  13.172  0.00  0.00    +0.186 C 
ATOM     16  C   UNL     1      -6.010 -12.288  18.371  0.00  0.00    +0.119 C 
ATOM     17  C   UNL     1      -5.874  -9.862  13.813  0.00  0.00    +0.046 C 
ATOM     18  C   UNL     1      -5.338 -13.473  17.684  0.00  0.00    +0.032 C 
ATOM     19  C   UNL     1      -4.653  -9.940  16.697  0.00  0.00    +0.012 C 
ATOM     21  C   UNL     1      -4.324 -13.416  13.436  0.00  0.00    +0.017 C 
ENDROOT
BRANCH  16   3
ATOM      3  O   UNL     1      -5.055 -11.582  19.156  0.00  0.00    -0.391 OA
ATOM     39  H   UNL     1      -5.193 -11.830  20.085  0.00  0.00    +0.210 HD
ENDBRANCH  16   3
BRANCH  15   2
ATOM      2  O   UNL     1      -4.718 -10.803  11.964  0.00  0.00    -0.446 OA
BRANCH   2  24
ATOM      6  O   UNL     1      -6.103 -12.042  10.631  0.00  0.00    -0.226 OA
ATOM      8  N   UNL     1      -5.134 -10.041   9.899  0.00  0.00    -0.251 N 
ATOM     24  C   UNL     1      -5.394 -11.057  10.797  0.00  0.00    +0.405 C 
ATOM     42  H   UNL     1      -4.369  -9.419  10.152  0.00  0.00    +0.158 HD
BRANCH   8  26
ATOM     26  C   UNL     1      -5.623  -9.899   8.580  0.00  0.00    +0.037 A 
ATOM     28  C   UNL     1      -6.615  -8.961   8.299  0.00  0.00    +0.038 A 
ATOM     29  C   UNL     1      -5.113 -10.701   7.558  0.00  0.00    +0.023 A 
ATOM     32  C   UNL     1      -7.099  -8.823   6.998  0.00  0.00    +0.009 A 
ATOM     33  C   UNL     1      -5.595 -10.564   6.257  0.00  0.00    +0.003 A 
ATOM     36  C   UNL     1      -6.589  -9.625   5.977  0.00  0.00    +0.015 A 
BRANCH  32   1
ATOM      1  S   UNL     1      -8.367  -7.624   6.641  0.00  0.00    -0.129 S 
ATOM     38  C   UNL     1      -8.115  -6.414   7.971  0.00  0.00    +0.090 C 
ENDBRANCH  32   1
ENDBRANCH   8  26
ENDBRANCH   2  24
ENDBRANCH  15   2
BRANCH  11  20
ATOM     20  C   UNL     1      -3.061 -11.437  14.204  0.00  0.00    +0.166 C 
BRANCH  20   4
ATOM      4  O   UNL     1      -2.314 -11.930  13.114  0.00  0.00    -0.394 OA
ATOM     40  H   UNL     1      -2.889 -11.898  12.330  0.00  0.00    +0.209 HD
ENDBRANCH  20   4
ENDBRANCH  11  20
BRANCH  12  22
ATOM     22  C   UNL     1      -7.400 -10.197  18.118  0.00  0.00    +0.102 C 
BRANCH  22  23
ATOM      5  O   UNL     1      -9.415 -11.485  18.483  0.00  0.00    -0.276 OA
ATOM      7  N   UNL     1      -9.575  -9.228  17.954  0.00  0.00    -0.311 N 
ATOM     23  C   UNL     1      -8.893 -10.407  18.213  0.00  0.00    +0.214 C 
ATOM     41  H   UNL     1      -9.057  -8.365  17.817  0.00  0.00    +0.149 HD
BRANCH   7  25
ATOM     25  C   UNL     1     -11.016  -9.129  17.973  0.00  0.00    +0.139 C 
BRANCH  25  27
ATOM     27  C   UNL     1     -11.520  -8.059  17.048  0.00  0.00    -0.030 A 
ATOM     30  C   UNL     1     -10.700  -6.979  16.719  0.00  0.00    +0.005 A 
ATOM     31  C   UNL     1     -12.806  -8.146  16.516  0.00  0.00    +0.005 A 
ATOM     34  C   UNL     1     -11.167  -5.985  15.860  0.00  0.00    +0.000 A 
ATOM     35  C   UNL     1     -13.274  -7.152  15.657  0.00  0.00    +0.000 A 
ATOM     37  C   UNL     1     -12.455  -6.072  15.328  0.00  0.00    +0.000 A 
ENDBRANCH  25  27
ENDBRANCH   7  25
ENDBRANCH  22  23
ENDBRANCH  12  22
TORSDOF 11
ENDMDL
