MODEL 1
REMARK VINA RESULT:      -7.1      0.000      0.000
REMARK  Name = 45783588
REMARK  5 active torsions:
REMARK  status: ('A' for Active; 'I' for Inactive)
REMARK    1  A    between atoms: O_3  and  C_18
REMARK    2  A    between atoms: O_3  and  C_26
REMARK    3  A    between atoms: N_4  and  C_8
REMARK    4  A    between atoms: C_9  and  C_17
REMARK    5  A    between atoms: C_24  and  C_25
REMARK                            x       y       z     vdW  Elec       q    Type
REMARK                         _______ _______ _______ _____ _____    ______ ____
ROOT
ATOM      2  O   UNL     1     -16.530   1.673  25.853  0.00  0.00    -0.336 OA
ATOM      5  N   UNL     1     -16.183   3.881  25.994  0.00  0.00    -0.190 NA
ATOM      6  N   UNL     1     -16.082   2.079  24.589  0.00  0.00    -0.056 NA
ATOM     17  C   UNL     1     -16.560   2.794  26.619  0.00  0.00    +0.245 A 
ATOM     24  C   UNL     1     -15.899   3.391  24.753  0.00  0.00    +0.204 A 
ENDROOT
BRANCH  24  25
ATOM      7  N   UNL     1     -15.956   5.668  21.813  0.00  0.00    -0.221 NA
ATOM     25  C   UNL     1     -15.436   4.243  23.696  0.00  0.00    +0.041 A 
ATOM     26  C   UNL     1     -14.628   5.872  21.662  0.00  0.00    +0.215 A 
ATOM     27  C   UNL     1     -14.079   4.479  23.509  0.00  0.00    +0.018 A 
ATOM     28  C   UNL     1     -13.659   5.307  22.475  0.00  0.00    +0.068 A 
ATOM     29  C   UNL     1     -16.326   4.855  22.829  0.00  0.00    +0.126 A 
BRANCH  26   3
ATOM      3  O   UNL     1     -14.239   6.693  20.637  0.00  0.00    -0.473 OA
BRANCH   3  18
ATOM     18  C   UNL     1     -13.095   7.508  20.869  0.00  0.00    +0.175 C 
ATOM     19  C   UNL     1     -12.118   7.365  19.703  0.00  0.00    +0.044 C 
ATOM     20  C   UNL     1     -13.530   8.960  21.063  0.00  0.00    +0.044 C 
ATOM     21  C   UNL     1     -10.918   8.294  19.859  0.00  0.00    +0.004 C 
ATOM     22  C   UNL     1     -12.331   9.889  21.218  0.00  0.00    +0.004 C 
ATOM     23  C   UNL     1     -11.354   9.744  20.054  0.00  0.00    +0.000 C 
ENDBRANCH   3  18
ENDBRANCH  26   3
ENDBRANCH  24  25
BRANCH  17   9
ATOM      4  N   UNL     1     -16.323   3.533  28.984  0.00  0.00    -0.288 NA
ATOM      9  C   UNL     1     -17.016   2.620  28.053  0.00  0.00    +0.146 C 
ATOM     10  C   UNL     1     -17.256   3.791  30.081  0.00  0.00    +0.085 C 
ATOM     11  C   UNL     1     -18.512   2.929  28.243  0.00  0.00    +0.030 C 
ATOM     12  C   UNL     1     -18.565   3.982  29.341  0.00  0.00    +0.017 C 
BRANCH   4   8
ATOM      1  O   UNL     1     -13.538   1.703  31.538  0.00  0.00    -0.380 OA
ATOM      8  C   UNL     1     -15.046   3.008  29.461  0.00  0.00    +0.062 C 
ATOM     13  C   UNL     1     -15.127   1.500  29.711  0.00  0.00    +0.047 C 
ATOM     14  C   UNL     1     -14.621   3.730  30.744  0.00  0.00    +0.047 C 
ATOM     15  C   UNL     1     -13.831   0.994  30.334  0.00  0.00    +0.161 C 
ATOM     16  C   UNL     1     -13.353   3.101  31.311  0.00  0.00    +0.161 C 
ENDBRANCH   4   8
ENDBRANCH  17   9
TORSDOF 5
ENDMDL
MODEL 2
REMARK VINA RESULT:      -7.1     31.978     35.366
REMARK  Name = 45783588
REMARK  5 active torsions:
REMARK  status: ('A' for Active; 'I' for Inactive)
REMARK    1  A    between atoms: O_3  and  C_18
REMARK    2  A    between atoms: O_3  and  C_26
REMARK    3  A    between atoms: N_4  and  C_8
REMARK    4  A    between atoms: C_9  and  C_17
REMARK    5  A    between atoms: C_24  and  C_25
REMARK                            x       y       z     vdW  Elec       q    Type
REMARK                         _______ _______ _______ _____ _____    ______ ____
ROOT
ATOM      2  O   UNL     1      21.244   6.180  23.022  0.00  0.00    -0.336 OA
ATOM      5  N   UNL     1      20.935   6.026  20.809  0.00  0.00    -0.190 NA
ATOM      6  N   UNL     1      19.881   6.419  22.801  0.00  0.00    -0.056 NA
ATOM     17  C   UNL     1      21.790   5.958  21.798  0.00  0.00    +0.245 A 
ATOM     24  C   UNL     1      19.778   6.311  21.474  0.00  0.00    +0.204 A 
ENDROOT
BRANCH  24  25
ATOM      7  N   UNL     1      16.404   7.611  20.610  0.00  0.00    -0.221 NA
ATOM     25  C   UNL     1      18.535   6.483  20.781  0.00  0.00    +0.041 A 
ATOM     26  C   UNL     1      16.148   6.862  19.514  0.00  0.00    +0.215 A 
ATOM     27  C   UNL     1      18.235   5.732  19.650  0.00  0.00    +0.018 A 
ATOM     28  C   UNL     1      17.021   5.919  18.999  0.00  0.00    +0.068 A 
ATOM     29  C   UNL     1      17.593   7.401  21.217  0.00  0.00    +0.126 A 
BRANCH  26   3
ATOM      3  O   UNL     1      14.946   7.065  18.890  0.00  0.00    -0.473 OA
BRANCH   3  18
ATOM     18  C   UNL     1      13.934   7.721  19.648  0.00  0.00    +0.175 C 
ATOM     19  C   UNL     1      13.407   8.924  18.868  0.00  0.00    +0.044 C 
ATOM     20  C   UNL     1      12.818   6.731  19.979  0.00  0.00    +0.044 C 
ATOM     21  C   UNL     1      12.252   9.604  19.597  0.00  0.00    +0.004 C 
ATOM     22  C   UNL     1      11.663   7.410  20.708  0.00  0.00    +0.004 C 
ATOM     23  C   UNL     1      11.138   8.614  19.928  0.00  0.00    +0.000 C 
ENDBRANCH   3  18
ENDBRANCH  26   3
ENDBRANCH  24  25
BRANCH  17   9
ATOM      4  N   UNL     1      23.626   4.600  20.808  0.00  0.00    -0.288 NA
ATOM      9  C   UNL     1      23.277   5.670  21.764  0.00  0.00    +0.146 C 
ATOM     10  C   UNL     1      24.984   4.886  20.347  0.00  0.00    +0.085 C 
ATOM     11  C   UNL     1      24.108   6.885  21.313  0.00  0.00    +0.030 C 
ATOM     12  C   UNL     1      24.936   6.386  20.137  0.00  0.00    +0.017 C 
BRANCH   4   8
ATOM      1  O   UNL     1      24.769   0.996  22.633  0.00  0.00    -0.380 OA
ATOM      8  C   UNL     1      23.509   3.259  21.376  0.00  0.00    +0.062 C 
ATOM     13  C   UNL     1      23.895   3.252  22.858  0.00  0.00    +0.047 C 
ATOM     14  C   UNL     1      24.389   2.275  20.600  0.00  0.00    +0.047 C 
ATOM     15  C   UNL     1      23.897   1.827  23.399  0.00  0.00    +0.161 C 
ATOM     16  C   UNL     1      24.365   0.903  21.267  0.00  0.00    +0.161 C 
ENDBRANCH   4   8
ENDBRANCH  17   9
TORSDOF 5
ENDMDL
MODEL 3
REMARK VINA RESULT:      -6.8     19.532     22.627
REMARK  Name = 45783588
REMARK  5 active torsions:
REMARK  status: ('A' for Active; 'I' for Inactive)
REMARK    1  A    between atoms: O_3  and  C_18
REMARK    2  A    between atoms: O_3  and  C_26
REMARK    3  A    between atoms: N_4  and  C_8
REMARK    4  A    between atoms: C_9  and  C_17
REMARK    5  A    between atoms: C_24  and  C_25
REMARK                            x       y       z     vdW  Elec       q    Type
REMARK                         _______ _______ _______ _____ _____    ______ ____
ROOT
ATOM      2  O   UNL     1      -2.157 -10.474  14.537  0.00  0.00    -0.336 OA
ATOM      5  N   UNL     1      -4.374 -10.748  14.379  0.00  0.00    -0.190 NA
ATOM      6  N   UNL     1      -2.642 -10.489  15.852  0.00  0.00    -0.056 NA
ATOM     17  C   UNL     1      -3.241 -10.632  13.734  0.00  0.00    +0.245 A 
ATOM     24  C   UNL     1      -3.956 -10.655  15.674  0.00  0.00    +0.204 A 
ENDROOT
BRANCH  24  25
ATOM      7  N   UNL     1      -7.076 -10.252  17.656  0.00  0.00    -0.221 NA
ATOM     25  C   UNL     1      -4.878 -10.729  16.770  0.00  0.00    +0.041 A 
ATOM     26  C   UNL     1      -6.684 -10.832  18.812  0.00  0.00    +0.215 A 
ATOM     27  C   UNL     1      -4.512 -11.318  17.975  0.00  0.00    +0.018 A 
ATOM     28  C   UNL     1      -5.426 -11.374  19.021  0.00  0.00    +0.068 A 
ATOM     29  C   UNL     1      -6.160 -10.215  16.662  0.00  0.00    +0.126 A 
BRANCH  26   3
ATOM      3  O   UNL     1      -7.602 -10.875  19.827  0.00  0.00    -0.473 OA
BRANCH   3  18
ATOM     18  C   UNL     1      -8.806 -11.591  19.570  0.00  0.00    +0.175 C 
ATOM     19  C   UNL     1      -8.727 -12.975  20.212  0.00  0.00    +0.044 C 
ATOM     20  C   UNL     1      -9.999 -10.794  20.096  0.00  0.00    +0.044 C 
ATOM     21  C   UNL     1     -10.033 -13.746  20.047  0.00  0.00    +0.004 C 
ATOM     22  C   UNL     1     -11.305 -11.564  19.932  0.00  0.00    +0.004 C 
ATOM     23  C   UNL     1     -11.225 -12.949  20.572  0.00  0.00    +0.000 C 
ENDBRANCH   3  18
ENDBRANCH  26   3
ENDBRANCH  24  25
BRANCH  17   9
ATOM      4  N   UNL     1      -3.786  -9.655  11.511  0.00  0.00    -0.288 NA
ATOM      9  C   UNL     1      -2.978 -10.651  12.242  0.00  0.00    +0.146 C 
ATOM     10  C   UNL     1      -3.005  -9.273  10.334  0.00  0.00    +0.085 C 
ATOM     11  C   UNL     1      -1.519 -10.305  11.891  0.00  0.00    +0.030 C 
ATOM     12  C   UNL     1      -1.611  -9.143  10.912  0.00  0.00    +0.017 C 
BRANCH   4   8
ATOM      1  O   UNL     1      -7.527  -9.824   9.612  0.00  0.00    -0.380 OA
ATOM      8  C   UNL     1      -5.116 -10.143  11.153  0.00  0.00    +0.062 C 
ATOM     13  C   UNL     1      -5.192 -10.496   9.665  0.00  0.00    +0.047 C 
ATOM     14  C   UNL     1      -6.178  -9.095  11.498  0.00  0.00    +0.047 C 
ATOM     15  C   UNL     1      -6.618 -10.875   9.282  0.00  0.00    +0.161 C 
ATOM     16  C   UNL     1      -7.550  -9.550  11.013  0.00  0.00    +0.161 C 
ENDBRANCH   4   8
ENDBRANCH  17   9
TORSDOF 5
ENDMDL
MODEL 4
REMARK VINA RESULT:      -6.8     16.691     18.371
REMARK  Name = 45783588
REMARK  5 active torsions:
REMARK  status: ('A' for Active; 'I' for Inactive)
REMARK    1  A    between atoms: O_3  and  C_18
REMARK    2  A    between atoms: O_3  and  C_26
REMARK    3  A    between atoms: N_4  and  C_8
REMARK    4  A    between atoms: C_9  and  C_17
REMARK    5  A    between atoms: C_24  and  C_25
REMARK                            x       y       z     vdW  Elec       q    Type
REMARK                         _______ _______ _______ _____ _____    ______ ____
ROOT
ATOM      2  O   UNL     1      -8.921 -11.405  15.849  0.00  0.00    -0.336 OA
ATOM      5  N   UNL     1      -8.692  -9.344  16.695  0.00  0.00    -0.190 NA
ATOM      6  N   UNL     1      -9.874 -10.609  15.199  0.00  0.00    -0.056 NA
ATOM     17  C   UNL     1      -8.269 -10.582  16.712  0.00  0.00    +0.245 A 
ATOM     24  C   UNL     1      -9.676  -9.409  15.752  0.00  0.00    +0.204 A 
ENDROOT
BRANCH  24  25
ATOM      7  N   UNL     1     -10.974  -5.925  15.748  0.00  0.00    -0.221 NA
ATOM     25  C   UNL     1     -10.445  -8.256  15.385  0.00  0.00    +0.041 A 
ATOM     26  C   UNL     1     -11.875  -6.022  14.745  0.00  0.00    +0.215 A 
ATOM     27  C   UNL     1     -11.381  -8.315  14.359  0.00  0.00    +0.018 A 
ATOM     28  C   UNL     1     -12.114  -7.182  14.026  0.00  0.00    +0.068 A 
ATOM     29  C   UNL     1     -10.281  -7.047  16.043  0.00  0.00    +0.126 A 
BRANCH  26   3
ATOM      3  O   UNL     1     -12.584  -4.892  14.436  0.00  0.00    -0.473 OA
BRANCH   3  18
ATOM     18  C   UNL     1     -13.074  -4.788  13.103  0.00  0.00    +0.175 C 
ATOM     19  C   UNL     1     -14.535  -4.344  13.126  0.00  0.00    +0.044 C 
ATOM     20  C   UNL     1     -12.203  -3.815  12.310  0.00  0.00    +0.044 C 
ATOM     21  C   UNL     1     -15.078  -4.125  11.717  0.00  0.00    +0.004 C 
ATOM     22  C   UNL     1     -12.745  -3.596  10.901  0.00  0.00    +0.004 C 
ATOM     23  C   UNL     1     -14.206  -3.154  10.925  0.00  0.00    +0.000 C 
ENDBRANCH   3  18
ENDBRANCH  26   3
ENDBRANCH  24  25
BRANCH  17   9
ATOM      4  N   UNL     1      -5.875 -10.527  17.386  0.00  0.00    -0.288 NA
ATOM      9  C   UNL     1      -7.172 -11.212  17.546  0.00  0.00    +0.146 C 
ATOM     10  C   UNL     1      -5.155 -10.705  18.648  0.00  0.00    +0.085 C 
ATOM     11  C   UNL     1      -7.465 -11.149  19.057  0.00  0.00    +0.030 C 
ATOM     12  C   UNL     1      -6.249 -10.467  19.669  0.00  0.00    +0.017 C 
BRANCH   4   8
ATOM      1  O   UNL     1      -3.114 -10.513  14.222  0.00  0.00    -0.380 OA
ATOM      8  C   UNL     1      -5.105 -11.010  16.242  0.00  0.00    +0.062 C 
ATOM     13  C   UNL     1      -3.605 -11.016  16.549  0.00  0.00    +0.047 C 
ATOM     14  C   UNL     1      -5.385 -10.145  15.009  0.00  0.00    +0.047 C 
ATOM     15  C   UNL     1      -2.810 -11.394  15.304  0.00  0.00    +0.161 C 
ATOM     16  C   UNL     1      -4.491 -10.571  13.849  0.00  0.00    +0.161 C 
ENDBRANCH   4   8
ENDBRANCH  17   9
TORSDOF 5
ENDMDL
MODEL 5
REMARK VINA RESULT:      -6.7     15.589     18.793
REMARK  Name = 45783588
REMARK  5 active torsions:
REMARK  status: ('A' for Active; 'I' for Inactive)
REMARK    1  A    between atoms: O_3  and  C_18
REMARK    2  A    between atoms: O_3  and  C_26
REMARK    3  A    between atoms: N_4  and  C_8
REMARK    4  A    between atoms: C_9  and  C_17
REMARK    5  A    between atoms: C_24  and  C_25
REMARK                            x       y       z     vdW  Elec       q    Type
REMARK                         _______ _______ _______ _____ _____    ______ ____
ROOT
ATOM      2  O   UNL     1     -13.968  -5.502  14.607  0.00  0.00    -0.336 OA
ATOM      5  N   UNL     1     -11.838  -5.947  14.075  0.00  0.00    -0.190 NA
ATOM      6  N   UNL     1     -13.553  -6.521  15.476  0.00  0.00    -0.056 NA
ATOM     17  C   UNL     1     -12.899  -5.223  13.817  0.00  0.00    +0.245 A 
ATOM     24  C   UNL     1     -12.288  -6.727  15.100  0.00  0.00    +0.204 A 
ENDROOT
BRANCH  24  25
ATOM      7  N   UNL     1     -10.840 -10.028  16.010  0.00  0.00    -0.221 NA
ATOM     25  C   UNL     1     -11.448  -7.705  15.725  0.00  0.00    +0.041 A 
ATOM     26  C   UNL     1      -9.888  -9.623  16.880  0.00  0.00    +0.215 A 
ATOM     27  C   UNL     1     -10.457  -7.329  16.625  0.00  0.00    +0.018 A 
ATOM     28  C   UNL     1      -9.658  -8.299  17.218  0.00  0.00    +0.068 A 
ATOM     29  C   UNL     1     -11.598  -9.056  15.454  0.00  0.00    +0.126 A 
BRANCH  26   3
ATOM      3  O   UNL     1      -9.113 -10.598  17.450  0.00  0.00    -0.473 OA
BRANCH   3  18
ATOM     18  C   UNL     1      -7.802 -10.218  17.855  0.00  0.00    +0.175 C 
ATOM     19  C   UNL     1      -7.504 -10.796  19.238  0.00  0.00    +0.044 C 
ATOM     20  C   UNL     1      -6.787 -10.692  16.816  0.00  0.00    +0.044 C 
ATOM     21  C   UNL     1      -6.073 -10.498  19.675  0.00  0.00    +0.004 C 
ATOM     22  C   UNL     1      -5.356 -10.395  17.253  0.00  0.00    +0.004 C 
ATOM     23  C   UNL     1      -5.059 -10.970  18.635  0.00  0.00    +0.000 C 
ENDBRANCH   3  18
ENDBRANCH  26   3
ENDBRANCH  24  25
BRANCH  17   9
ATOM      4  N   UNL     1     -13.224  -4.680  11.411  0.00  0.00    -0.288 NA
ATOM      9  C   UNL     1     -13.092  -4.138  12.778  0.00  0.00    +0.146 C 
ATOM     10  C   UNL     1     -14.064  -3.737  10.672  0.00  0.00    +0.085 C 
ATOM     11  C   UNL     1     -14.380  -3.324  13.002  0.00  0.00    +0.030 C 
ATOM     12  C   UNL     1     -15.142  -3.416  11.687  0.00  0.00    +0.017 C 
BRANCH   4   8
ATOM      1  O   UNL     1     -10.452  -5.313   8.322  0.00  0.00    -0.380 OA
ATOM      8  C   UNL     1     -11.938  -4.902  10.753  0.00  0.00    +0.062 C 
ATOM     13  C   UNL     1     -11.607  -3.758   9.789  0.00  0.00    +0.047 C 
ATOM     14  C   UNL     1     -11.950  -6.235  10.000  0.00  0.00    +0.047 C 
ATOM     15  C   UNL     1     -10.332  -4.070   9.014  0.00  0.00    +0.161 C 
ATOM     16  C   UNL     1     -10.656  -6.410   9.212  0.00  0.00    +0.161 C 
ENDBRANCH   4   8
ENDBRANCH  17   9
TORSDOF 5
ENDMDL
MODEL 6
REMARK VINA RESULT:      -6.3      1.443      2.058
REMARK  Name = 45783588
REMARK  5 active torsions:
REMARK  status: ('A' for Active; 'I' for Inactive)
REMARK    1  A    between atoms: O_3  and  C_18
REMARK    2  A    between atoms: O_3  and  C_26
REMARK    3  A    between atoms: N_4  and  C_8
REMARK    4  A    between atoms: C_9  and  C_17
REMARK    5  A    between atoms: C_24  and  C_25
REMARK                            x       y       z     vdW  Elec       q    Type
REMARK                         _______ _______ _______ _____ _____    ______ ____
ROOT
ATOM      2  O   UNL     1     -17.144   4.377  25.872  0.00  0.00    -0.336 OA
ATOM      5  N   UNL     1     -15.456   3.632  24.604  0.00  0.00    -0.190 NA
ATOM      6  N   UNL     1     -16.965   5.332  24.862  0.00  0.00    -0.056 NA
ATOM     17  C   UNL     1     -16.216   3.411  25.646  0.00  0.00    +0.245 A 
ATOM     24  C   UNL     1     -15.953   4.821  24.155  0.00  0.00    +0.204 A 
ENDROOT
BRANCH  24  25
ATOM      7  N   UNL     1     -15.782   6.837  21.036  0.00  0.00    -0.221 NA
ATOM     25  C   UNL     1     -15.414   5.475  22.999  0.00  0.00    +0.041 A 
ATOM     26  C   UNL     1     -14.459   6.741  20.779  0.00  0.00    +0.215 A 
ATOM     27  C   UNL     1     -14.058   5.400  22.701  0.00  0.00    +0.018 A 
ATOM     28  C   UNL     1     -13.563   6.041  21.572  0.00  0.00    +0.068 A 
ATOM     29  C   UNL     1     -16.227   6.199  22.142  0.00  0.00    +0.126 A 
BRANCH  26   3
ATOM      3  O   UNL     1     -13.995   7.382  19.661  0.00  0.00    -0.473 OA
BRANCH   3  18
ATOM     18  C   UNL     1     -12.644   7.828  19.694  0.00  0.00    +0.175 C 
ATOM     19  C   UNL     1     -12.028   7.706  18.301  0.00  0.00    +0.044 C 
ATOM     20  C   UNL     1     -12.590   9.266  20.208  0.00  0.00    +0.044 C 
ATOM     21  C   UNL     1     -10.609   8.263  18.262  0.00  0.00    +0.004 C 
ATOM     22  C   UNL     1     -11.171   9.824  20.169  0.00  0.00    +0.004 C 
ATOM     23  C   UNL     1     -10.556   9.699  18.777  0.00  0.00    +0.000 C 
ENDBRANCH   3  18
ENDBRANCH  26   3
ENDBRANCH  24  25
BRANCH  17   9
ATOM      4  N   UNL     1     -16.976   2.523  27.842  0.00  0.00    -0.288 NA
ATOM      9  C   UNL     1     -16.204   2.247  26.615  0.00  0.00    +0.146 C 
ATOM     10  C   UNL     1     -17.478   1.231  28.313  0.00  0.00    +0.085 C 
ATOM     11  C   UNL     1     -16.844   0.976  26.026  0.00  0.00    +0.030 C 
ATOM     12  C   UNL     1     -17.925   0.578  27.021  0.00  0.00    +0.017 C 
BRANCH   4   8
ATOM      1  O   UNL     1     -15.119   3.260  31.535  0.00  0.00    -0.380 OA
ATOM      8  C   UNL     1     -16.201   3.218  28.867  0.00  0.00    +0.062 C 
ATOM     13  C   UNL     1     -14.961   2.410  29.263  0.00  0.00    +0.047 C 
ATOM     14  C   UNL     1     -17.069   3.485  30.100  0.00  0.00    +0.047 C 
ATOM     15  C   UNL     1     -14.239   3.084  30.425  0.00  0.00    +0.161 C 
ATOM     16  C   UNL     1     -16.230   4.099  31.216  0.00  0.00    +0.161 C 
ENDBRANCH   4   8
ENDBRANCH  17   9
TORSDOF 5
ENDMDL
MODEL 7
REMARK VINA RESULT:      -6.3     21.599     24.857
REMARK  Name = 45783588
REMARK  5 active torsions:
REMARK  status: ('A' for Active; 'I' for Inactive)
REMARK    1  A    between atoms: O_3  and  C_18
REMARK    2  A    between atoms: O_3  and  C_26
REMARK    3  A    between atoms: N_4  and  C_8
REMARK    4  A    between atoms: C_9  and  C_17
REMARK    5  A    between atoms: C_24  and  C_25
REMARK                            x       y       z     vdW  Elec       q    Type
REMARK                         _______ _______ _______ _____ _____    ______ ____
ROOT
ATOM      2  O   UNL     1      -6.446 -11.259   5.816  0.00  0.00    -0.336 OA
ATOM      5  N   UNL     1      -6.369  -9.534   7.241  0.00  0.00    -0.190 NA
ATOM      6  N   UNL     1      -5.462 -11.578   6.761  0.00  0.00    -0.056 NA
ATOM     17  C   UNL     1      -6.929 -10.041   6.172  0.00  0.00    +0.245 A 
ATOM     24  C   UNL     1      -5.477 -10.513   7.567  0.00  0.00    +0.204 A 
ENDROOT
BRANCH  24  25
ATOM      7  N   UNL     1      -3.371 -11.472  10.477  0.00  0.00    -0.221 NA
ATOM     25  C   UNL     1      -4.611 -10.395   8.704  0.00  0.00    +0.041 A 
ATOM     26  C   UNL     1      -2.968 -10.246  10.877  0.00  0.00    +0.215 A 
ATOM     27  C   UNL     1      -4.175  -9.151   9.145  0.00  0.00    +0.018 A 
ATOM     28  C   UNL     1      -3.338  -9.066  10.252  0.00  0.00    +0.068 A 
ATOM     29  C   UNL     1      -4.185 -11.515   9.398  0.00  0.00    +0.126 A 
BRANCH  26   3
ATOM      3  O   UNL     1      -2.143 -10.188  11.969  0.00  0.00    -0.473 OA
BRANCH   3  18
ATOM     18  C   UNL     1      -2.611 -10.816  13.158  0.00  0.00    +0.175 C 
ATOM     19  C   UNL     1      -1.735 -10.399  14.338  0.00  0.00    +0.044 C 
ATOM     20  C   UNL     1      -4.077 -10.450  13.388  0.00  0.00    +0.044 C 
ATOM     21  C   UNL     1      -2.255 -10.970  15.653  0.00  0.00    +0.004 C 
ATOM     22  C   UNL     1      -4.598 -11.020  14.704  0.00  0.00    +0.004 C 
ATOM     23  C   UNL     1      -3.720 -10.605  15.882  0.00  0.00    +0.000 C 
ENDBRANCH   3  18
ENDBRANCH  26   3
ENDBRANCH  24  25
BRANCH  17   9
ATOM      4  N   UNL     1      -8.166  -8.005   5.454  0.00  0.00    -0.288 NA
ATOM      9  C   UNL     1      -8.022  -9.466   5.295  0.00  0.00    +0.146 C 
ATOM     10  C   UNL     1      -8.658  -7.497   4.173  0.00  0.00    +0.085 C 
ATOM     11  C   UNL     1      -7.749  -9.671   3.794  0.00  0.00    +0.030 C 
ATOM     12  C   UNL     1      -7.819  -8.279   3.182  0.00  0.00    +0.017 C 
BRANCH   4   8
ATOM      1  O   UNL     1     -10.547  -5.597   7.935  0.00  0.00    -0.380 OA
ATOM      8  C   UNL     1      -9.037  -7.629   6.565  0.00  0.00    +0.062 C 
ATOM     13  C   UNL     1     -10.394  -7.132   6.058  0.00  0.00    +0.047 C 
ATOM     14  C   UNL     1      -8.370  -6.549   7.422  0.00  0.00    +0.047 C 
ATOM     15  C   UNL     1     -11.239  -6.620   7.219  0.00  0.00    +0.161 C 
ATOM     16  C   UNL     1      -9.327  -6.069   8.508  0.00  0.00    +0.161 C 
ENDBRANCH   4   8
ENDBRANCH  17   9
TORSDOF 5
ENDMDL
MODEL 8
REMARK VINA RESULT:      -6.3     30.319     34.624
REMARK  Name = 45783588
REMARK  5 active torsions:
REMARK  status: ('A' for Active; 'I' for Inactive)
REMARK    1  A    between atoms: O_3  and  C_18
REMARK    2  A    between atoms: O_3  and  C_26
REMARK    3  A    between atoms: N_4  and  C_8
REMARK    4  A    between atoms: C_9  and  C_17
REMARK    5  A    between atoms: C_24  and  C_25
REMARK                            x       y       z     vdW  Elec       q    Type
REMARK                         _______ _______ _______ _____ _____    ______ ____
ROOT
ATOM      2  O   UNL     1      10.054   4.620   5.653  0.00  0.00    -0.336 OA
ATOM      5  N   UNL     1      11.041   5.974   4.167  0.00  0.00    -0.190 NA
ATOM      6  N   UNL     1      10.201   3.869   4.479  0.00  0.00    -0.056 NA
ATOM     17  C   UNL     1      10.574   5.846   5.383  0.00  0.00    +0.245 A 
ATOM     24  C   UNL     1      10.791   4.735   3.651  0.00  0.00    +0.204 A 
ENDROOT
BRANCH  24  25
ATOM      7  N   UNL     1      10.493   4.231  -0.020  0.00  0.00    -0.221 NA
ATOM     25  C   UNL     1      11.141   4.397   2.303  0.00  0.00    +0.041 A 
ATOM     26  C   UNL     1      11.736   3.770  -0.285  0.00  0.00    +0.215 A 
ATOM     27  C   UNL     1      12.409   3.920   1.990  0.00  0.00    +0.018 A 
ATOM     28  C   UNL     1      12.720   3.598   0.674  0.00  0.00    +0.068 A 
ATOM     29  C   UNL     1      10.227   4.532   1.271  0.00  0.00    +0.126 A 
BRANCH  26   3
ATOM      3  O   UNL     1      12.018   3.460  -1.589  0.00  0.00    -0.473 OA
BRANCH   3  18
ATOM     18  C   UNL     1      10.928   3.493  -2.505  0.00  0.00    +0.175 C 
ATOM     19  C   UNL     1      11.333   4.269  -3.757  0.00  0.00    +0.044 C 
ATOM     20  C   UNL     1      10.499   2.066  -2.842  0.00  0.00    +0.044 C 
ATOM     21  C   UNL     1      10.230   4.250  -4.810  0.00  0.00    +0.004 C 
ATOM     22  C   UNL     1       9.397   2.045  -3.896  0.00  0.00    +0.004 C 
ATOM     23  C   UNL     1       9.801   2.824  -5.146  0.00  0.00    +0.000 C 
ENDBRANCH   3  18
ENDBRANCH  26   3
ENDBRANCH  24  25
BRANCH  17   9
ATOM      4  N   UNL     1       9.461   7.856   6.337  0.00  0.00    -0.288 NA
ATOM      9  C   UNL     1      10.535   6.858   6.509  0.00  0.00    +0.146 C 
ATOM     10  C   UNL     1       9.066   8.274   7.683  0.00  0.00    +0.085 C 
ATOM     11  C   UNL     1      10.254   6.213   7.879  0.00  0.00    +0.030 C 
ATOM     12  C   UNL     1       9.042   6.954   8.427  0.00  0.00    +0.017 C 
BRANCH   4   8
ATOM      1  O   UNL     1      10.624  11.757   5.310  0.00  0.00    -0.380 OA
ATOM      8  C   UNL     1       9.855   8.989   5.504  0.00  0.00    +0.062 C 
ATOM     13  C   UNL     1      11.260   9.479   5.868  0.00  0.00    +0.047 C 
ATOM     14  C   UNL     1       8.847  10.133   5.650  0.00  0.00    +0.047 C 
ATOM     15  C   UNL     1      11.601  10.741   5.084  0.00  0.00    +0.161 C 
ATOM     16  C   UNL     1       9.322  11.360   4.879  0.00  0.00    +0.161 C 
ENDBRANCH   4   8
ENDBRANCH  17   9
TORSDOF 5
ENDMDL
MODEL 9
REMARK VINA RESULT:      -6.0     42.707     45.201
REMARK  Name = 45783588
REMARK  5 active torsions:
REMARK  status: ('A' for Active; 'I' for Inactive)
REMARK    1  A    between atoms: O_3  and  C_18
REMARK    2  A    between atoms: O_3  and  C_26
REMARK    3  A    between atoms: N_4  and  C_8
REMARK    4  A    between atoms: C_9  and  C_17
REMARK    5  A    between atoms: C_24  and  C_25
REMARK                            x       y       z     vdW  Elec       q    Type
REMARK                         _______ _______ _______ _____ _____    ______ ____
ROOT
ATOM      2  O   UNL     1      17.564  -4.088  -3.408  0.00  0.00    -0.336 OA
ATOM      5  N   UNL     1      17.627  -6.028  -2.290  0.00  0.00    -0.190 NA
ATOM      6  N   UNL     1      18.639  -3.989  -2.514  0.00  0.00    -0.056 NA
ATOM     17  C   UNL     1      17.024  -5.319  -3.211  0.00  0.00    +0.245 A 
ATOM     24  C   UNL     1      18.611  -5.171  -1.893  0.00  0.00    +0.204 A 
ENDROOT
BRANCH  24  25
ATOM      7  N   UNL     1      21.418  -6.887  -0.160  0.00  0.00    -0.221 NA
ATOM     25  C   UNL     1      19.550  -5.526  -0.869  0.00  0.00    +0.041 A 
ATOM     26  C   UNL     1      21.365  -6.254   1.033  0.00  0.00    +0.215 A 
ATOM     27  C   UNL     1      19.529  -4.897   0.371  0.00  0.00    +0.018 A 
ATOM     28  C   UNL     1      20.450  -5.263   1.346  0.00  0.00    +0.068 A 
ATOM     29  C   UNL     1      20.506  -6.505  -1.083  0.00  0.00    +0.126 A 
BRANCH  26   3
ATOM      3  O   UNL     1      22.284  -6.631   1.976  0.00  0.00    -0.473 OA
BRANCH   3  18
ATOM     18  C   UNL     1      21.802  -7.424   3.057  0.00  0.00    +0.175 C 
ATOM     19  C   UNL     1      22.216  -8.880   2.850  0.00  0.00    +0.044 C 
ATOM     20  C   UNL     1      22.335  -6.870   4.377  0.00  0.00    +0.044 C 
ATOM     21  C   UNL     1      21.806  -9.754   4.031  0.00  0.00    +0.004 C 
ATOM     22  C   UNL     1      21.927  -7.744   5.559  0.00  0.00    +0.004 C 
ATOM     23  C   UNL     1      22.338  -9.199   5.350  0.00  0.00    +0.000 C 
ENDBRANCH   3  18
ENDBRANCH  26   3
ENDBRANCH  24  25
BRANCH  17   9
ATOM      4  N   UNL     1      15.556  -7.127  -4.086  0.00  0.00    -0.288 NA
ATOM      9  C   UNL     1      15.829  -5.677  -4.070  0.00  0.00    +0.146 C 
ATOM     10  C   UNL     1      14.115  -7.275  -4.294  0.00  0.00    +0.085 C 
ATOM     11  C   UNL     1      14.521  -5.039  -3.565  0.00  0.00    +0.030 C 
ATOM     12  C   UNL     1      13.555  -6.202  -3.383  0.00  0.00    +0.017 C 
BRANCH   4   8
ATOM      1  O   UNL     1      16.831 -10.285  -6.543  0.00  0.00    -0.380 OA
ATOM      8  C   UNL     1      16.333  -7.848  -5.093  0.00  0.00    +0.062 C 
ATOM     13  C   UNL     1      15.443  -8.312  -6.249  0.00  0.00    +0.047 C 
ATOM     14  C   UNL     1      17.038  -9.051  -4.458  0.00  0.00    +0.047 C 
ATOM     15  C   UNL     1      16.241  -9.175  -7.220  0.00  0.00    +0.161 C 
ATOM     16  C   UNL     1      17.748  -9.873  -5.529  0.00  0.00    +0.161 C 
ENDBRANCH   4   8
ENDBRANCH  17   9
TORSDOF 5
ENDMDL
MODEL 10
REMARK VINA RESULT:      -6.0     36.186     38.432
REMARK  Name = 45783588
REMARK  5 active torsions:
REMARK  status: ('A' for Active; 'I' for Inactive)
REMARK    1  A    between atoms: O_3  and  C_18
REMARK    2  A    between atoms: O_3  and  C_26
REMARK    3  A    between atoms: N_4  and  C_8
REMARK    4  A    between atoms: C_9  and  C_17
REMARK    5  A    between atoms: C_24  and  C_25
REMARK                            x       y       z     vdW  Elec       q    Type
REMARK                         _______ _______ _______ _____ _____    ______ ____
ROOT
ATOM      2  O   UNL     1      23.176  -9.521  22.632  0.00  0.00    -0.336 OA
ATOM      5  N   UNL     1      21.526  -8.837  21.280  0.00  0.00    -0.190 NA
ATOM      6  N   UNL     1      22.400  -8.629  23.384  0.00  0.00    -0.056 NA
ATOM     17  C   UNL     1      22.592  -9.587  21.407  0.00  0.00    +0.245 A 
ATOM     24  C   UNL     1      21.448  -8.270  22.519  0.00  0.00    +0.204 A 
ENDROOT
BRANCH  24  25
ATOM      7  N   UNL     1      18.853  -6.497  24.504  0.00  0.00    -0.221 NA
ATOM     25  C   UNL     1      20.407  -7.345  22.858  0.00  0.00    +0.041 A 
ATOM     26  C   UNL     1      18.421  -5.616  23.574  0.00  0.00    +0.215 A 
ATOM     27  C   UNL     1      19.937  -6.423  21.930  0.00  0.00    +0.018 A 
ATOM     28  C   UNL     1      18.925  -5.539  22.286  0.00  0.00    +0.068 A 
ATOM     29  C   UNL     1      19.837  -7.341  24.121  0.00  0.00    +0.126 A 
BRANCH  26   3
ATOM      3  O   UNL     1      17.424  -4.755  23.950  0.00  0.00    -0.473 OA
BRANCH   3  18
ATOM     18  C   UNL     1      17.616  -3.379  23.637  0.00  0.00    +0.175 C 
ATOM     19  C   UNL     1      16.316  -2.792  23.089  0.00  0.00    +0.044 C 
ATOM     20  C   UNL     1      18.090  -2.631  24.882  0.00  0.00    +0.044 C 
ATOM     21  C   UNL     1      16.442  -1.294  22.829  0.00  0.00    +0.004 C 
ATOM     22  C   UNL     1      18.216  -1.133  24.623  0.00  0.00    +0.004 C 
ATOM     23  C   UNL     1      16.918  -0.547  24.073  0.00  0.00    +0.000 C 
ENDBRANCH   3  18
ENDBRANCH  26   3
ENDBRANCH  24  25
BRANCH  17   9
ATOM      4  N   UNL     1      22.406 -10.730  19.205  0.00  0.00    -0.288 NA
ATOM      9  C   UNL     1      23.250 -10.501  20.394  0.00  0.00    +0.146 C 
ATOM     10  C   UNL     1      23.321 -10.971  18.089  0.00  0.00    +0.085 C 
ATOM     11  C   UNL     1      24.563  -9.922  19.836  0.00  0.00    +0.030 C 
ATOM     12  C   UNL     1      24.387  -9.920  18.324  0.00  0.00    +0.017 C 
BRANCH   4   8
ATOM      1  O   UNL     1      20.538 -14.443  18.613  0.00  0.00    -0.380 OA
ATOM      8  C   UNL     1      21.451 -11.822  19.378  0.00  0.00    +0.062 C 
ATOM     13  C   UNL     1      22.154 -13.102  19.836  0.00  0.00    +0.047 C 
ATOM     14  C   UNL     1      20.694 -12.078  18.071  0.00  0.00    +0.047 C 
ATOM     15  C   UNL     1      21.167 -14.263  19.882  0.00  0.00    +0.161 C 
ATOM     16  C   UNL     1      19.787 -13.296  18.214  0.00  0.00    +0.161 C 
ENDBRANCH   4   8
ENDBRANCH  17   9
TORSDOF 5
ENDMDL
