MODEL 1
REMARK VINA RESULT:      -6.0      0.000      0.000
REMARK  Name = 7663579
REMARK  8 active torsions:
REMARK  status: ('A' for Active; 'I' for Inactive)
REMARK    1  A    between atoms: O_4  and  C_27
REMARK    2  A    between atoms: O_4  and  C_32
REMARK    3  A    between atoms: N_7  and  C_11
REMARK    4  A    between atoms: N_9  and  C_24
REMARK    5  A    between atoms: C_17  and  C_22
REMARK    6  A    between atoms: C_23  and  C_25
REMARK    7  A    between atoms: C_24  and  C_26
REMARK    8  A    between atoms: C_24  and  C_27
REMARK                            x       y       z     vdW  Elec       q    Type
REMARK                         _______ _______ _______ _____ _____    ______ ____
ROOT
ATOM      1  O   UNL     1      -5.967 -10.329  11.506  0.00  0.00    -0.253 OA
ATOM      3  O   UNL     1     -10.860 -10.714  16.963  0.00  0.00    -0.270 OA
ATOM      6  N   UNL     1      -7.121 -10.662  13.497  0.00  0.00    -0.271 N 
ATOM      7  N   UNL     1      -4.958 -11.560  13.163  0.00  0.00    -0.296 N 
ATOM      8  N   UNL     1      -9.445 -10.163  15.187  0.00  0.00    -0.294 N 
ATOM     17  C   UNL     1      -7.289 -11.357  14.781  0.00  0.00    +0.181 C 
ATOM     18  C   UNL     1      -8.751 -11.453  15.221  0.00  0.00    +0.140 C 
ATOM     19  C   UNL     1      -8.267  -9.886  13.015  0.00  0.00    +0.129 C 
ATOM     20  C   UNL     1      -9.029  -9.213  14.148  0.00  0.00    +0.127 C 
ATOM     21  C   UNL     1      -6.011 -10.817  12.639  0.00  0.00    +0.303 C 
ATOM     23  C   UNL     1     -10.493  -9.935  16.086  0.00  0.00    +0.248 C 
ATOM     33  H   UNL     1      -4.975 -11.843  14.135  0.00  0.00    +0.151 HD
ENDROOT
BRANCH  23  25
ATOM     10  N   UNL     1     -13.158  -7.453  15.200  0.00  0.00    -0.263 NA
ATOM     25  C   UNL     1     -11.224  -8.662  15.987  0.00  0.00    +0.055 A 
ATOM     28  C   UNL     1     -10.713  -7.503  16.553  0.00  0.00    +0.016 A 
ATOM     29  C   UNL     1     -12.436  -8.590  15.327  0.00  0.00    +0.123 A 
ATOM     30  C   UNL     1     -11.426  -6.315  16.444  0.00  0.00    +0.020 A 
ATOM     31  C   UNL     1     -12.633  -6.343  15.763  0.00  0.00    +0.111 A 
ENDBRANCH  23  25
BRANCH   7  11
ATOM     11  C   UNL     1      -3.745 -11.808  12.416  0.00  0.00    +0.074 C 
ATOM     12  C   UNL     1      -3.164 -13.185  12.749  0.00  0.00    +0.022 C 
ATOM     13  C   UNL     1      -2.716 -10.698  12.653  0.00  0.00    +0.022 C 
ATOM     14  C   UNL     1      -2.553 -13.239  14.150  0.00  0.00    +0.002 C 
ATOM     15  C   UNL     1      -2.106 -10.755  14.053  0.00  0.00    +0.002 C 
ATOM     16  C   UNL     1      -1.523 -12.132  14.358  0.00  0.00    +0.000 C 
ENDBRANCH   7  11
BRANCH  17  22
ATOM      2  O   UNL     1      -5.866  -9.591  15.533  0.00  0.00    -0.274 OA
ATOM      9  N   UNL     1      -6.549 -11.212  17.057  0.00  0.00    -0.301 N 
ATOM     22  C   UNL     1      -6.494 -10.608  15.813  0.00  0.00    +0.236 C 
ATOM     34  H   UNL     1      -7.164 -12.011  17.190  0.00  0.00    +0.150 HD
BRANCH   9  24
ATOM     24  C   UNL     1      -5.851 -10.702  18.215  0.00  0.00    +0.179 C 
ATOM     26  C   UNL     1      -4.521 -11.420  18.389  0.00  0.00    +0.040 C 
BRANCH  24  27
ATOM      5  O   UNL     1      -6.188 -10.929  20.595  0.00  0.00    -0.249 OA
ATOM     27  C   UNL     1      -6.687 -10.824  19.480  0.00  0.00    +0.327 C 
BRANCH  27   4
ATOM      4  O   UNL     1      -8.025 -10.792  19.220  0.00  0.00    -0.467 OA
ATOM     32  C   UNL     1      -8.789 -11.877  19.758  0.00  0.00    +0.280 C 
ENDBRANCH  27   4
ENDBRANCH  24  27
ENDBRANCH   9  24
ENDBRANCH  17  22
TORSDOF 6
ENDMDL
MODEL 2
REMARK VINA RESULT:      -5.9      3.390      7.656
REMARK  Name = 7663579
REMARK  8 active torsions:
REMARK  status: ('A' for Active; 'I' for Inactive)
REMARK    1  A    between atoms: O_4  and  C_27
REMARK    2  A    between atoms: O_4  and  C_32
REMARK    3  A    between atoms: N_7  and  C_11
REMARK    4  A    between atoms: N_9  and  C_24
REMARK    5  A    between atoms: C_17  and  C_22
REMARK    6  A    between atoms: C_23  and  C_25
REMARK    7  A    between atoms: C_24  and  C_26
REMARK    8  A    between atoms: C_24  and  C_27
REMARK                            x       y       z     vdW  Elec       q    Type
REMARK                         _______ _______ _______ _____ _____    ______ ____
ROOT
ATOM      1  O   UNL     1      -9.849 -10.020  13.179  0.00  0.00    -0.253 OA
ATOM      3  O   UNL     1      -3.797  -8.841   9.198  0.00  0.00    -0.270 OA
ATOM      6  N   UNL     1      -7.698  -9.648  12.381  0.00  0.00    -0.271 N 
ATOM      7  N   UNL     1      -8.183  -9.570  14.695  0.00  0.00    -0.296 N 
ATOM      8  N   UNL     1      -5.803  -9.547  10.166  0.00  0.00    -0.294 N 
ATOM     17  C   UNL     1      -6.317  -9.183  12.583  0.00  0.00    +0.181 C 
ATOM     18  C   UNL     1      -5.680  -8.635  11.305  0.00  0.00    +0.140 C 
ATOM     19  C   UNL     1      -8.129  -9.843  10.994  0.00  0.00    +0.129 C 
ATOM     20  C   UNL     1      -7.011 -10.380  10.110  0.00  0.00    +0.127 C 
ATOM     21  C   UNL     1      -8.663  -9.763  13.403  0.00  0.00    +0.303 C 
ATOM     23  C   UNL     1      -4.816  -9.529   9.175  0.00  0.00    +0.248 C 
ATOM     33  H   UNL     1      -7.187  -9.481  14.855  0.00  0.00    +0.151 HD
ENDROOT
BRANCH  23  25
ATOM     10  N   UNL     1      -4.646 -12.548   6.961  0.00  0.00    -0.263 NA
ATOM     25  C   UNL     1      -4.996 -10.401   8.003  0.00  0.00    +0.055 A 
ATOM     28  C   UNL     1      -5.652  -9.943   6.870  0.00  0.00    +0.016 A 
ATOM     29  C   UNL     1      -4.515 -11.696   8.003  0.00  0.00    +0.123 A 
ATOM     30  C   UNL     1      -5.808 -10.789   5.779  0.00  0.00    +0.020 A 
ATOM     31  C   UNL     1      -5.291 -12.071   5.873  0.00  0.00    +0.111 A 
ENDBRANCH  23  25
BRANCH   7  11
ATOM     11  C   UNL     1      -9.041  -9.658  15.856  0.00  0.00    +0.074 C 
ATOM     12  C   UNL     1      -8.449  -8.887  17.040  0.00  0.00    +0.022 C 
ATOM     13  C   UNL     1      -9.318 -11.119  16.226  0.00  0.00    +0.022 C 
ATOM     14  C   UNL     1      -7.226  -9.584  17.638  0.00  0.00    +0.002 C 
ATOM     15  C   UNL     1      -8.094 -11.812  16.825  0.00  0.00    +0.002 C 
ATOM     16  C   UNL     1      -7.529 -11.033  18.009  0.00  0.00    +0.000 C 
ENDBRANCH   7  11
BRANCH  17  22
ATOM      2  O   UNL     1      -5.710 -11.492  12.698  0.00  0.00    -0.274 OA
ATOM      9  N   UNL     1      -4.585  -9.964  14.045  0.00  0.00    -0.301 N 
ATOM     22  C   UNL     1      -5.515 -10.346  13.094  0.00  0.00    +0.236 C 
ATOM     34  H   UNL     1      -4.459  -8.974  14.241  0.00  0.00    +0.150 HD
BRANCH   9  24
ATOM     24  C   UNL     1      -3.704 -10.897  14.709  0.00  0.00    +0.179 C 
ATOM     26  C   UNL     1      -3.772 -10.707  16.217  0.00  0.00    +0.040 C 
BRANCH  24  27
ATOM      5  O   UNL     1      -1.394 -10.212  14.886  0.00  0.00    -0.249 OA
ATOM     27  C   UNL     1      -2.268 -10.763  14.224  0.00  0.00    +0.327 C 
BRANCH  27   4
ATOM      4  O   UNL     1      -2.083 -11.327  12.998  0.00  0.00    -0.467 OA
ATOM     32  C   UNL     1      -1.870 -10.411  11.917  0.00  0.00    +0.280 C 
ENDBRANCH  27   4
ENDBRANCH  24  27
ENDBRANCH   9  24
ENDBRANCH  17  22
TORSDOF 6
ENDMDL
MODEL 3
REMARK VINA RESULT:      -5.9      3.233      7.448
REMARK  Name = 7663579
REMARK  8 active torsions:
REMARK  status: ('A' for Active; 'I' for Inactive)
REMARK    1  A    between atoms: O_4  and  C_27
REMARK    2  A    between atoms: O_4  and  C_32
REMARK    3  A    between atoms: N_7  and  C_11
REMARK    4  A    between atoms: N_9  and  C_24
REMARK    5  A    between atoms: C_17  and  C_22
REMARK    6  A    between atoms: C_23  and  C_25
REMARK    7  A    between atoms: C_24  and  C_26
REMARK    8  A    between atoms: C_24  and  C_27
REMARK                            x       y       z     vdW  Elec       q    Type
REMARK                         _______ _______ _______ _____ _____    ______ ____
ROOT
ATOM      1  O   UNL     1      -9.174 -11.618  14.400  0.00  0.00    -0.253 OA
ATOM      3  O   UNL     1      -3.852  -8.752  10.237  0.00  0.00    -0.270 OA
ATOM      6  N   UNL     1      -7.220 -10.709  13.526  0.00  0.00    -0.271 N 
ATOM      7  N   UNL     1      -7.515 -10.982  15.857  0.00  0.00    -0.296 N 
ATOM      8  N   UNL     1      -5.580  -9.971  11.231  0.00  0.00    -0.294 N 
ATOM     17  C   UNL     1      -5.954  -9.983  13.700  0.00  0.00    +0.181 C 
ATOM     18  C   UNL     1      -5.553  -9.179  12.462  0.00  0.00    +0.140 C 
ATOM     19  C   UNL     1      -7.717 -10.846  12.154  0.00  0.00    +0.129 C 
ATOM     20  C   UNL     1      -6.590 -11.033  11.147  0.00  0.00    +0.127 C 
ATOM     21  C   UNL     1      -8.052 -11.137  14.583  0.00  0.00    +0.303 C 
ATOM     23  C   UNL     1      -4.704  -9.636  10.192  0.00  0.00    +0.248 C 
ATOM     33  H   UNL     1      -6.550 -10.699  15.967  0.00  0.00    +0.151 HD
ENDROOT
BRANCH  23  25
ATOM     10  N   UNL     1      -5.534 -10.502   6.641  0.00  0.00    -0.263 NA
ATOM     25  C   UNL     1      -4.798 -10.398   8.936  0.00  0.00    +0.055 A 
ATOM     28  C   UNL     1      -4.270 -11.677   8.839  0.00  0.00    +0.016 A 
ATOM     29  C   UNL     1      -5.414  -9.857   7.824  0.00  0.00    +0.123 A 
ATOM     30  C   UNL     1      -4.372 -12.372   7.640  0.00  0.00    +0.020 A 
ATOM     31  C   UNL     1      -5.009 -11.746   6.580  0.00  0.00    +0.111 A 
ENDBRANCH  23  25
BRANCH   7  11
ATOM     11  C   UNL     1      -8.237 -11.375  17.048  0.00  0.00    +0.074 C 
ATOM     12  C   UNL     1      -8.044 -10.352  18.172  0.00  0.00    +0.022 C 
ATOM     13  C   UNL     1      -7.828 -12.781  17.500  0.00  0.00    +0.022 C 
ATOM     14  C   UNL     1      -6.635 -10.394  18.765  0.00  0.00    +0.002 C 
ATOM     15  C   UNL     1      -6.421 -12.819  18.094  0.00  0.00    +0.002 C 
ATOM     16  C   UNL     1      -6.256 -11.800  19.219  0.00  0.00    +0.000 C 
ENDBRANCH   7  11
BRANCH  17  22
ATOM      2  O   UNL     1      -5.152 -12.182  14.187  0.00  0.00    -0.274 OA
ATOM      9  N   UNL     1      -3.632 -10.419  14.112  0.00  0.00    -0.301 N 
ATOM     22  C   UNL     1      -4.888 -10.994  14.018  0.00  0.00    +0.236 C 
ATOM     34  H   UNL     1      -3.521  -9.437  13.878  0.00  0.00    +0.150 HD
BRANCH   9  24
ATOM     24  C   UNL     1      -2.441 -11.172  14.431  0.00  0.00    +0.179 C 
ATOM     26  C   UNL     1      -1.431 -10.286  15.145  0.00  0.00    +0.040 C 
BRANCH  24  27
ATOM      5  O   UNL     1      -1.854 -11.256  12.090  0.00  0.00    -0.249 OA
ATOM     27  C   UNL     1      -1.815 -11.794  13.192  0.00  0.00    +0.327 C 
BRANCH  27   4
ATOM      4  O   UNL     1      -1.216 -12.988  13.460  0.00  0.00    -0.467 OA
ATOM     32  C   UNL     1      -2.063 -13.999  14.018  0.00  0.00    +0.280 C 
ENDBRANCH  27   4
ENDBRANCH  24  27
ENDBRANCH   9  24
ENDBRANCH  17  22
TORSDOF 6
ENDMDL
MODEL 4
REMARK VINA RESULT:      -5.5      2.446      5.703
REMARK  Name = 7663579
REMARK  8 active torsions:
REMARK  status: ('A' for Active; 'I' for Inactive)
REMARK    1  A    between atoms: O_4  and  C_27
REMARK    2  A    between atoms: O_4  and  C_32
REMARK    3  A    between atoms: N_7  and  C_11
REMARK    4  A    between atoms: N_9  and  C_24
REMARK    5  A    between atoms: C_17  and  C_22
REMARK    6  A    between atoms: C_23  and  C_25
REMARK    7  A    between atoms: C_24  and  C_26
REMARK    8  A    between atoms: C_24  and  C_27
REMARK                            x       y       z     vdW  Elec       q    Type
REMARK                         _______ _______ _______ _____ _____    ______ ____
ROOT
ATOM      1  O   UNL     1     -10.083 -10.842  19.875  0.00  0.00    -0.253 OA
ATOM      3  O   UNL     1     -11.505  -5.984  14.559  0.00  0.00    -0.270 OA
ATOM      6  N   UNL     1     -10.055  -9.427  18.030  0.00  0.00    -0.271 N 
ATOM      7  N   UNL     1      -8.104 -10.557  18.744  0.00  0.00    -0.296 N 
ATOM      8  N   UNL     1     -11.459  -7.699  16.146  0.00  0.00    -0.294 N 
ATOM     17  C   UNL     1      -9.322  -8.649  17.021  0.00  0.00    +0.181 C 
ATOM     18  C   UNL     1     -10.084  -7.407  16.556  0.00  0.00    +0.140 C 
ATOM     19  C   UNL     1     -11.482  -9.126  18.182  0.00  0.00    +0.129 C 
ATOM     20  C   UNL     1     -12.147  -8.786  16.856  0.00  0.00    +0.127 C 
ATOM     21  C   UNL     1      -9.458 -10.314  18.951  0.00  0.00    +0.303 C 
ATOM     23  C   UNL     1     -12.058  -6.899  15.166  0.00  0.00    +0.248 C 
ATOM     33  H   UNL     1      -7.650 -10.205  17.910  0.00  0.00    +0.151 HD
ENDROOT
BRANCH  23  25
ATOM     10  N   UNL     1     -15.061  -8.297  13.413  0.00  0.00    -0.263 NA
ATOM     25  C   UNL     1     -13.464  -7.164  14.822  0.00  0.00    +0.055 A 
ATOM     28  C   UNL     1     -14.495  -6.567  15.533  0.00  0.00    +0.016 A 
ATOM     29  C   UNL     1     -13.791  -8.012  13.781  0.00  0.00    +0.123 A 
ATOM     30  C   UNL     1     -15.813  -6.836  15.186  0.00  0.00    +0.020 A 
ATOM     31  C   UNL     1     -16.041  -7.700  14.127  0.00  0.00    +0.111 A 
ENDBRANCH  23  25
BRANCH   7  11
ATOM     11  C   UNL     1      -7.343 -11.445  19.595  0.00  0.00    +0.074 C 
ATOM     12  C   UNL     1      -5.924 -10.913  19.818  0.00  0.00    +0.022 C 
ATOM     13  C   UNL     1      -7.321 -12.867  19.027  0.00  0.00    +0.022 C 
ATOM     14  C   UNL     1      -5.051 -11.034  18.569  0.00  0.00    +0.002 C 
ATOM     15  C   UNL     1      -6.446 -12.985  17.779  0.00  0.00    +0.002 C 
ATOM     16  C   UNL     1      -5.034 -12.460  18.029  0.00  0.00    +0.000 C 
ENDBRANCH   7  11
BRANCH  17  22
ATOM      2  O   UNL     1      -9.941 -10.252  15.359  0.00  0.00    -0.274 OA
ATOM      9  N   UNL     1      -7.736  -9.507  15.441  0.00  0.00    -0.301 N 
ATOM     22  C   UNL     1      -9.057  -9.553  15.851  0.00  0.00    +0.236 C 
ATOM     34  H   UNL     1      -7.109  -8.835  15.874  0.00  0.00    +0.150 HD
BRANCH   9  24
ATOM     24  C   UNL     1      -7.219 -10.301  14.350  0.00  0.00    +0.179 C 
ATOM     26  C   UNL     1      -5.792 -10.738  14.643  0.00  0.00    +0.040 C 
BRANCH  24  27
ATOM      5  O   UNL     1      -8.339  -9.328  12.444  0.00  0.00    -0.249 OA
ATOM     27  C   UNL     1      -7.282  -9.554  13.026  0.00  0.00    +0.327 C 
BRANCH  27   4
ATOM      4  O   UNL     1      -6.050  -9.172  12.590  0.00  0.00    -0.467 OA
ATOM     32  C   UNL     1      -5.970  -8.780  11.215  0.00  0.00    +0.280 C 
ENDBRANCH  27   4
ENDBRANCH  24  27
ENDBRANCH   9  24
ENDBRANCH  17  22
TORSDOF 6
ENDMDL
MODEL 5
REMARK VINA RESULT:      -5.5     25.695     29.056
REMARK  Name = 7663579
REMARK  8 active torsions:
REMARK  status: ('A' for Active; 'I' for Inactive)
REMARK    1  A    between atoms: O_4  and  C_27
REMARK    2  A    between atoms: O_4  and  C_32
REMARK    3  A    between atoms: N_7  and  C_11
REMARK    4  A    between atoms: N_9  and  C_24
REMARK    5  A    between atoms: C_17  and  C_22
REMARK    6  A    between atoms: C_23  and  C_25
REMARK    7  A    between atoms: C_24  and  C_26
REMARK    8  A    between atoms: C_24  and  C_27
REMARK                            x       y       z     vdW  Elec       q    Type
REMARK                         _______ _______ _______ _____ _____    ______ ____
ROOT
ATOM      1  O   UNL     1      14.871   9.997   4.829  0.00  0.00    -0.253 OA
ATOM      3  O   UNL     1       8.347   6.638   4.981  0.00  0.00    -0.270 OA
ATOM      6  N   UNL     1      12.897   8.857   4.371  0.00  0.00    -0.271 N 
ATOM      7  N   UNL     1      14.345   9.555   2.636  0.00  0.00    -0.296 N 
ATOM      8  N   UNL     1      10.514   7.454   5.297  0.00  0.00    -0.294 N 
ATOM     17  C   UNL     1      11.865   8.407   3.426  0.00  0.00    +0.181 C 
ATOM     18  C   UNL     1      10.487   8.257   4.073  0.00  0.00    +0.140 C 
ATOM     19  C   UNL     1      12.568   8.763   5.796  0.00  0.00    +0.129 C 
ATOM     20  C   UNL     1      11.729   7.533   6.117  0.00  0.00    +0.127 C 
ATOM     21  C   UNL     1      14.094   9.507   4.004  0.00  0.00    +0.303 C 
ATOM     23  C   UNL     1       9.376   6.720   5.649  0.00  0.00    +0.248 C 
ATOM     33  H   UNL     1      13.752   9.041   1.996  0.00  0.00    +0.151 HD
ENDROOT
BRANCH  23  25
ATOM     10  N   UNL     1       9.859   3.923   8.097  0.00  0.00    -0.263 NA
ATOM     25  C   UNL     1       9.397   5.977   6.919  0.00  0.00    +0.055 A 
ATOM     28  C   UNL     1       8.998   6.582   8.103  0.00  0.00    +0.016 A 
ATOM     29  C   UNL     1       9.815   4.661   6.964  0.00  0.00    +0.123 A 
ATOM     30  C   UNL     1       9.029   5.856   9.288  0.00  0.00    +0.020 A 
ATOM     31  C   UNL     1       9.463   4.541   9.232  0.00  0.00    +0.111 A 
ENDBRANCH  23  25
BRANCH   7  11
ATOM     11  C   UNL     1      15.531  10.181   2.094  0.00  0.00    +0.074 C 
ATOM     12  C   UNL     1      15.225  10.883   0.766  0.00  0.00    +0.022 C 
ATOM     13  C   UNL     1      16.667   9.165   1.937  0.00  0.00    +0.022 C 
ATOM     14  C   UNL     1      14.978   9.895  -0.374  0.00  0.00    +0.002 C 
ATOM     15  C   UNL     1      16.417   8.180   0.795  0.00  0.00    +0.002 C 
ATOM     16  C   UNL     1      16.127   8.901  -0.518  0.00  0.00    +0.000 C 
ENDBRANCH   7  11
BRANCH  17  22
ATOM      2  O   UNL     1      13.448   6.660   3.030  0.00  0.00    -0.274 OA
ATOM      9  N   UNL     1      11.307   6.464   2.136  0.00  0.00    -0.301 N 
ATOM     22  C   UNL     1      12.308   7.088   2.860  0.00  0.00    +0.236 C 
ATOM     34  H   UNL     1      10.378   6.876   2.126  0.00  0.00    +0.150 HD
BRANCH   9  24
ATOM     24  C   UNL     1      11.486   5.194   1.471  0.00  0.00    +0.179 C 
ATOM     26  C   UNL     1      10.398   4.985   0.428  0.00  0.00    +0.040 C 
BRANCH  24  27
ATOM      5  O   UNL     1      10.820   4.024   3.476  0.00  0.00    -0.249 OA
ATOM     27  C   UNL     1      11.503   4.036   2.456  0.00  0.00    +0.327 C 
BRANCH  27   4
ATOM      4  O   UNL     1      12.345   3.038   2.066  0.00  0.00    -0.467 OA
ATOM     32  C   UNL     1      13.595   3.460   1.510  0.00  0.00    +0.280 C 
ENDBRANCH  27   4
ENDBRANCH  24  27
ENDBRANCH   9  24
ENDBRANCH  17  22
TORSDOF 6
ENDMDL
MODEL 6
REMARK VINA RESULT:      -5.4     27.024     30.622
REMARK  Name = 7663579
REMARK  8 active torsions:
REMARK  status: ('A' for Active; 'I' for Inactive)
REMARK    1  A    between atoms: O_4  and  C_27
REMARK    2  A    between atoms: O_4  and  C_32
REMARK    3  A    between atoms: N_7  and  C_11
REMARK    4  A    between atoms: N_9  and  C_24
REMARK    5  A    between atoms: C_17  and  C_22
REMARK    6  A    between atoms: C_23  and  C_25
REMARK    7  A    between atoms: C_24  and  C_26
REMARK    8  A    between atoms: C_24  and  C_27
REMARK                            x       y       z     vdW  Elec       q    Type
REMARK                         _______ _______ _______ _____ _____    ______ ____
ROOT
ATOM      1  O   UNL     1      17.413   8.054   0.216  0.00  0.00    -0.253 OA
ATOM      3  O   UNL     1      12.438   2.773   1.327  0.00  0.00    -0.270 OA
ATOM      6  N   UNL     1      15.809   6.588   1.043  0.00  0.00    -0.271 N 
ATOM      7  N   UNL     1      16.937   8.108   2.463  0.00  0.00    -0.296 N 
ATOM      8  N   UNL     1      13.787   4.535   0.594  0.00  0.00    -0.294 N 
ATOM     17  C   UNL     1      15.140   5.922   2.170  0.00  0.00    +0.181 C 
ATOM     18  C   UNL     1      14.604   4.535   1.810  0.00  0.00    +0.140 C 
ATOM     19  C   UNL     1      15.573   6.023  -0.288  0.00  0.00    +0.129 C 
ATOM     20  C   UNL     1      14.153   5.499  -0.451  0.00  0.00    +0.127 C 
ATOM     21  C   UNL     1      16.768   7.615   1.173  0.00  0.00    +0.303 C 
ATOM     23  C   UNL     1      12.763   3.590   0.467  0.00  0.00    +0.248 C 
ATOM     33  H   UNL     1      16.310   7.813   3.201  0.00  0.00    +0.151 HD
ENDROOT
BRANCH  23  25
ATOM     10  N   UNL     1      10.108   4.328  -2.073  0.00  0.00    -0.263 NA
ATOM     25  C   UNL     1      12.002   3.559  -0.792  0.00  0.00    +0.055 A 
ATOM     28  C   UNL     1      12.422   2.775  -1.857  0.00  0.00    +0.016 A 
ATOM     29  C   UNL     1      10.853   4.310  -0.944  0.00  0.00    +0.123 A 
ATOM     30  C   UNL     1      11.683   2.767  -3.035  0.00  0.00    +0.020 A 
ATOM     31  C   UNL     1      10.544   3.553  -3.091  0.00  0.00    +0.111 A 
ENDBRANCH  23  25
BRANCH   7  11
ATOM     11  C   UNL     1      17.876   9.165   2.766  0.00  0.00    +0.074 C 
ATOM     12  C   UNL     1      19.286   8.604   2.978  0.00  0.00    +0.022 C 
ATOM     13  C   UNL     1      17.415   9.982   3.976  0.00  0.00    +0.022 C 
ATOM     14  C   UNL     1      19.418   7.835   4.292  0.00  0.00    +0.002 C 
ATOM     15  C   UNL     1      17.549   9.210   5.289  0.00  0.00    +0.002 C 
ATOM     16  C   UNL     1      18.964   8.672   5.484  0.00  0.00    +0.000 C 
ENDBRANCH   7  11
BRANCH  17  22
ATOM      2  O   UNL     1      13.853   7.936   2.163  0.00  0.00    -0.274 OA
ATOM      9  N   UNL     1      13.223   6.202   3.583  0.00  0.00    -0.301 N 
ATOM     22  C   UNL     1      14.010   6.805   2.617  0.00  0.00    +0.236 C 
ATOM     34  H   UNL     1      13.402   5.233   3.829  0.00  0.00    +0.150 HD
BRANCH   9  24
ATOM     24  C   UNL     1      12.086   6.851   4.194  0.00  0.00    +0.179 C 
ATOM     26  C   UNL     1      12.520   7.629   5.428  0.00  0.00    +0.040 C 
BRANCH  24  27
ATOM      5  O   UNL     1      10.739   4.874   3.865  0.00  0.00    -0.249 OA
ATOM     27  C   UNL     1      10.993   5.857   4.554  0.00  0.00    +0.327 C 
BRANCH  27   4
ATOM      4  O   UNL     1      10.356   6.186   5.713  0.00  0.00    -0.467 OA
ATOM     32  C   UNL     1       9.787   5.093   6.442  0.00  0.00    +0.280 C 
ENDBRANCH  27   4
ENDBRANCH  24  27
ENDBRANCH   9  24
ENDBRANCH  17  22
TORSDOF 6
ENDMDL
MODEL 7
REMARK VINA RESULT:      -5.3     20.888     24.870
REMARK  Name = 7663579
REMARK  8 active torsions:
REMARK  status: ('A' for Active; 'I' for Inactive)
REMARK    1  A    between atoms: O_4  and  C_27
REMARK    2  A    between atoms: O_4  and  C_32
REMARK    3  A    between atoms: N_7  and  C_11
REMARK    4  A    between atoms: N_9  and  C_24
REMARK    5  A    between atoms: C_17  and  C_22
REMARK    6  A    between atoms: C_23  and  C_25
REMARK    7  A    between atoms: C_24  and  C_26
REMARK    8  A    between atoms: C_24  and  C_27
REMARK                            x       y       z     vdW  Elec       q    Type
REMARK                         _______ _______ _______ _____ _____    ______ ____
ROOT
ATOM      1  O   UNL     1       4.742  -9.461  37.102  0.00  0.00    -0.253 OA
ATOM      3  O   UNL     1       7.088  -8.712  30.189  0.00  0.00    -0.270 OA
ATOM      6  N   UNL     1       5.710  -8.794  35.097  0.00  0.00    -0.271 N 
ATOM      7  N   UNL     1       5.712  -7.381  36.995  0.00  0.00    -0.296 N 
ATOM      8  N   UNL     1       6.491  -9.376  32.348  0.00  0.00    -0.294 N 
ATOM     17  C   UNL     1       6.276  -7.749  34.231  0.00  0.00    +0.181 C 
ATOM     18  C   UNL     1       6.066  -8.031  32.742  0.00  0.00    +0.140 C 
ATOM     19  C   UNL     1       5.359 -10.062  34.453  0.00  0.00    +0.129 C 
ATOM     20  C   UNL     1       6.336 -10.440  33.348  0.00  0.00    +0.127 C 
ATOM     21  C   UNL     1       5.343  -8.606  36.446  0.00  0.00    +0.303 C 
ATOM     23  C   UNL     1       6.950  -9.585  31.043  0.00  0.00    +0.248 C 
ATOM     33  H   UNL     1       6.307  -6.753  36.470  0.00  0.00    +0.151 HD
ENDROOT
BRANCH  23  25
ATOM     10  N   UNL     1       8.993 -12.662  30.407  0.00  0.00    -0.263 NA
ATOM     25  C   UNL     1       7.303 -10.957  30.646  0.00  0.00    +0.055 A 
ATOM     28  C   UNL     1       6.339 -11.824  30.152  0.00  0.00    +0.016 A 
ATOM     29  C   UNL     1       8.603 -11.414  30.754  0.00  0.00    +0.123 A 
ATOM     30  C   UNL     1       6.702 -13.115  29.786  0.00  0.00    +0.020 A 
ATOM     31  C   UNL     1       8.030 -13.482  29.930  0.00  0.00    +0.111 A 
ENDBRANCH  23  25
BRANCH   7  11
ATOM     11  C   UNL     1       5.415  -7.033  38.367  0.00  0.00    +0.074 C 
ATOM     12  C   UNL     1       4.552  -5.769  38.440  0.00  0.00    +0.022 C 
ATOM     13  C   UNL     1       6.701  -6.876  39.185  0.00  0.00    +0.022 C 
ATOM     14  C   UNL     1       5.331  -4.506  38.074  0.00  0.00    +0.002 C 
ATOM     15  C   UNL     1       7.477  -5.611  38.818  0.00  0.00    +0.002 C 
ATOM     16  C   UNL     1       6.600  -4.365  38.910  0.00  0.00    +0.000 C 
ENDBRANCH   7  11
BRANCH  17  22
ATOM      2  O   UNL     1       8.274  -8.340  35.402  0.00  0.00    -0.274 OA
ATOM      9  N   UNL     1       8.383  -6.715  33.738  0.00  0.00    -0.301 N 
ATOM     22  C   UNL     1       7.745  -7.655  34.530  0.00  0.00    +0.236 C 
ATOM     34  H   UNL     1       7.858  -6.260  32.995  0.00  0.00    +0.150 HD
BRANCH   9  24
ATOM     24  C   UNL     1       9.792  -6.417  33.845  0.00  0.00    +0.179 C 
ATOM     26  C   UNL     1      10.015  -4.912  33.846  0.00  0.00    +0.040 C 
BRANCH  24  27
ATOM      5  O   UNL     1      10.368  -8.206  32.329  0.00  0.00    -0.249 OA
ATOM     27  C   UNL     1      10.595  -7.069  32.730  0.00  0.00    +0.327 C 
BRANCH  27   4
ATOM      4  O   UNL     1      11.565  -6.246  32.242  0.00  0.00    -0.467 OA
ATOM     32  C   UNL     1      12.635  -6.891  31.542  0.00  0.00    +0.280 C 
ENDBRANCH  27   4
ENDBRANCH  24  27
ENDBRANCH   9  24
ENDBRANCH  17  22
TORSDOF 6
ENDMDL
MODEL 8
REMARK VINA RESULT:      -5.2     27.310     31.062
REMARK  Name = 7663579
REMARK  8 active torsions:
REMARK  status: ('A' for Active; 'I' for Inactive)
REMARK    1  A    between atoms: O_4  and  C_27
REMARK    2  A    between atoms: O_4  and  C_32
REMARK    3  A    between atoms: N_7  and  C_11
REMARK    4  A    between atoms: N_9  and  C_24
REMARK    5  A    between atoms: C_17  and  C_22
REMARK    6  A    between atoms: C_23  and  C_25
REMARK    7  A    between atoms: C_24  and  C_26
REMARK    8  A    between atoms: C_24  and  C_27
REMARK                            x       y       z     vdW  Elec       q    Type
REMARK                         _______ _______ _______ _____ _____    ______ ____
ROOT
ATOM      1  O   UNL     1      11.348  10.172   7.850  0.00  0.00    -0.253 OA
ATOM      3  O   UNL     1      17.698   8.078   4.825  0.00  0.00    -0.270 OA
ATOM      6  N   UNL     1      13.070   9.127   6.690  0.00  0.00    -0.271 N 
ATOM      7  N   UNL     1      10.937   8.125   6.892  0.00  0.00    -0.296 N 
ATOM      8  N   UNL     1      15.787   9.155   5.631  0.00  0.00    -0.294 N 
ATOM     17  C   UNL     1      13.647   7.937   6.049  0.00  0.00    +0.181 C 
ATOM     18  C   UNL     1      15.176   7.912   6.104  0.00  0.00    +0.140 C 
ATOM     19  C   UNL     1      13.988  10.237   6.963  0.00  0.00    +0.129 C 
ATOM     20  C   UNL     1      15.043  10.397   5.877  0.00  0.00    +0.127 C 
ATOM     21  C   UNL     1      11.754   9.210   7.193  0.00  0.00    +0.303 C 
ATOM     23  C   UNL     1      17.055   9.103   5.040  0.00  0.00    +0.248 C 
ATOM     33  H   UNL     1      11.262   7.411   6.252  0.00  0.00    +0.151 HD
ENDROOT
BRANCH  23  25
ATOM     10  N   UNL     1      19.114  12.231   5.199  0.00  0.00    -0.263 NA
ATOM     25  C   UNL     1      17.682  10.372   4.638  0.00  0.00    +0.055 A 
ATOM     28  C   UNL     1      17.460  10.907   3.377  0.00  0.00    +0.016 A 
ATOM     29  C   UNL     1      18.508  11.062   5.505  0.00  0.00    +0.123 A 
ATOM     30  C   UNL     1      18.067  12.106   3.024  0.00  0.00    +0.020 A 
ATOM     31  C   UNL     1      18.877  12.724   3.963  0.00  0.00    +0.111 A 
ENDBRANCH  23  25
BRANCH   7  11
ATOM     11  C   UNL     1       9.560   8.055   7.328  0.00  0.00    +0.074 C 
ATOM     12  C   UNL     1       9.180   6.626   7.726  0.00  0.00    +0.022 C 
ATOM     13  C   UNL     1       8.614   8.604   6.256  0.00  0.00    +0.022 C 
ATOM     14  C   UNL     1       9.057   5.696   6.519  0.00  0.00    +0.002 C 
ATOM     15  C   UNL     1       8.492   7.671   5.051  0.00  0.00    +0.002 C 
ATOM     16  C   UNL     1       8.101   6.257   5.470  0.00  0.00    +0.000 C 
ENDBRANCH   7  11
BRANCH  17  22
ATOM      2  O   UNL     1      12.713   8.919   4.080  0.00  0.00    -0.274 OA
ATOM      9  N   UNL     1      13.351   6.681   4.028  0.00  0.00    -0.301 N 
ATOM     22  C   UNL     1      13.189   7.923   4.618  0.00  0.00    +0.236 C 
ATOM     34  H   UNL     1      13.827   5.948   4.546  0.00  0.00    +0.150 HD
BRANCH   9  24
ATOM     24  C   UNL     1      12.966   6.397   2.664  0.00  0.00    +0.179 C 
ATOM     26  C   UNL     1      11.714   5.533   2.637  0.00  0.00    +0.040 C 
BRANCH  24  27
ATOM      5  O   UNL     1      15.072   6.340   1.483  0.00  0.00    -0.249 OA
ATOM     27  C   UNL     1      14.088   5.727   1.887  0.00  0.00    +0.327 C 
BRANCH  27   4
ATOM      4  O   UNL     1      13.870   4.393   1.711  0.00  0.00    -0.467 OA
ATOM     32  C   UNL     1      15.043   3.578   1.610  0.00  0.00    +0.280 C 
ENDBRANCH  27   4
ENDBRANCH  24  27
ENDBRANCH   9  24
ENDBRANCH  17  22
TORSDOF 6
ENDMDL
MODEL 9
REMARK VINA RESULT:      -5.1     19.362     21.935
REMARK  Name = 7663579
REMARK  8 active torsions:
REMARK  status: ('A' for Active; 'I' for Inactive)
REMARK    1  A    between atoms: O_4  and  C_27
REMARK    2  A    between atoms: O_4  and  C_32
REMARK    3  A    between atoms: N_7  and  C_11
REMARK    4  A    between atoms: N_9  and  C_24
REMARK    5  A    between atoms: C_17  and  C_22
REMARK    6  A    between atoms: C_23  and  C_25
REMARK    7  A    between atoms: C_24  and  C_26
REMARK    8  A    between atoms: C_24  and  C_27
REMARK                            x       y       z     vdW  Elec       q    Type
REMARK                         _______ _______ _______ _____ _____    ______ ____
ROOT
ATOM      1  O   UNL     1     -14.587   8.635  12.734  0.00  0.00    -0.253 OA
ATOM      3  O   UNL     1      -9.653   8.795  18.165  0.00  0.00    -0.270 OA
ATOM      6  N   UNL     1     -12.821   9.077  14.179  0.00  0.00    -0.271 N 
ATOM      7  N   UNL     1     -12.957  10.105  12.054  0.00  0.00    -0.296 N 
ATOM      8  N   UNL     1     -11.528   8.737  16.771  0.00  0.00    -0.294 N 
ATOM     17  C   UNL     1     -11.484   9.630  14.440  0.00  0.00    +0.181 C 
ATOM     18  C   UNL     1     -10.737   8.887  15.549  0.00  0.00    +0.140 C 
ATOM     19  C   UNL     1     -13.367   8.173  15.196  0.00  0.00    +0.129 C 
ATOM     20  C   UNL     1     -12.980   8.589  16.608  0.00  0.00    +0.127 C 
ATOM     21  C   UNL     1     -13.531   9.229  12.970  0.00  0.00    +0.303 C 
ATOM     23  C   UNL     1     -10.866   8.675  18.003  0.00  0.00    +0.248 C 
ATOM     33  H   UNL     1     -12.159  10.666  12.324  0.00  0.00    +0.151 HD
ENDROOT
BRANCH  23  25
ATOM     10  N   UNL     1     -13.180   9.334  20.876  0.00  0.00    -0.263 NA
ATOM     25  C   UNL     1     -11.674   8.450  19.212  0.00  0.00    +0.055 A 
ATOM     28  C   UNL     1     -11.708   7.205  19.823  0.00  0.00    +0.016 A 
ATOM     29  C   UNL     1     -12.418   9.474  19.768  0.00  0.00    +0.123 A 
ATOM     30  C   UNL     1     -12.481   7.022  20.964  0.00  0.00    +0.020 A 
ATOM     31  C   UNL     1     -13.192   8.109  21.447  0.00  0.00    +0.111 A 
ENDBRANCH  23  25
BRANCH   7  11
ATOM     11  C   UNL     1     -13.561  10.377  10.768  0.00  0.00    +0.074 C 
ATOM     12  C   UNL     1     -12.529  10.266   9.640  0.00  0.00    +0.022 C 
ATOM     13  C   UNL     1     -14.248  11.746  10.760  0.00  0.00    +0.022 C 
ATOM     14  C   UNL     1     -11.532  11.426   9.645  0.00  0.00    +0.002 C 
ATOM     15  C   UNL     1     -13.249  12.902  10.763  0.00  0.00    +0.002 C 
ATOM     16  C   UNL     1     -12.240  12.777   9.625  0.00  0.00    +0.000 C 
ENDBRANCH   7  11
BRANCH  17  22
ATOM      2  O   UNL     1     -12.756  11.616  14.830  0.00  0.00    -0.274 OA
ATOM      9  N   UNL     1     -10.447  11.684  15.116  0.00  0.00    -0.301 N 
ATOM     22  C   UNL     1     -11.653  11.074  14.819  0.00  0.00    +0.236 C 
ATOM     34  H   UNL     1      -9.603  11.117  15.148  0.00  0.00    +0.150 HD
BRANCH   9  24
ATOM     24  C   UNL     1     -10.334  13.076  15.487  0.00  0.00    +0.179 C 
ATOM     26  C   UNL     1      -9.597  13.853  14.407  0.00  0.00    +0.040 C 
BRANCH  24  27
ATOM      5  O   UNL     1      -8.837  14.151  17.047  0.00  0.00    -0.249 OA
ATOM     27  C   UNL     1      -9.641  13.250  16.830  0.00  0.00    +0.327 C 
BRANCH  27   4
ATOM      4  O   UNL     1     -10.025  12.307  17.735  0.00  0.00    -0.467 OA
ATOM     32  C   UNL     1     -11.171  12.637  18.529  0.00  0.00    +0.280 C 
ENDBRANCH  27   4
ENDBRANCH  24  27
ENDBRANCH   9  24
ENDBRANCH  17  22
TORSDOF 6
ENDMDL
MODEL 10
REMARK VINA RESULT:      -5.1     25.606     28.511
REMARK  Name = 7663579
REMARK  8 active torsions:
REMARK  status: ('A' for Active; 'I' for Inactive)
REMARK    1  A    between atoms: O_4  and  C_27
REMARK    2  A    between atoms: O_4  and  C_32
REMARK    3  A    between atoms: N_7  and  C_11
REMARK    4  A    between atoms: N_9  and  C_24
REMARK    5  A    between atoms: C_17  and  C_22
REMARK    6  A    between atoms: C_23  and  C_25
REMARK    7  A    between atoms: C_24  and  C_26
REMARK    8  A    between atoms: C_24  and  C_27
REMARK                            x       y       z     vdW  Elec       q    Type
REMARK                         _______ _______ _______ _____ _____    ______ ____
ROOT
ATOM      1  O   UNL     1      14.539   8.764   2.183  0.00  0.00    -0.253 OA
ATOM      3  O   UNL     1       8.725   9.981   6.493  0.00  0.00    -0.270 OA
ATOM      6  N   UNL     1      12.610   8.642   3.475  0.00  0.00    -0.271 N 
ATOM      7  N   UNL     1      13.304   6.827   2.127  0.00  0.00    -0.296 N 
ATOM      8  N   UNL     1      10.805   9.817   5.441  0.00  0.00    -0.294 N 
ATOM     17  C   UNL     1      11.344   7.987   3.831  0.00  0.00    +0.181 C 
ATOM     18  C   UNL     1      10.296   8.964   4.366  0.00  0.00    +0.140 C 
ATOM     19  C   UNL     1      12.812  10.001   3.985  0.00  0.00    +0.129 C 
ATOM     20  C   UNL     1      12.223  10.191   5.377  0.00  0.00    +0.127 C 
ATOM     21  C   UNL     1      13.556   8.123   2.566  0.00  0.00    +0.303 C 
ATOM     23  C   UNL     1       9.915  10.278   6.418  0.00  0.00    +0.248 C 
ATOM     33  H   UNL     1      12.559   6.287   2.549  0.00  0.00    +0.151 HD
ENDROOT
BRANCH  23  25
ATOM     10  N   UNL     1      11.012  13.442   8.101  0.00  0.00    -0.263 NA
ATOM     25  C   UNL     1      10.432  11.194   7.448  0.00  0.00    +0.055 A 
ATOM     28  C   UNL     1      10.819  10.718   8.692  0.00  0.00    +0.016 A 
ATOM     29  C   UNL     1      10.546  12.548   7.200  0.00  0.00    +0.123 A 
ATOM     30  C   UNL     1      11.303  11.606   9.646  0.00  0.00    +0.020 A 
ATOM     31  C   UNL     1      11.380  12.947   9.303  0.00  0.00    +0.111 A 
ENDBRANCH  23  25
BRANCH   7  11
ATOM     11  C   UNL     1      14.178   6.147   1.197  0.00  0.00    +0.074 C 
ATOM     12  C   UNL     1      13.528   6.030  -0.186  0.00  0.00    +0.022 C 
ATOM     13  C   UNL     1      14.592   4.773   1.734  0.00  0.00    +0.022 C 
ATOM     14  C   UNL     1      12.382   5.019  -0.210  0.00  0.00    +0.002 C 
ATOM     15  C   UNL     1      13.444   3.764   1.707  0.00  0.00    +0.002 C 
ATOM     16  C   UNL     1      12.821   3.657   0.318  0.00  0.00    +0.000 C 
ENDBRANCH   7  11
BRANCH  17  22
ATOM      2  O   UNL     1      12.794   6.579   5.107  0.00  0.00    -0.274 OA
ATOM      9  N   UNL     1      10.498   6.458   5.473  0.00  0.00    -0.301 N 
ATOM     22  C   UNL     1      11.645   6.943   4.869  0.00  0.00    +0.236 C 
ATOM     34  H   UNL     1       9.604   6.888   5.250  0.00  0.00    +0.150 HD
BRANCH   9  24
ATOM     24  C   UNL     1      10.514   5.430   6.489  0.00  0.00    +0.179 C 
ATOM     26  C   UNL     1       9.794   4.185   5.993  0.00  0.00    +0.040 C 
BRANCH  24  27
ATOM      5  O   UNL     1       9.053   6.802   7.836  0.00  0.00    -0.249 OA
ATOM     27  C   UNL     1       9.898   5.914   7.793  0.00  0.00    +0.327 C 
BRANCH  27   4
ATOM      4  O   UNL     1      10.387   5.245   8.874  0.00  0.00    -0.467 OA
ATOM     32  C   UNL     1       9.410   4.612   9.708  0.00  0.00    +0.280 C 
ENDBRANCH  27   4
ENDBRANCH  24  27
ENDBRANCH   9  24
ENDBRANCH  17  22
TORSDOF 6
ENDMDL
