MODEL 1
REMARK VINA RESULT:      -7.5      0.000      0.000
REMARK  Name = 51137133
REMARK  6 active torsions:
REMARK  status: ('A' for Active; 'I' for Inactive)
REMARK    1  A    between atoms: S_1  and  C_23
REMARK    2  A    between atoms: S_1  and  C_25
REMARK    3  A    between atoms: N_5  and  C_8
REMARK    4  A    between atoms: C_7  and  C_8
REMARK    5  A    between atoms: C_9  and  C_18
REMARK    6  A    between atoms: C_25  and  C_26
REMARK                            x       y       z     vdW  Elec       q    Type
REMARK                         _______ _______ _______ _____ _____    ______ ____
ROOT
ATOM      2  O   UNL     1      18.195   7.441  21.205  0.00  0.00    -0.439 OA
ATOM      6  N   UNL     1      17.926   6.079  19.414  0.00  0.00    -0.213 NA
ATOM     18  C   UNL     1      18.741   6.545  20.334  0.00  0.00    +0.201 A 
ATOM     19  C   UNL     1      16.740   6.714  19.690  0.00  0.00    +0.111 A 
ATOM     20  C   UNL     1      16.900   7.547  20.786  0.00  0.00    +0.155 A 
ATOM     21  C   UNL     1      15.484   6.644  19.070  0.00  0.00    +0.058 A 
ATOM     22  C   UNL     1      15.898   8.339  21.333  0.00  0.00    +0.050 A 
ATOM     23  C   UNL     1      14.446   7.428  19.593  0.00  0.00    +0.090 A 
ATOM     24  C   UNL     1      14.651   8.258  20.703  0.00  0.00    +0.030 A 
ENDROOT
BRANCH  18   9
ATOM      5  N   UNL     1      21.637   4.552  21.365  0.00  0.00    -0.301 NA
ATOM      9  C   UNL     1      20.200   6.217  20.553  0.00  0.00    +0.090 C 
ATOM     10  C   UNL     1      20.494   4.714  20.464  0.00  0.00    +0.097 C 
ATOM     13  C   UNL     1      21.310   5.365  22.538  0.00  0.00    +0.085 C 
ATOM     14  C   UNL     1      20.759   6.644  21.922  0.00  0.00    +0.029 C 
BRANCH   5   8
ATOM      8  C   UNL     1      21.882   3.159  21.708  0.00  0.00    +0.088 C 
BRANCH   8   7
ATOM      7  C   UNL     1      23.173   2.659  21.062  0.00  0.00    +0.003 C 
ATOM     11  C   UNL     1      23.975   3.829  20.479  0.00  0.00    +0.005 C 
ATOM     12  C   UNL     1      24.014   1.869  22.074  0.00  0.00    +0.005 C 
ATOM     15  C   UNL     1      25.298   3.360  19.874  0.00  0.00    +0.000 C 
ATOM     16  C   UNL     1      25.336   1.403  21.466  0.00  0.00    +0.000 C 
ATOM     17  C   UNL     1      26.127   2.568  20.880  0.00  0.00    +0.000 C 
ENDBRANCH   8   7
ENDBRANCH   5   8
ENDBRANCH  18   9
BRANCH  23   1
ATOM      1  S   UNL     1      12.866   7.370  18.844  0.00  0.00    -0.003 S 
ATOM      3  O   UNL     1      13.032   7.379  17.398  0.00  0.00    -0.169 OA
ATOM      4  O   UNL     1      12.112   6.301  19.481  0.00  0.00    -0.169 OA
BRANCH   1  25
ATOM     25  C   UNL     1      12.110   8.916  19.291  0.00  0.00    +0.168 C 
ATOM     26  C   UNL     1      10.970   8.715  20.265  0.00  0.00    +0.028 C 
ENDBRANCH   1  25
ENDBRANCH  23   1
TORSDOF 5
ENDMDL
MODEL 2
REMARK VINA RESULT:      -6.7     30.677     34.124
REMARK  Name = 51137133
REMARK  6 active torsions:
REMARK  status: ('A' for Active; 'I' for Inactive)
REMARK    1  A    between atoms: S_1  and  C_23
REMARK    2  A    between atoms: S_1  and  C_25
REMARK    3  A    between atoms: N_5  and  C_8
REMARK    4  A    between atoms: C_7  and  C_8
REMARK    5  A    between atoms: C_9  and  C_18
REMARK    6  A    between atoms: C_25  and  C_26
REMARK                            x       y       z     vdW  Elec       q    Type
REMARK                         _______ _______ _______ _____ _____    ______ ____
ROOT
ATOM      2  O   UNL     1     -16.317   3.525  22.593  0.00  0.00    -0.439 OA
ATOM      6  N   UNL     1     -14.980   4.608  24.069  0.00  0.00    -0.213 NA
ATOM     18  C   UNL     1     -15.342   4.452  22.814  0.00  0.00    +0.201 A 
ATOM     19  C   UNL     1     -15.778   3.714  24.741  0.00  0.00    +0.111 A 
ATOM     20  C   UNL     1     -16.597   3.049  23.841  0.00  0.00    +0.155 A 
ATOM     21  C   UNL     1     -15.874   3.400  26.105  0.00  0.00    +0.058 A 
ATOM     22  C   UNL     1     -17.527   2.076  24.186  0.00  0.00    +0.050 A 
ATOM     23  C   UNL     1     -16.803   2.423  26.492  0.00  0.00    +0.090 A 
ATOM     24  C   UNL     1     -17.612   1.775  25.550  0.00  0.00    +0.030 A 
ENDROOT
BRANCH  18   9
ATOM      5  N   UNL     1     -13.630   7.065  20.901  0.00  0.00    -0.301 NA
ATOM      9  C   UNL     1     -14.819   5.165  21.589  0.00  0.00    +0.090 C 
ATOM     10  C   UNL     1     -13.540   5.967  21.865  0.00  0.00    +0.097 C 
ATOM     13  C   UNL     1     -15.026   7.500  20.955  0.00  0.00    +0.085 C 
ATOM     14  C   UNL     1     -15.792   6.184  20.970  0.00  0.00    +0.029 C 
BRANCH   5   8
ATOM      8  C   UNL     1     -12.702   8.146  21.201  0.00  0.00    +0.088 C 
BRANCH   8   7
ATOM      7  C   UNL     1     -11.567   8.187  20.179  0.00  0.00    +0.003 C 
ATOM     11  C   UNL     1     -11.994   7.513  18.868  0.00  0.00    +0.005 C 
ATOM     12  C   UNL     1     -11.115   9.632  19.929  0.00  0.00    +0.005 C 
ATOM     15  C   UNL     1     -10.894   7.589  17.811  0.00  0.00    +0.000 C 
ATOM     16  C   UNL     1     -10.017   9.704  18.871  0.00  0.00    +0.000 C 
ATOM     17  C   UNL     1     -10.441   9.027  17.572  0.00  0.00    +0.000 C 
ENDBRANCH   8   7
ENDBRANCH   5   8
ENDBRANCH  18   9
BRANCH  23   1
ATOM      1  S   UNL     1     -16.950   2.003  28.184  0.00  0.00    -0.003 S 
ATOM      3  O   UNL     1     -18.293   2.336  28.635  0.00  0.00    -0.169 OA
ATOM      4  O   UNL     1     -16.443   0.650  28.352  0.00  0.00    -0.169 OA
BRANCH   1  25
ATOM     25  C   UNL     1     -15.834   3.113  29.010  0.00  0.00    +0.168 C 
ATOM     26  C   UNL     1     -14.709   2.365  29.691  0.00  0.00    +0.028 C 
ENDBRANCH   1  25
ENDBRANCH  23   1
TORSDOF 5
ENDMDL
MODEL 3
REMARK VINA RESULT:      -6.6     27.947     30.205
REMARK  Name = 51137133
REMARK  6 active torsions:
REMARK  status: ('A' for Active; 'I' for Inactive)
REMARK    1  A    between atoms: S_1  and  C_23
REMARK    2  A    between atoms: S_1  and  C_25
REMARK    3  A    between atoms: N_5  and  C_8
REMARK    4  A    between atoms: C_7  and  C_8
REMARK    5  A    between atoms: C_9  and  C_18
REMARK    6  A    between atoms: C_25  and  C_26
REMARK                            x       y       z     vdW  Elec       q    Type
REMARK                         _______ _______ _______ _____ _____    ______ ____
ROOT
ATOM      2  O   UNL     1      -4.277 -11.363  17.365  0.00  0.00    -0.439 OA
ATOM      6  N   UNL     1      -5.552  -9.945  16.139  0.00  0.00    -0.213 NA
ATOM     18  C   UNL     1      -4.371 -10.494  16.319  0.00  0.00    +0.201 A 
ATOM     19  C   UNL     1      -6.311 -10.491  17.146  0.00  0.00    +0.111 A 
ATOM     20  C   UNL     1      -5.534 -11.359  17.898  0.00  0.00    +0.155 A 
ATOM     21  C   UNL     1      -7.656 -10.310  17.496  0.00  0.00    +0.058 A 
ATOM     22  C   UNL     1      -5.989 -12.081  18.995  0.00  0.00    +0.050 A 
ATOM     23  C   UNL     1      -8.153 -11.021  18.598  0.00  0.00    +0.090 A 
ATOM     24  C   UNL     1      -7.334 -11.889  19.332  0.00  0.00    +0.030 A 
ENDROOT
BRANCH  18   9
ATOM      5  N   UNL     1      -2.011 -10.953  13.554  0.00  0.00    -0.301 NA
ATOM      9  C   UNL     1      -3.106 -10.287  15.518  0.00  0.00    +0.090 C 
ATOM     10  C   UNL     1      -3.317 -10.473  14.009  0.00  0.00    +0.097 C 
ATOM     13  C   UNL     1      -1.599 -11.934  14.559  0.00  0.00    +0.085 C 
ATOM     14  C   UNL     1      -1.954 -11.245  15.871  0.00  0.00    +0.029 C 
BRANCH   5   8
ATOM      8  C   UNL     1      -2.064 -11.522  12.215  0.00  0.00    +0.088 C 
BRANCH   8   7
ATOM      7  C   UNL     1      -3.177 -10.874  11.393  0.00  0.00    +0.003 C 
ATOM     11  C   UNL     1      -2.659  -9.626  10.667  0.00  0.00    +0.005 C 
ATOM     12  C   UNL     1      -3.769 -11.880  10.396  0.00  0.00    +0.005 C 
ATOM     15  C   UNL     1      -3.741  -8.991   9.795  0.00  0.00    +0.000 C 
ATOM     16  C   UNL     1      -4.849 -11.242   9.526  0.00  0.00    +0.000 C 
ATOM     17  C   UNL     1      -4.333  -9.996   8.812  0.00  0.00    +0.000 C 
ENDBRANCH   8   7
ENDBRANCH   5   8
ENDBRANCH  18   9
BRANCH  23   1
ATOM      1  S   UNL     1      -9.826 -10.819  19.066  0.00  0.00    -0.003 S 
ATOM      3  O   UNL     1     -10.604 -11.918  18.514  0.00  0.00    -0.169 OA
ATOM      4  O   UNL     1      -9.859 -10.553  20.496  0.00  0.00    -0.169 OA
BRANCH   1  25
ATOM     25  C   UNL     1     -10.342  -9.342  18.222  0.00  0.00    +0.168 C 
ATOM     26  C   UNL     1     -11.800  -9.410  17.824  0.00  0.00    +0.028 C 
ENDBRANCH   1  25
ENDBRANCH  23   1
TORSDOF 5
ENDMDL
MODEL 4
REMARK VINA RESULT:      -6.4     30.209     33.989
REMARK  Name = 51137133
REMARK  6 active torsions:
REMARK  status: ('A' for Active; 'I' for Inactive)
REMARK    1  A    between atoms: S_1  and  C_23
REMARK    2  A    between atoms: S_1  and  C_25
REMARK    3  A    between atoms: N_5  and  C_8
REMARK    4  A    between atoms: C_7  and  C_8
REMARK    5  A    between atoms: C_9  and  C_18
REMARK    6  A    between atoms: C_25  and  C_26
REMARK                            x       y       z     vdW  Elec       q    Type
REMARK                         _______ _______ _______ _____ _____    ______ ____
ROOT
ATOM      2  O   UNL     1     -14.225   5.166  22.457  0.00  0.00    -0.439 OA
ATOM      6  N   UNL     1     -15.485   7.041  22.638  0.00  0.00    -0.213 NA
ATOM     18  C   UNL     1     -15.368   5.759  22.904  0.00  0.00    +0.201 A 
ATOM     19  C   UNL     1     -14.327   7.330  21.958  0.00  0.00    +0.111 A 
ATOM     20  C   UNL     1     -13.553   6.185  21.845  0.00  0.00    +0.155 A 
ATOM     21  C   UNL     1     -13.851   8.527  21.403  0.00  0.00    +0.058 A 
ATOM     22  C   UNL     1     -12.317   6.123  21.214  0.00  0.00    +0.050 A 
ATOM     23  C   UNL     1     -12.606   8.505  20.758  0.00  0.00    +0.090 A 
ATOM     24  C   UNL     1     -11.856   7.326  20.666  0.00  0.00    +0.030 A 
ENDROOT
BRANCH  18   9
ATOM      5  N   UNL     1     -16.916   4.100  25.780  0.00  0.00    -0.301 NA
ATOM      9  C   UNL     1     -16.334   4.859  23.639  0.00  0.00    +0.090 C 
ATOM     10  C   UNL     1     -16.639   5.346  25.062  0.00  0.00    +0.097 C 
ATOM     13  C   UNL     1     -15.889   3.164  25.321  0.00  0.00    +0.085 C 
ATOM     14  C   UNL     1     -15.855   3.407  23.818  0.00  0.00    +0.029 C 
BRANCH   5   8
ATOM      8  C   UNL     1     -16.900   4.276  27.225  0.00  0.00    +0.088 C 
BRANCH   8   7
ATOM      7  C   UNL     1     -16.165   3.121  27.905  0.00  0.00    +0.003 C 
ATOM     11  C   UNL     1     -15.332   3.632  29.088  0.00  0.00    +0.005 C 
ATOM     12  C   UNL     1     -17.157   2.042  28.359  0.00  0.00    +0.005 C 
ATOM     15  C   UNL     1     -14.630   2.488  29.818  0.00  0.00    +0.000 C 
ATOM     16  C   UNL     1     -16.451   0.901  29.090  0.00  0.00    +0.000 C 
ATOM     17  C   UNL     1     -15.617   1.412  30.260  0.00  0.00    +0.000 C 
ENDBRANCH   8   7
ENDBRANCH   5   8
ENDBRANCH  18   9
BRANCH  23   1
ATOM      1  S   UNL     1     -11.980   9.978  20.052  0.00  0.00    -0.003 S 
ATOM      3  O   UNL     1     -12.682  10.235  18.803  0.00  0.00    -0.169 OA
ATOM      4  O   UNL     1     -11.957  10.995  21.093  0.00  0.00    -0.169 OA
BRANCH   1  25
ATOM     25  C   UNL     1     -10.298   9.584  19.632  0.00  0.00    +0.168 C 
ATOM     26  C   UNL     1     -10.103   9.510  18.134  0.00  0.00    +0.028 C 
ENDBRANCH   1  25
ENDBRANCH  23   1
TORSDOF 5
ENDMDL
MODEL 5
REMARK VINA RESULT:      -6.4     29.904     32.728
REMARK  Name = 51137133
REMARK  6 active torsions:
REMARK  status: ('A' for Active; 'I' for Inactive)
REMARK    1  A    between atoms: S_1  and  C_23
REMARK    2  A    between atoms: S_1  and  C_25
REMARK    3  A    between atoms: N_5  and  C_8
REMARK    4  A    between atoms: C_7  and  C_8
REMARK    5  A    between atoms: C_9  and  C_18
REMARK    6  A    between atoms: C_25  and  C_26
REMARK                            x       y       z     vdW  Elec       q    Type
REMARK                         _______ _______ _______ _____ _____    ______ ____
ROOT
ATOM      2  O   UNL     1     -12.540  -7.750  16.464  0.00  0.00    -0.439 OA
ATOM      6  N   UNL     1     -11.081  -6.223  15.643  0.00  0.00    -0.213 NA
ATOM     18  C   UNL     1     -11.280  -7.230  16.464  0.00  0.00    +0.201 A 
ATOM     19  C   UNL     1     -12.306  -6.055  15.044  0.00  0.00    +0.111 A 
ATOM     20  C   UNL     1     -13.202  -6.988  15.544  0.00  0.00    +0.155 A 
ATOM     21  C   UNL     1     -12.747  -5.145  14.073  0.00  0.00    +0.058 A 
ATOM     22  C   UNL     1     -14.531  -7.098  15.154  0.00  0.00    +0.050 A 
ATOM     23  C   UNL     1     -14.083  -5.224  13.654  0.00  0.00    +0.090 A 
ATOM     24  C   UNL     1     -14.955  -6.182  14.185  0.00  0.00    +0.030 A 
ENDROOT
BRANCH  18   9
ATOM      5  N   UNL     1      -8.666  -9.565  17.530  0.00  0.00    -0.301 NA
ATOM      9  C   UNL     1     -10.297  -7.885  17.407  0.00  0.00    +0.090 C 
ATOM     10  C   UNL     1      -9.055  -8.431  16.689  0.00  0.00    +0.097 C 
ATOM     13  C   UNL     1      -9.922 -10.243  17.853  0.00  0.00    +0.085 C 
ATOM     14  C   UNL     1     -10.855  -9.087  18.190  0.00  0.00    +0.029 C 
BRANCH   5   8
ATOM      8  C   UNL     1      -7.715 -10.446  16.868  0.00  0.00    +0.088 C 
BRANCH   8   7
ATOM      7  C   UNL     1      -6.408 -10.525  17.655  0.00  0.00    +0.003 C 
ATOM     11  C   UNL     1      -6.599 -11.334  18.944  0.00  0.00    +0.005 C 
ATOM     12  C   UNL     1      -5.291 -11.127  16.791  0.00  0.00    +0.005 C 
ATOM     15  C   UNL     1      -5.292 -11.472  19.722  0.00  0.00    +0.000 C 
ATOM     16  C   UNL     1      -3.987 -11.265  17.573  0.00  0.00    +0.000 C 
ATOM     17  C   UNL     1      -4.182 -12.063  18.858  0.00  0.00    +0.000 C 
ENDBRANCH   8   7
ENDBRANCH   5   8
ENDBRANCH  18   9
BRANCH  23   1
ATOM      1  S   UNL     1     -14.669  -4.103  12.445  0.00  0.00    -0.003 S 
ATOM      3  O   UNL     1     -15.781  -4.719  11.734  0.00  0.00    -0.169 OA
ATOM      4  O   UNL     1     -14.847  -2.810  13.088  0.00  0.00    -0.169 OA
BRANCH   1  25
ATOM     25  C   UNL     1     -13.326  -3.961  11.289  0.00  0.00    +0.168 C 
ATOM     26  C   UNL     1     -13.810  -3.508   9.930  0.00  0.00    +0.028 C 
ENDBRANCH   1  25
ENDBRANCH  23   1
TORSDOF 5
ENDMDL
MODEL 6
REMARK VINA RESULT:      -6.3      1.779      2.309
REMARK  Name = 51137133
REMARK  6 active torsions:
REMARK  status: ('A' for Active; 'I' for Inactive)
REMARK    1  A    between atoms: S_1  and  C_23
REMARK    2  A    between atoms: S_1  and  C_25
REMARK    3  A    between atoms: N_5  and  C_8
REMARK    4  A    between atoms: C_7  and  C_8
REMARK    5  A    between atoms: C_9  and  C_18
REMARK    6  A    between atoms: C_25  and  C_26
REMARK                            x       y       z     vdW  Elec       q    Type
REMARK                         _______ _______ _______ _____ _____    ______ ____
ROOT
ATOM      2  O   UNL     1      19.000   5.889  19.778  0.00  0.00    -0.439 OA
ATOM      6  N   UNL     1      18.817   7.186  21.627  0.00  0.00    -0.213 NA
ATOM     18  C   UNL     1      19.593   6.439  20.874  0.00  0.00    +0.201 A 
ATOM     19  C   UNL     1      17.605   7.132  20.983  0.00  0.00    +0.111 A 
ATOM     20  C   UNL     1      17.713   6.340  19.850  0.00  0.00    +0.155 A 
ATOM     21  C   UNL     1      16.367   7.720  21.283  0.00  0.00    +0.058 A 
ATOM     22  C   UNL     1      16.673   6.072  18.968  0.00  0.00    +0.050 A 
ATOM     23  C   UNL     1      15.293   7.473  20.416  0.00  0.00    +0.090 A 
ATOM     24  C   UNL     1      15.445   6.665  19.282  0.00  0.00    +0.030 A 
ENDROOT
BRANCH  18   9
ATOM      5  N   UNL     1      22.558   5.071  22.534  0.00  0.00    -0.301 NA
ATOM      9  C   UNL     1      21.056   6.112  21.066  0.00  0.00    +0.090 C 
ATOM     10  C   UNL     1      21.280   4.821  21.865  0.00  0.00    +0.097 C 
ATOM     13  C   UNL     1      22.473   6.452  23.010  0.00  0.00    +0.085 C 
ATOM     14  C   UNL     1      21.864   7.183  21.820  0.00  0.00    +0.029 C 
BRANCH   5   8
ATOM      8  C   UNL     1      22.814   4.128  23.613  0.00  0.00    +0.088 C 
BRANCH   8   7
ATOM      7  C   UNL     1      23.161   2.747  23.059  0.00  0.00    +0.003 C 
ATOM     11  C   UNL     1      23.896   2.871  21.718  0.00  0.00    +0.005 C 
ATOM     12  C   UNL     1      23.999   1.952  24.070  0.00  0.00    +0.005 C 
ATOM     15  C   UNL     1      24.302   1.505  21.169  0.00  0.00    +0.000 C 
ATOM     16  C   UNL     1      24.403   0.587  23.517  0.00  0.00    +0.000 C 
ATOM     17  C   UNL     1      25.127   0.714  22.180  0.00  0.00    +0.000 C 
ENDBRANCH   8   7
ENDBRANCH   5   8
ENDBRANCH  18   9
BRANCH  23   1
ATOM      1  S   UNL     1      13.733   8.188  20.760  0.00  0.00    -0.003 S 
ATOM      3  O   UNL     1      13.630   8.422  22.193  0.00  0.00    -0.169 OA
ATOM      4  O   UNL     1      13.533   9.288  19.829  0.00  0.00    -0.169 OA
BRANCH   1  25
ATOM     25  C   UNL     1      12.566   6.909  20.356  0.00  0.00    +0.168 C 
ATOM     26  C   UNL     1      11.453   6.830  21.377  0.00  0.00    +0.028 C 
ENDBRANCH   1  25
ENDBRANCH  23   1
TORSDOF 5
ENDMDL
MODEL 7
REMARK VINA RESULT:      -6.3     29.830     33.669
REMARK  Name = 51137133
REMARK  6 active torsions:
REMARK  status: ('A' for Active; 'I' for Inactive)
REMARK    1  A    between atoms: S_1  and  C_23
REMARK    2  A    between atoms: S_1  and  C_25
REMARK    3  A    between atoms: N_5  and  C_8
REMARK    4  A    between atoms: C_7  and  C_8
REMARK    5  A    between atoms: C_9  and  C_18
REMARK    6  A    between atoms: C_25  and  C_26
REMARK                            x       y       z     vdW  Elec       q    Type
REMARK                         _______ _______ _______ _____ _____    ______ ____
ROOT
ATOM      2  O   UNL     1      -9.654  -8.361  15.842  0.00  0.00    -0.439 OA
ATOM      6  N   UNL     1     -10.811  -9.094  17.647  0.00  0.00    -0.213 NA
ATOM     18  C   UNL     1     -10.822  -8.379  16.544  0.00  0.00    +0.201 A 
ATOM     19  C   UNL     1      -9.533  -9.596  17.687  0.00  0.00    +0.111 A 
ATOM     20  C   UNL     1      -8.821  -9.150  16.584  0.00  0.00    +0.155 A 
ATOM     21  C   UNL     1      -8.892 -10.431  18.613  0.00  0.00    +0.058 A 
ATOM     22  C   UNL     1      -7.496  -9.468  16.313  0.00  0.00    +0.050 A 
ATOM     23  C   UNL     1      -7.554 -10.776  18.375  0.00  0.00    +0.090 A 
ATOM     24  C   UNL     1      -6.871 -10.303  17.247  0.00  0.00    +0.030 A 
ENDROOT
BRANCH  18   9
ATOM      5  N   UNL     1     -12.766  -6.685  13.942  0.00  0.00    -0.301 NA
ATOM      9  C   UNL     1     -11.958  -7.576  15.955  0.00  0.00    +0.090 C 
ATOM     10  C   UNL     1     -12.252  -7.940  14.493  0.00  0.00    +0.097 C 
ATOM     13  C   UNL     1     -11.884  -5.648  14.479  0.00  0.00    +0.085 C 
ATOM     14  C   UNL     1     -11.733  -6.053  15.940  0.00  0.00    +0.029 C 
BRANCH   5   8
ATOM      8  C   UNL     1     -12.795  -6.688  12.487  0.00  0.00    +0.088 C 
BRANCH   8   7
ATOM      7  C   UNL     1     -12.796  -5.261  11.940  0.00  0.00    +0.003 C 
ATOM     11  C   UNL     1     -11.905  -5.158  10.695  0.00  0.00    +0.005 C 
ATOM     12  C   UNL     1     -14.227  -4.803  11.628  0.00  0.00    +0.005 C 
ATOM     15  C   UNL     1     -11.933  -3.752  10.098  0.00  0.00    +0.000 C 
ATOM     16  C   UNL     1     -14.251  -3.397  11.030  0.00  0.00    +0.000 C 
ATOM     17  C   UNL     1     -13.358  -3.295   9.797  0.00  0.00    +0.000 C 
ENDBRANCH   8   7
ENDBRANCH   5   8
ENDBRANCH  18   9
BRANCH  23   1
ATOM      1  S   UNL     1      -6.721 -11.815  19.510  0.00  0.00    -0.003 S 
ATOM      3  O   UNL     1      -6.199 -10.999  20.597  0.00  0.00    -0.169 OA
ATOM      4  O   UNL     1      -7.594 -12.941  19.804  0.00  0.00    -0.169 OA
BRANCH   1  25
ATOM     25  C   UNL     1      -5.322 -12.427  18.600  0.00  0.00    +0.168 C 
ATOM     26  C   UNL     1      -4.020 -12.094  19.293  0.00  0.00    +0.028 C 
ENDBRANCH   1  25
ENDBRANCH  23   1
TORSDOF 5
ENDMDL
MODEL 8
REMARK VINA RESULT:      -6.2     18.028     20.948
REMARK  Name = 51137133
REMARK  6 active torsions:
REMARK  status: ('A' for Active; 'I' for Inactive)
REMARK    1  A    between atoms: S_1  and  C_23
REMARK    2  A    between atoms: S_1  and  C_25
REMARK    3  A    between atoms: N_5  and  C_8
REMARK    4  A    between atoms: C_7  and  C_8
REMARK    5  A    between atoms: C_9  and  C_18
REMARK    6  A    between atoms: C_25  and  C_26
REMARK                            x       y       z     vdW  Elec       q    Type
REMARK                         _______ _______ _______ _____ _____    ______ ____
ROOT
ATOM      2  O   UNL     1      11.319   4.549   2.644  0.00  0.00    -0.439 OA
ATOM      6  N   UNL     1      12.103   6.642   3.021  0.00  0.00    -0.213 NA
ATOM     18  C   UNL     1      12.045   5.615   2.202  0.00  0.00    +0.201 A 
ATOM     19  C   UNL     1      11.356   6.231   4.098  0.00  0.00    +0.111 A 
ATOM     20  C   UNL     1      10.874   4.951   3.871  0.00  0.00    +0.155 A 
ATOM     21  C   UNL     1      11.034   6.872   5.302  0.00  0.00    +0.058 A 
ATOM     22  C   UNL     1      10.081   4.233   4.758  0.00  0.00    +0.050 A 
ATOM     23  C   UNL     1      10.235   6.180   6.225  0.00  0.00    +0.090 A 
ATOM     24  C   UNL     1       9.769   4.887   5.956  0.00  0.00    +0.030 A 
ENDROOT
BRANCH  18   9
ATOM      5  N   UNL     1      12.948   3.952  -0.935  0.00  0.00    -0.301 NA
ATOM      9  C   UNL     1      12.677   5.463   0.838  0.00  0.00    +0.090 C 
ATOM     10  C   UNL     1      11.899   4.508  -0.078  0.00  0.00    +0.097 C 
ATOM     13  C   UNL     1      14.062   3.665  -0.030  0.00  0.00    +0.085 C 
ATOM     14  C   UNL     1      14.113   4.907   0.850  0.00  0.00    +0.029 C 
BRANCH   5   8
ATOM      8  C   UNL     1      12.504   2.770  -1.660  0.00  0.00    +0.088 C 
BRANCH   8   7
ATOM      7  C   UNL     1      11.325   3.103  -2.573  0.00  0.00    +0.003 C 
ATOM     11  C   UNL     1      11.816   3.733  -3.883  0.00  0.00    +0.005 C 
ATOM     12  C   UNL     1      10.484   1.849  -2.850  0.00  0.00    +0.005 C 
ATOM     15  C   UNL     1      10.658   4.026  -4.836  0.00  0.00    +0.000 C 
ATOM     16  C   UNL     1       9.329   2.146  -3.804  0.00  0.00    +0.000 C 
ATOM     17  C   UNL     1       9.819   2.779  -5.102  0.00  0.00    +0.000 C 
ENDBRANCH   8   7
ENDBRANCH   5   8
ENDBRANCH  18   9
BRANCH  23   1
ATOM      1  S   UNL     1       9.815   6.947   7.740  0.00  0.00    -0.003 S 
ATOM      3  O   UNL     1      10.691   8.092   7.945  0.00  0.00    -0.169 OA
ATOM      4  O   UNL     1       8.371   7.125   7.763  0.00  0.00    -0.169 OA
BRANCH   1  25
ATOM     25  C   UNL     1      10.239   5.741   8.975  0.00  0.00    +0.168 C 
ATOM     26  C   UNL     1       9.009   5.054   9.525  0.00  0.00    +0.028 C 
ENDBRANCH   1  25
ENDBRANCH  23   1
TORSDOF 5
ENDMDL
MODEL 9
REMARK VINA RESULT:      -6.2     28.738     31.344
REMARK  Name = 51137133
REMARK  6 active torsions:
REMARK  status: ('A' for Active; 'I' for Inactive)
REMARK    1  A    between atoms: S_1  and  C_23
REMARK    2  A    between atoms: S_1  and  C_25
REMARK    3  A    between atoms: N_5  and  C_8
REMARK    4  A    between atoms: C_7  and  C_8
REMARK    5  A    between atoms: C_9  and  C_18
REMARK    6  A    between atoms: C_25  and  C_26
REMARK                            x       y       z     vdW  Elec       q    Type
REMARK                         _______ _______ _______ _____ _____    ______ ____
ROOT
ATOM      2  O   UNL     1      -7.740  -9.054  16.915  0.00  0.00    -0.439 OA
ATOM      6  N   UNL     1      -7.363 -11.010  17.997  0.00  0.00    -0.213 NA
ATOM     18  C   UNL     1      -6.874 -10.058  17.234  0.00  0.00    +0.201 A 
ATOM     19  C   UNL     1      -8.661 -10.612  18.207  0.00  0.00    +0.111 A 
ATOM     20  C   UNL     1      -8.896  -9.416  17.547  0.00  0.00    +0.155 A 
ATOM     21  C   UNL     1      -9.704 -11.198  18.939  0.00  0.00    +0.058 A 
ATOM     22  C   UNL     1     -10.107  -8.734  17.549  0.00  0.00    +0.050 A 
ATOM     23  C   UNL     1     -10.942 -10.540  18.965  0.00  0.00    +0.090 A 
ATOM     24  C   UNL     1     -11.137  -9.332  18.284  0.00  0.00    +0.030 A 
ENDROOT
BRANCH  18   9
ATOM      5  N   UNL     1      -4.102 -10.677  14.921  0.00  0.00    -0.301 NA
ATOM      9  C   UNL     1      -5.480  -9.931  16.665  0.00  0.00    +0.090 C 
ATOM     10  C   UNL     1      -5.437 -10.118  15.142  0.00  0.00    +0.097 C 
ATOM     13  C   UNL     1      -3.927 -11.669  15.982  0.00  0.00    +0.085 C 
ATOM     14  C   UNL     1      -4.464 -10.949  17.212  0.00  0.00    +0.029 C 
BRANCH   5   8
ATOM      8  C   UNL     1      -3.954 -11.254  13.593  0.00  0.00    +0.088 C 
BRANCH   8   7
ATOM      7  C   UNL     1      -3.790 -10.160  12.539  0.00  0.00    +0.003 C 
ATOM     11  C   UNL     1      -2.511 -10.383  11.721  0.00  0.00    +0.005 C 
ATOM     12  C   UNL     1      -5.021 -10.099  11.625  0.00  0.00    +0.005 C 
ATOM     15  C   UNL     1      -2.353  -9.331  10.624  0.00  0.00    +0.000 C 
ATOM     16  C   UNL     1      -4.858  -9.047  10.530  0.00  0.00    +0.000 C 
ATOM     17  C   UNL     1      -3.582  -9.267   9.723  0.00  0.00    +0.000 C 
ENDBRANCH   8   7
ENDBRANCH   5   8
ENDBRANCH  18   9
BRANCH  23   1
ATOM      1  S   UNL     1     -12.267 -11.242  19.866  0.00  0.00    -0.003 S 
ATOM      3  O   UNL     1     -13.305 -11.650  18.930  0.00  0.00    -0.169 OA
ATOM      4  O   UNL     1     -11.708 -12.211  20.796  0.00  0.00    -0.169 OA
BRANCH   1  25
ATOM     25  C   UNL     1     -12.922  -9.887  20.812  0.00  0.00    +0.168 C 
ATOM     26  C   UNL     1     -14.302  -9.493  20.334  0.00  0.00    +0.028 C 
ENDBRANCH   1  25
ENDBRANCH  23   1
TORSDOF 5
ENDMDL
MODEL 10
REMARK VINA RESULT:      -6.2     30.207     33.972
REMARK  Name = 51137133
REMARK  6 active torsions:
REMARK  status: ('A' for Active; 'I' for Inactive)
REMARK    1  A    between atoms: S_1  and  C_23
REMARK    2  A    between atoms: S_1  and  C_25
REMARK    3  A    between atoms: N_5  and  C_8
REMARK    4  A    between atoms: C_7  and  C_8
REMARK    5  A    between atoms: C_9  and  C_18
REMARK    6  A    between atoms: C_25  and  C_26
REMARK                            x       y       z     vdW  Elec       q    Type
REMARK                         _______ _______ _______ _____ _____    ______ ____
ROOT
ATOM      2  O   UNL     1     -13.709   6.201  22.152  0.00  0.00    -0.439 OA
ATOM      6  N   UNL     1     -15.301   6.972  20.735  0.00  0.00    -0.213 NA
ATOM     18  C   UNL     1     -15.032   6.372  21.873  0.00  0.00    +0.201 A 
ATOM     19  C   UNL     1     -14.057   7.224  20.209  0.00  0.00    +0.111 A 
ATOM     20  C   UNL     1     -13.080   6.754  21.073  0.00  0.00    +0.155 A 
ATOM     21  C   UNL     1     -13.663   7.842  19.013  0.00  0.00    +0.058 A 
ATOM     22  C   UNL     1     -11.712   6.846  20.848  0.00  0.00    +0.050 A 
ATOM     23  C   UNL     1     -12.290   7.954  18.750  0.00  0.00    +0.090 A 
ATOM     24  C   UNL     1     -11.336   7.465  19.651  0.00  0.00    +0.030 A 
ENDROOT
BRANCH  18   9
ATOM      5  N   UNL     1     -16.454   3.988  24.264  0.00  0.00    -0.301 NA
ATOM      9  C   UNL     1     -15.998   5.847  22.911  0.00  0.00    +0.090 C 
ATOM     10  C   UNL     1     -15.344   4.868  23.895  0.00  0.00    +0.097 C 
ATOM     13  C   UNL     1     -17.150   3.711  23.007  0.00  0.00    +0.085 C 
ATOM     14  C   UNL     1     -17.204   5.079  22.340  0.00  0.00    +0.029 C 
BRANCH   5   8
ATOM      8  C   UNL     1     -16.002   2.773  24.927  0.00  0.00    +0.088 C 
BRANCH   8   7
ATOM      7  C   UNL     1     -16.736   2.571  26.252  0.00  0.00    +0.003 C 
ATOM     11  C   UNL     1     -16.905   1.076  26.555  0.00  0.00    +0.005 C 
ATOM     12  C   UNL     1     -15.996   3.280  27.394  0.00  0.00    +0.005 C 
ATOM     15  C   UNL     1     -17.590   0.848  27.901  0.00  0.00    +0.000 C 
ATOM     16  C   UNL     1     -16.682   3.049  28.739  0.00  0.00    +0.000 C 
ATOM     17  C   UNL     1     -16.857   1.562  29.033  0.00  0.00    +0.000 C 
ENDBRANCH   8   7
ENDBRANCH   5   8
ENDBRANCH  18   9
BRANCH  23   1
ATOM      1  S   UNL     1     -11.761   8.717  17.267  0.00  0.00    -0.003 S 
ATOM      3  O   UNL     1     -10.433   8.224  16.934  0.00  0.00    -0.169 OA
ATOM      4  O   UNL     1     -12.842   8.604  16.300  0.00  0.00    -0.169 OA
BRANCH   1  25
ATOM     25  C   UNL     1     -11.586  10.434  17.695  0.00  0.00    +0.168 C 
ATOM     26  C   UNL     1     -10.178  10.753  18.146  0.00  0.00    +0.028 C 
ENDBRANCH   1  25
ENDBRANCH  23   1
TORSDOF 5
ENDMDL
