MODEL 1
REMARK VINA RESULT:      -6.6      0.000      0.000
REMARK  Name = 25389737
REMARK  9 active torsions:
REMARK  status: ('A' for Active; 'I' for Inactive)
REMARK    1  A    between atoms: O_2  and  C_21
REMARK    2  A    between atoms: O_2  and  C_33
REMARK    3  A    between atoms: N_6  and  C_12
REMARK    4  A    between atoms: N_6  and  C_22
REMARK    5  A    between atoms: N_8  and  C_27
REMARK    6  A    between atoms: C_10  and  C_18
REMARK    7  A    between atoms: C_14  and  C_21
REMARK    8  A    between atoms: C_22  and  C_27
REMARK    9  A    between atoms: C_34  and  C_35
REMARK                            x       y       z     vdW  Elec       q    Type
REMARK                         _______ _______ _______ _____ _____    ______ ____
ROOT
ATOM      5  N   UNL     1      10.093   6.428   2.869  0.00  0.00    -0.274 NA
ATOM      7  N   UNL     1       7.440   8.577   4.433  0.00  0.00    -0.356 N 
ATOM      9  C   UNL     1       9.403   6.971   4.080  0.00  0.00    +0.106 C 
ATOM     10  C   UNL     1      11.082   5.376   3.216  0.00  0.00    +0.093 C 
ATOM     11  C   UNL     1       8.694   5.843   4.849  0.00  0.00    +0.044 C 
ATOM     12  C   UNL     1       9.661   4.731   5.261  0.00  0.00    +0.057 C 
ATOM     13  C   UNL     1      10.415   4.236   4.027  0.00  0.00    +0.042 C 
ATOM     14  C   UNL     1      10.607   7.496   1.968  0.00  0.00    +0.172 C 
ATOM     15  C   UNL     1       8.442   8.047   3.669  0.00  0.00    +0.038 A 
ATOM     16  C   UNL     1       9.478   8.406   1.421  0.00  0.00    +0.068 C 
ATOM     17  C   UNL     1       8.472   8.726   2.470  0.00  0.00    -0.016 A 
ATOM     19  C   UNL     1       7.423   9.685   2.488  0.00  0.00    +0.003 A 
ATOM     20  C   UNL     1       6.791   9.570   3.730  0.00  0.00    +0.047 A 
ATOM     25  C   UNL     1       6.948  10.646   1.573  0.00  0.00    +0.010 A 
ATOM     26  C   UNL     1       5.705  10.371   4.101  0.00  0.00    +0.026 A 
ATOM     28  C   UNL     1       5.862  11.452   1.931  0.00  0.00    +0.001 A 
ATOM     31  C   UNL     1       5.251  11.315   3.176  0.00  0.00    +0.002 A 
ATOM     37  H   UNL     1       7.202   8.288   5.372  0.00  0.00    +0.166 HD
ENDROOT
BRANCH  10  18
ATOM      1  F   UNL     1       9.670   4.433   0.933  0.00  0.00    -0.205 F 
ATOM     18  C   UNL     1      11.765   4.740   2.007  0.00  0.00    +0.005 A 
ATOM     23  C   UNL     1      11.005   4.301   0.924  0.00  0.00    +0.128 A 
ATOM     24  C   UNL     1      13.153   4.599   1.987  0.00  0.00    +0.008 A 
ATOM     29  C   UNL     1      11.631   3.720  -0.178  0.00  0.00    +0.038 A 
ATOM     30  C   UNL     1      13.779   4.018   0.885  0.00  0.00    +0.000 A 
ATOM     32  C   UNL     1      13.019   3.579  -0.199  0.00  0.00    +0.003 A 
ENDBRANCH  10  18
BRANCH  14  21
ATOM      3  O   UNL     1      11.447   9.030   3.628  0.00  0.00    -0.249 OA
ATOM     21  C   UNL     1      11.662   8.309   2.662  0.00  0.00    +0.325 C 
BRANCH  21   2
ATOM      2  O   UNL     1      12.864   8.114   2.051  0.00  0.00    -0.467 OA
ATOM     33  C   UNL     1      14.006   8.137   2.915  0.00  0.00    +0.280 C 
ENDBRANCH  21   2
ENDBRANCH  14  21
BRANCH  12   6
ATOM      6  N   UNL     1      10.598   5.209   6.280  0.00  0.00    -0.312 NA
ATOM     36  H   UNL     1      10.607   6.228   6.286  0.00  0.00    +0.122 HD
BRANCH   6  22
ATOM     22  C   UNL     1      10.209   4.735   7.598  0.00  0.00    +0.100 C 
BRANCH  22  27
ATOM     27  C   UNL     1       9.832   5.907   8.492  0.00  0.00    +0.119 C 
BRANCH  27   8
ATOM      4  O   UNL     1       8.210   8.078   7.451  0.00  0.00    -0.276 OA
ATOM      8  N   UNL     1      10.291   7.152   7.939  0.00  0.00    -0.314 N 
ATOM     34  C   UNL     1       9.437   8.138   7.463  0.00  0.00    +0.210 C 
ATOM     35  C   UNL     1      10.179   9.349   6.963  0.00  0.00    +0.109 C 
ATOM     38  H   UNL     1      11.294   7.308   7.899  0.00  0.00    +0.149 HD
ENDBRANCH  27   8
ENDBRANCH  22  27
ENDBRANCH   6  22
ENDBRANCH  12   6
TORSDOF 7
ENDMDL
MODEL 2
REMARK VINA RESULT:      -6.5      1.623      2.231
REMARK  Name = 25389737
REMARK  9 active torsions:
REMARK  status: ('A' for Active; 'I' for Inactive)
REMARK    1  A    between atoms: O_2  and  C_21
REMARK    2  A    between atoms: O_2  and  C_33
REMARK    3  A    between atoms: N_6  and  C_12
REMARK    4  A    between atoms: N_6  and  C_22
REMARK    5  A    between atoms: N_8  and  C_27
REMARK    6  A    between atoms: C_10  and  C_18
REMARK    7  A    between atoms: C_14  and  C_21
REMARK    8  A    between atoms: C_22  and  C_27
REMARK    9  A    between atoms: C_34  and  C_35
REMARK                            x       y       z     vdW  Elec       q    Type
REMARK                         _______ _______ _______ _____ _____    ______ ____
ROOT
ATOM      5  N   UNL     1      10.104   6.581   2.562  0.00  0.00    -0.274 NA
ATOM      7  N   UNL     1       7.463   8.681   4.212  0.00  0.00    -0.356 N 
ATOM      9  C   UNL     1       9.492   7.176   3.790  0.00  0.00    +0.106 C 
ATOM     10  C   UNL     1      11.191   5.624   2.888  0.00  0.00    +0.093 C 
ATOM     11  C   UNL     1       8.936   6.072   4.707  0.00  0.00    +0.044 C 
ATOM     12  C   UNL     1      10.012   5.059   5.105  0.00  0.00    +0.057 C 
ATOM     13  C   UNL     1      10.681   4.514   3.844  0.00  0.00    +0.042 C 
ATOM     14  C   UNL     1      10.457   7.602   1.538  0.00  0.00    +0.172 C 
ATOM     15  C   UNL     1       8.425   8.154   3.396  0.00  0.00    +0.038 A 
ATOM     16  C   UNL     1       9.222   8.393   1.037  0.00  0.00    +0.068 C 
ATOM     17  C   UNL     1       8.298   8.735   2.153  0.00  0.00    -0.016 A 
ATOM     19  C   UNL     1       7.191   9.625   2.201  0.00  0.00    +0.003 A 
ATOM     20  C   UNL     1       6.685   9.572   3.503  0.00  0.00    +0.047 A 
ATOM     25  C   UNL     1       6.568  10.478   1.267  0.00  0.00    +0.010 A 
ATOM     26  C   UNL     1       5.585  10.331   3.917  0.00  0.00    +0.026 A 
ATOM     28  C   UNL     1       5.466  11.241   1.668  0.00  0.00    +0.001 A 
ATOM     31  C   UNL     1       4.984  11.168   2.973  0.00  0.00    +0.002 A 
ATOM     37  H   UNL     1       7.334   8.455   5.189  0.00  0.00    +0.166 HD
ENDROOT
BRANCH  10  18
ATOM      1  F   UNL     1      13.992   5.453   2.426  0.00  0.00    -0.205 F 
ATOM     18  C   UNL     1      11.802   4.935   1.670  0.00  0.00    +0.005 A 
ATOM     23  C   UNL     1      13.187   4.892   1.512  0.00  0.00    +0.128 A 
ATOM     24  C   UNL     1      10.973   4.348   0.715  0.00  0.00    +0.008 A 
ATOM     29  C   UNL     1      13.742   4.264   0.398  0.00  0.00    +0.038 A 
ATOM     30  C   UNL     1      11.528   3.719  -0.399  0.00  0.00    +0.000 A 
ATOM     32  C   UNL     1      12.913   3.676  -0.558  0.00  0.00    +0.003 A 
ENDBRANCH  10  18
BRANCH  14  21
ATOM      3  O   UNL     1      12.511   8.164   2.669  0.00  0.00    -0.249 OA
ATOM     21  C   UNL     1      11.513   8.533   2.064  0.00  0.00    +0.325 C 
BRANCH  21   2
ATOM      2  O   UNL     1      11.180   9.819   1.761  0.00  0.00    -0.467 OA
ATOM     33  C   UNL     1      12.213  10.788   1.969  0.00  0.00    +0.280 C 
ENDBRANCH  21   2
ENDBRANCH  14  21
BRANCH  12   6
ATOM      6  N   UNL     1      11.004   5.675   5.989  0.00  0.00    -0.312 NA
ATOM     36  H   UNL     1      11.226   6.612   5.654  0.00  0.00    +0.122 HD
BRANCH   6  22
ATOM     22  C   UNL     1      10.493   5.770   7.346  0.00  0.00    +0.100 C 
BRANCH  22  27
ATOM     27  C   UNL     1      10.267   4.380   7.926  0.00  0.00    +0.119 C 
BRANCH  27   8
ATOM      4  O   UNL     1      10.439   4.780  10.796  0.00  0.00    -0.276 OA
ATOM      8  N   UNL     1       9.186   4.381   8.874  0.00  0.00    -0.314 N 
ATOM     34  C   UNL     1       9.364   4.583  10.236  0.00  0.00    +0.210 C 
ATOM     35  C   UNL     1       8.064   4.559  10.996  0.00  0.00    +0.109 C 
ATOM     38  H   UNL     1       8.247   4.224   8.517  0.00  0.00    +0.149 HD
ENDBRANCH  27   8
ENDBRANCH  22  27
ENDBRANCH   6  22
ENDBRANCH  12   6
TORSDOF 7
ENDMDL
MODEL 3
REMARK VINA RESULT:      -6.3     24.827     27.773
REMARK  Name = 25389737
REMARK  9 active torsions:
REMARK  status: ('A' for Active; 'I' for Inactive)
REMARK    1  A    between atoms: O_2  and  C_21
REMARK    2  A    between atoms: O_2  and  C_33
REMARK    3  A    between atoms: N_6  and  C_12
REMARK    4  A    between atoms: N_6  and  C_22
REMARK    5  A    between atoms: N_8  and  C_27
REMARK    6  A    between atoms: C_10  and  C_18
REMARK    7  A    between atoms: C_14  and  C_21
REMARK    8  A    between atoms: C_22  and  C_27
REMARK    9  A    between atoms: C_34  and  C_35
REMARK                            x       y       z     vdW  Elec       q    Type
REMARK                         _______ _______ _______ _____ _____    ______ ____
ROOT
ATOM      5  N   UNL     1      -7.232 -10.106  15.769  0.00  0.00    -0.274 NA
ATOM      7  N   UNL     1      -3.813 -10.738  14.347  0.00  0.00    -0.356 N 
ATOM      9  C   UNL     1      -5.915 -10.814  15.809  0.00  0.00    +0.106 C 
ATOM     10  C   UNL     1      -8.054 -10.390  16.973  0.00  0.00    +0.093 C 
ATOM     11  C   UNL     1      -5.124 -10.415  17.067  0.00  0.00    +0.044 C 
ATOM     12  C   UNL     1      -5.904 -10.703  18.352  0.00  0.00    +0.057 C 
ATOM     13  C   UNL     1      -7.277 -10.037  18.267  0.00  0.00    +0.042 C 
ATOM     14  C   UNL     1      -7.943 -10.279  14.473  0.00  0.00    +0.172 C 
ATOM     15  C   UNL     1      -5.146 -10.514  14.557  0.00  0.00    +0.038 A 
ATOM     16  C   UNL     1      -7.138  -9.713  13.274  0.00  0.00    +0.068 C 
ATOM     17  C   UNL     1      -5.689 -10.031  13.386  0.00  0.00    -0.016 A 
ATOM     19  C   UNL     1      -4.639  -9.921  12.434  0.00  0.00    +0.003 A 
ATOM     20  C   UNL     1      -3.474 -10.369  13.063  0.00  0.00    +0.047 A 
ATOM     25  C   UNL     1      -4.562  -9.487  11.094  0.00  0.00    +0.010 A 
ATOM     26  C   UNL     1      -2.233 -10.405  12.416  0.00  0.00    +0.026 A 
ATOM     28  C   UNL     1      -3.327  -9.517  10.437  0.00  0.00    +0.001 A 
ATOM     31  C   UNL     1      -2.182  -9.969  11.089  0.00  0.00    +0.002 A 
ATOM     37  H   UNL     1      -3.167 -11.114  15.028  0.00  0.00    +0.166 HD
ENDROOT
BRANCH  10  18
ATOM      1  F   UNL     1     -10.588 -11.678  17.048  0.00  0.00    -0.205 F 
ATOM     18  C   UNL     1      -9.380  -9.635  17.013  0.00  0.00    +0.005 A 
ATOM     23  C   UNL     1     -10.584 -10.338  17.049  0.00  0.00    +0.128 A 
ATOM     24  C   UNL     1      -9.387  -8.240  17.016  0.00  0.00    +0.008 A 
ATOM     29  C   UNL     1     -11.795  -9.646  17.086  0.00  0.00    +0.038 A 
ATOM     30  C   UNL     1     -10.597  -7.548  17.053  0.00  0.00    +0.000 A 
ATOM     32  C   UNL     1     -11.802  -8.251  17.088  0.00  0.00    +0.003 A 
ENDBRANCH  10  18
BRANCH  14  21
ATOM      3  O   UNL     1      -8.449 -12.536  15.152  0.00  0.00    -0.249 OA
ATOM     21  C   UNL     1      -8.292 -11.723  14.251  0.00  0.00    +0.325 C 
BRANCH  21   2
ATOM      2  O   UNL     1      -8.401 -11.966  12.914  0.00  0.00    -0.467 OA
ATOM     33  C   UNL     1      -8.481 -13.347  12.544  0.00  0.00    +0.280 C 
ENDBRANCH  21   2
ENDBRANCH  14  21
BRANCH  12   6
ATOM      6  N   UNL     1      -6.044 -12.145  18.563  0.00  0.00    -0.312 NA
ATOM     36  H   UNL     1      -6.801 -12.504  17.982  0.00  0.00    +0.122 HD
BRANCH   6  22
ATOM     22  C   UNL     1      -4.814 -12.836  18.213  0.00  0.00    +0.100 C 
BRANCH  22  27
ATOM     27  C   UNL     1      -5.109 -13.998  17.275  0.00  0.00    +0.119 C 
BRANCH  27   8
ATOM      4  O   UNL     1      -5.453 -14.059  14.393  0.00  0.00    -0.276 OA
ATOM      8  N   UNL     1      -4.084 -14.133  16.276  0.00  0.00    -0.314 N 
ATOM     34  C   UNL     1      -4.343 -14.151  14.912  0.00  0.00    +0.210 C 
ATOM     35  C   UNL     1      -3.089 -14.277  14.089  0.00  0.00    +0.109 C 
ATOM     38  H   UNL     1      -3.123 -14.219  16.596  0.00  0.00    +0.149 HD
ENDBRANCH  27   8
ENDBRANCH  22  27
ENDBRANCH   6  22
ENDBRANCH  12   6
TORSDOF 7
ENDMDL
MODEL 4
REMARK VINA RESULT:      -6.2     25.415     28.199
REMARK  Name = 25389737
REMARK  9 active torsions:
REMARK  status: ('A' for Active; 'I' for Inactive)
REMARK    1  A    between atoms: O_2  and  C_21
REMARK    2  A    between atoms: O_2  and  C_33
REMARK    3  A    between atoms: N_6  and  C_12
REMARK    4  A    between atoms: N_6  and  C_22
REMARK    5  A    between atoms: N_8  and  C_27
REMARK    6  A    between atoms: C_10  and  C_18
REMARK    7  A    between atoms: C_14  and  C_21
REMARK    8  A    between atoms: C_22  and  C_27
REMARK    9  A    between atoms: C_34  and  C_35
REMARK                            x       y       z     vdW  Elec       q    Type
REMARK                         _______ _______ _______ _____ _____    ______ ____
ROOT
ATOM      5  N   UNL     1      -7.669  -9.794  15.320  0.00  0.00    -0.274 NA
ATOM      7  N   UNL     1      -4.204 -10.688  14.179  0.00  0.00    -0.356 N 
ATOM      9  C   UNL     1      -6.416 -10.598  15.467  0.00  0.00    +0.106 C 
ATOM     10  C   UNL     1      -8.604 -10.008  16.454  0.00  0.00    +0.093 C 
ATOM     11  C   UNL     1      -5.702 -10.251  16.785  0.00  0.00    +0.044 C 
ATOM     12  C   UNL     1      -6.602 -10.470  18.002  0.00  0.00    +0.057 C 
ATOM     13  C   UNL     1      -7.910  -9.705  17.807  0.00  0.00    +0.042 C 
ATOM     14  C   UNL     1      -8.285  -9.922  13.971  0.00  0.00    +0.172 C 
ATOM     15  C   UNL     1      -5.529 -10.365  14.280  0.00  0.00    +0.038 A 
ATOM     16  C   UNL     1      -7.346  -9.426  12.841  0.00  0.00    +0.068 C 
ATOM     17  C   UNL     1      -5.938  -9.850  13.069  0.00  0.00    -0.016 A 
ATOM     19  C   UNL     1      -4.810  -9.824  12.205  0.00  0.00    +0.003 A 
ATOM     20  C   UNL     1      -3.736 -10.354  12.926  0.00  0.00    +0.047 A 
ATOM     25  C   UNL     1      -4.593  -9.407  10.876  0.00  0.00    +0.010 A 
ATOM     26  C   UNL     1      -2.453 -10.487  12.381  0.00  0.00    +0.026 A 
ATOM     28  C   UNL     1      -3.316  -9.533  10.320  0.00  0.00    +0.001 A 
ATOM     31  C   UNL     1      -2.263 -10.065  11.063  0.00  0.00    +0.002 A 
ATOM     37  H   UNL     1      -3.645 -11.106  14.910  0.00  0.00    +0.166 HD
ENDROOT
BRANCH  10  18
ATOM      1  F   UNL     1     -11.177 -11.068  15.868  0.00  0.00    -0.205 F 
ATOM     18  C   UNL     1      -9.870  -9.156  16.387  0.00  0.00    +0.005 A 
ATOM     23  C   UNL     1     -11.097  -9.749  16.093  0.00  0.00    +0.128 A 
ATOM     24  C   UNL     1      -9.797  -7.783  16.621  0.00  0.00    +0.008 A 
ATOM     29  C   UNL     1     -12.252  -8.969  16.032  0.00  0.00    +0.038 A 
ATOM     30  C   UNL     1     -10.951  -7.003  16.560  0.00  0.00    +0.000 A 
ATOM     32  C   UNL     1     -12.179  -7.595  16.266  0.00  0.00    +0.003 A 
ENDBRANCH  10  18
BRANCH  14  21
ATOM      3  O   UNL     1      -8.505 -12.266  14.490  0.00  0.00    -0.249 OA
ATOM     21  C   UNL     1      -8.722 -11.338  13.723  0.00  0.00    +0.325 C 
BRANCH  21   2
ATOM      2  O   UNL     1      -9.380 -11.409  12.532  0.00  0.00    -0.467 OA
ATOM     33  C   UNL     1     -10.733 -10.940  12.547  0.00  0.00    +0.280 C 
ENDBRANCH  21   2
ENDBRANCH  14  21
BRANCH  12   6
ATOM      6  N   UNL     1      -6.865 -11.897  18.203  0.00  0.00    -0.312 NA
ATOM     36  H   UNL     1      -6.072 -12.442  17.865  0.00  0.00    +0.122 HD
BRANCH   6  22
ATOM     22  C   UNL     1      -7.069 -12.188  19.612  0.00  0.00    +0.100 C 
BRANCH  22  27
ATOM     27  C   UNL     1      -8.448 -12.794  19.834  0.00  0.00    +0.119 C 
BRANCH  27   8
ATOM      4  O   UNL     1     -11.025 -12.605  18.512  0.00  0.00    -0.276 OA
ATOM      8  N   UNL     1      -9.444 -11.771  20.004  0.00  0.00    -0.314 N 
ATOM     34  C   UNL     1     -10.656 -11.763  19.326  0.00  0.00    +0.210 C 
ATOM     35  C   UNL     1     -11.522 -10.593  19.710  0.00  0.00    +0.109 C 
ATOM     38  H   UNL     1      -9.240 -11.019  20.657  0.00  0.00    +0.149 HD
ENDBRANCH  27   8
ENDBRANCH  22  27
ENDBRANCH   6  22
ENDBRANCH  12   6
TORSDOF 7
ENDMDL
MODEL 5
REMARK VINA RESULT:      -6.2     22.455     26.362
REMARK  Name = 25389737
REMARK  9 active torsions:
REMARK  status: ('A' for Active; 'I' for Inactive)
REMARK    1  A    between atoms: O_2  and  C_21
REMARK    2  A    between atoms: O_2  and  C_33
REMARK    3  A    between atoms: N_6  and  C_12
REMARK    4  A    between atoms: N_6  and  C_22
REMARK    5  A    between atoms: N_8  and  C_27
REMARK    6  A    between atoms: C_10  and  C_18
REMARK    7  A    between atoms: C_14  and  C_21
REMARK    8  A    between atoms: C_22  and  C_27
REMARK    9  A    between atoms: C_34  and  C_35
REMARK                            x       y       z     vdW  Elec       q    Type
REMARK                         _______ _______ _______ _____ _____    ______ ____
ROOT
ATOM      5  N   UNL     1     -10.288  12.268  17.531  0.00  0.00    -0.274 NA
ATOM      7  N   UNL     1     -12.848  10.619  19.729  0.00  0.00    -0.356 N 
ATOM      9  C   UNL     1     -11.674  12.197  18.088  0.00  0.00    +0.106 C 
ATOM     10  C   UNL     1     -10.070  13.503  16.735  0.00  0.00    +0.093 C 
ATOM     11  C   UNL     1     -11.967  13.424  18.968  0.00  0.00    +0.044 C 
ATOM     12  C   UNL     1     -11.785  14.737  18.204  0.00  0.00    +0.057 C 
ATOM     13  C   UNL     1     -10.392  14.765  17.576  0.00  0.00    +0.042 C 
ATOM     14  C   UNL     1      -9.870  11.008  16.856  0.00  0.00    +0.172 C 
ATOM     15  C   UNL     1     -11.842  10.917  18.853  0.00  0.00    +0.038 A 
ATOM     16  C   UNL     1      -9.861   9.794  17.819  0.00  0.00    +0.068 C 
ATOM     17  C   UNL     1     -11.038   9.804  18.729  0.00  0.00    -0.016 A 
ATOM     19  C   UNL     1     -11.553   8.799  19.592  0.00  0.00    +0.003 A 
ATOM     20  C   UNL     1     -12.687   9.336  20.208  0.00  0.00    +0.047 A 
ATOM     25  C   UNL     1     -11.171   7.480  19.910  0.00  0.00    +0.010 A 
ATOM     26  C   UNL     1     -13.459   8.617  21.127  0.00  0.00    +0.026 A 
ATOM     28  C   UNL     1     -11.933   6.750  20.829  0.00  0.00    +0.001 A 
ATOM     31  C   UNL     1     -13.059   7.312  21.427  0.00  0.00    +0.002 A 
ATOM     37  H   UNL     1     -13.599  11.242  19.993  0.00  0.00    +0.166 HD
ENDROOT
BRANCH  10  18
ATOM      1  F   UNL     1      -9.444  13.661  13.965  0.00  0.00    -0.205 F 
ATOM     18  C   UNL     1      -8.648  13.657  16.202  0.00  0.00    +0.005 A 
ATOM     23  C   UNL     1      -8.420  13.728  14.828  0.00  0.00    +0.128 A 
ATOM     24  C   UNL     1      -7.575  13.729  17.091  0.00  0.00    +0.008 A 
ATOM     29  C   UNL     1      -7.120  13.869  14.343  0.00  0.00    +0.038 A 
ATOM     30  C   UNL     1      -6.275  13.869  16.606  0.00  0.00    +0.000 A 
ATOM     32  C   UNL     1      -6.047  13.940  15.232  0.00  0.00    +0.003 A 
ENDBRANCH  10  18
BRANCH  14  21
ATOM      3  O   UNL     1     -11.432  11.584  15.112  0.00  0.00    -0.249 OA
ATOM     21  C   UNL     1     -10.736  10.738  15.659  0.00  0.00    +0.325 C 
BRANCH  21   2
ATOM      2  O   UNL     1     -10.619   9.430  15.297  0.00  0.00    -0.467 OA
ATOM     33  C   UNL     1     -11.813   8.822  14.790  0.00  0.00    +0.280 C 
ENDBRANCH  21   2
ENDBRANCH  14  21
BRANCH  12   6
ATOM      6  N   UNL     1     -12.816  14.886  17.176  0.00  0.00    -0.312 NA
ATOM     36  H   UNL     1     -12.804  14.075  16.557  0.00  0.00    +0.122 HD
BRANCH   6  22
ATOM     22  C   UNL     1     -14.133  14.995  17.781  0.00  0.00    +0.100 C 
BRANCH  22  27
ATOM     27  C   UNL     1     -15.197  14.457  16.835  0.00  0.00    +0.119 C 
BRANCH  27   8
ATOM      4  O   UNL     1     -15.482  11.959  18.284  0.00  0.00    -0.276 OA
ATOM      8  N   UNL     1     -14.864  13.138  16.373  0.00  0.00    -0.314 N 
ATOM     34  C   UNL     1     -15.036  11.993  17.140  0.00  0.00    +0.210 C 
ATOM     35  C   UNL     1     -14.631  10.742  16.406  0.00  0.00    +0.109 C 
ATOM     38  H   UNL     1     -14.482  13.049  15.435  0.00  0.00    +0.149 HD
ENDBRANCH  27   8
ENDBRANCH  22  27
ENDBRANCH   6  22
ENDBRANCH  12   6
TORSDOF 7
ENDMDL
MODEL 6
REMARK VINA RESULT:      -6.1     24.939     27.760
REMARK  Name = 25389737
REMARK  9 active torsions:
REMARK  status: ('A' for Active; 'I' for Inactive)
REMARK    1  A    between atoms: O_2  and  C_21
REMARK    2  A    between atoms: O_2  and  C_33
REMARK    3  A    between atoms: N_6  and  C_12
REMARK    4  A    between atoms: N_6  and  C_22
REMARK    5  A    between atoms: N_8  and  C_27
REMARK    6  A    between atoms: C_10  and  C_18
REMARK    7  A    between atoms: C_14  and  C_21
REMARK    8  A    between atoms: C_22  and  C_27
REMARK    9  A    between atoms: C_34  and  C_35
REMARK                            x       y       z     vdW  Elec       q    Type
REMARK                         _______ _______ _______ _____ _____    ______ ____
ROOT
ATOM      5  N   UNL     1      -8.184  -9.351  14.961  0.00  0.00    -0.274 NA
ATOM      7  N   UNL     1      -4.688 -10.530  14.261  0.00  0.00    -0.356 N 
ATOM      9  C   UNL     1      -6.994 -10.183  15.320  0.00  0.00    +0.106 C 
ATOM     10  C   UNL     1      -9.223  -9.379  16.022  0.00  0.00    +0.093 C 
ATOM     11  C   UNL     1      -6.377  -9.703  16.645  0.00  0.00    +0.044 C 
ATOM     12  C   UNL     1      -7.389  -9.728  17.793  0.00  0.00    +0.057 C 
ATOM     13  C   UNL     1      -8.632  -8.937  17.386  0.00  0.00    +0.042 C 
ATOM     14  C   UNL     1      -8.687  -9.622  13.587  0.00  0.00    +0.172 C 
ATOM     15  C   UNL     1      -5.996 -10.140  14.200  0.00  0.00    +0.038 A 
ATOM     16  C   UNL     1      -7.630  -9.314  12.496  0.00  0.00    +0.068 C 
ATOM     17  C   UNL     1      -6.272  -9.766  12.902  0.00  0.00    -0.016 A 
ATOM     19  C   UNL     1      -5.074  -9.898  12.149  0.00  0.00    +0.003 A 
ATOM     20  C   UNL     1      -4.096 -10.378  13.025  0.00  0.00    +0.047 A 
ATOM     25  C   UNL     1      -4.721  -9.662  10.804  0.00  0.00    +0.010 A 
ATOM     26  C   UNL     1      -2.780 -10.634  12.621  0.00  0.00    +0.026 A 
ATOM     28  C   UNL     1      -3.410  -9.912  10.388  0.00  0.00    +0.001 A 
ATOM     31  C   UNL     1      -2.455 -10.390  11.284  0.00  0.00    +0.002 A 
ATOM     37  H   UNL     1      -4.216 -10.876  15.086  0.00  0.00    +0.166 HD
ENDROOT
BRANCH  10  18
ATOM      1  F   UNL     1     -11.839 -10.390  15.551  0.00  0.00    -0.205 F 
ATOM     18  C   UNL     1     -10.430  -8.489  15.735  0.00  0.00    +0.005 A 
ATOM     23  C   UNL     1     -11.683  -9.059  15.514  0.00  0.00    +0.128 A 
ATOM     24  C   UNL     1     -10.278  -7.103  15.696  0.00  0.00    +0.008 A 
ATOM     29  C   UNL     1     -12.784  -8.244  15.253  0.00  0.00    +0.038 A 
ATOM     30  C   UNL     1     -11.379  -6.288  15.434  0.00  0.00    +0.000 A 
ATOM     32  C   UNL     1     -12.633  -6.858  15.212  0.00  0.00    +0.003 A 
ENDBRANCH  10  18
BRANCH  14  21
ATOM      3  O   UNL     1      -8.560 -12.011  13.885  0.00  0.00    -0.249 OA
ATOM     21  C   UNL     1      -9.178 -11.037  13.474  0.00  0.00    +0.325 C 
BRANCH  21   2
ATOM      2  O   UNL     1     -10.391 -11.052  12.854  0.00  0.00    -0.467 OA
ATOM     33  C   UNL     1     -10.417 -11.677  11.567  0.00  0.00    +0.280 C 
ENDBRANCH  21   2
ENDBRANCH  14  21
BRANCH  12   6
ATOM      6  N   UNL     1      -7.745 -11.104  18.141  0.00  0.00    -0.312 NA
ATOM     36  H   UNL     1      -7.414 -11.738  17.413  0.00  0.00    +0.122 HD
BRANCH   6  22
ATOM     22  C   UNL     1      -7.142 -11.487  19.407  0.00  0.00    +0.100 C 
BRANCH  22  27
ATOM     27  C   UNL     1      -5.744 -12.043  19.181  0.00  0.00    +0.119 C 
BRANCH  27   8
ATOM      4  O   UNL     1      -4.334 -12.400  16.669  0.00  0.00    -0.276 OA
ATOM      8  N   UNL     1      -5.774 -13.193  18.318  0.00  0.00    -0.314 N 
ATOM     34  C   UNL     1      -5.062 -13.275  17.129  0.00  0.00    +0.210 C 
ATOM     35  C   UNL     1      -5.253 -14.597  16.435  0.00  0.00    +0.109 C 
ATOM     38  H   UNL     1      -6.351 -13.980  18.603  0.00  0.00    +0.149 HD
ENDBRANCH  27   8
ENDBRANCH  22  27
ENDBRANCH   6  22
ENDBRANCH  12   6
TORSDOF 7
ENDMDL
MODEL 7
REMARK VINA RESULT:      -6.1     27.593     30.562
REMARK  Name = 25389737
REMARK  9 active torsions:
REMARK  status: ('A' for Active; 'I' for Inactive)
REMARK    1  A    between atoms: O_2  and  C_21
REMARK    2  A    between atoms: O_2  and  C_33
REMARK    3  A    between atoms: N_6  and  C_12
REMARK    4  A    between atoms: N_6  and  C_22
REMARK    5  A    between atoms: N_8  and  C_27
REMARK    6  A    between atoms: C_10  and  C_18
REMARK    7  A    between atoms: C_14  and  C_21
REMARK    8  A    between atoms: C_22  and  C_27
REMARK    9  A    between atoms: C_34  and  C_35
REMARK                            x       y       z     vdW  Elec       q    Type
REMARK                         _______ _______ _______ _____ _____    ______ ____
ROOT
ATOM      5  N   UNL     1      -9.836  -9.702  17.679  0.00  0.00    -0.274 NA
ATOM      7  N   UNL     1      -7.097 -11.700  19.296  0.00  0.00    -0.356 N 
ATOM      9  C   UNL     1      -9.387 -10.849  18.528  0.00  0.00    +0.106 C 
ATOM     10  C   UNL     1     -11.312  -9.547  17.685  0.00  0.00    +0.093 C 
ATOM     11  C   UNL     1      -9.872 -10.671  19.977  0.00  0.00    +0.044 C 
ATOM     12  C   UNL     1     -11.393 -10.529  20.062  0.00  0.00    +0.057 C 
ATOM     13  C   UNL     1     -11.847  -9.403  19.134  0.00  0.00    +0.042 C 
ATOM     14  C   UNL     1      -9.214  -9.704  16.326  0.00  0.00    +0.172 C 
ATOM     15  C   UNL     1      -7.894 -10.972  18.456  0.00  0.00    +0.038 A 
ATOM     16  C   UNL     1      -7.669  -9.591  16.383  0.00  0.00    +0.068 C 
ATOM     17  C   UNL     1      -7.096 -10.423  17.476  0.00  0.00    -0.016 A 
ATOM     19  C   UNL     1      -5.753 -10.801  17.748  0.00  0.00    +0.003 A 
ATOM     20  C   UNL     1      -5.782 -11.600  18.894  0.00  0.00    +0.047 A 
ATOM     25  C   UNL     1      -4.511 -10.547  17.130  0.00  0.00    +0.010 A 
ATOM     26  C   UNL     1      -4.627 -12.159  19.454  0.00  0.00    +0.026 A 
ATOM     28  C   UNL     1      -3.349 -11.098  17.680  0.00  0.00    +0.001 A 
ATOM     31  C   UNL     1      -3.408 -11.892  18.825  0.00  0.00    +0.002 A 
ATOM     37  H   UNL     1      -7.417 -12.232  20.094  0.00  0.00    +0.166 HD
ENDROOT
BRANCH  10  18
ATOM      1  F   UNL     1     -13.738  -9.559  16.200  0.00  0.00    -0.205 F 
ATOM     18  C   UNL     1     -11.817  -8.346  16.889  0.00  0.00    +0.005 A 
ATOM     23  C   UNL     1     -13.018  -8.429  16.184  0.00  0.00    +0.128 A 
ATOM     24  C   UNL     1     -11.075  -7.165  16.867  0.00  0.00    +0.008 A 
ATOM     29  C   UNL     1     -13.477  -7.330  15.457  0.00  0.00    +0.038 A 
ATOM     30  C   UNL     1     -11.534  -6.067  16.140  0.00  0.00    +0.000 A 
ATOM     32  C   UNL     1     -12.735  -6.149  15.435  0.00  0.00    +0.003 A 
ENDBRANCH  10  18
BRANCH  14  21
ATOM      3  O   UNL     1     -10.792 -11.314  15.471  0.00  0.00    -0.249 OA
ATOM     21  C   UNL     1      -9.635 -10.922  15.555  0.00  0.00    +0.325 C 
BRANCH  21   2
ATOM      2  O   UNL     1      -8.542 -11.500  14.982  0.00  0.00    -0.467 OA
ATOM     33  C   UNL     1      -8.501 -12.930  15.036  0.00  0.00    +0.280 C 
ENDBRANCH  21   2
ENDBRANCH  14  21
BRANCH  12   6
ATOM      6  N   UNL     1     -12.052 -11.787  19.707  0.00  0.00    -0.312 NA
ATOM     36  H   UNL     1     -11.398 -12.387  19.206  0.00  0.00    +0.122 HD
BRANCH   6  22
ATOM     22  C   UNL     1     -12.508 -12.482  20.899  0.00  0.00    +0.100 C 
BRANCH  22  27
ATOM     27  C   UNL     1     -11.563 -13.625  21.240  0.00  0.00    +0.119 C 
BRANCH  27   8
ATOM      4  O   UNL     1      -8.722 -13.953  20.743  0.00  0.00    -0.276 OA
ATOM      8  N   UNL     1     -10.938 -14.154  20.058  0.00  0.00    -0.314 N 
ATOM     34  C   UNL     1      -9.563 -14.275  19.909  0.00  0.00    +0.210 C 
ATOM     35  C   UNL     1      -9.179 -14.882  18.585  0.00  0.00    +0.109 C 
ATOM     38  H   UNL     1     -11.544 -14.452  19.298  0.00  0.00    +0.149 HD
ENDBRANCH  27   8
ENDBRANCH  22  27
ENDBRANCH   6  22
ENDBRANCH  12   6
TORSDOF 7
ENDMDL
MODEL 8
REMARK VINA RESULT:      -5.9     30.919     33.378
REMARK  Name = 25389737
REMARK  9 active torsions:
REMARK  status: ('A' for Active; 'I' for Inactive)
REMARK    1  A    between atoms: O_2  and  C_21
REMARK    2  A    between atoms: O_2  and  C_33
REMARK    3  A    between atoms: N_6  and  C_12
REMARK    4  A    between atoms: N_6  and  C_22
REMARK    5  A    between atoms: N_8  and  C_27
REMARK    6  A    between atoms: C_10  and  C_18
REMARK    7  A    between atoms: C_14  and  C_21
REMARK    8  A    between atoms: C_22  and  C_27
REMARK    9  A    between atoms: C_34  and  C_35
REMARK                            x       y       z     vdW  Elec       q    Type
REMARK                         _______ _______ _______ _____ _____    ______ ____
ROOT
ATOM      5  N   UNL     1       9.976  -7.518  32.473  0.00  0.00    -0.274 NA
ATOM      7  N   UNL     1      12.569  -4.844  32.955  0.00  0.00    -0.356 N 
ATOM      9  C   UNL     1      10.628  -6.473  33.322  0.00  0.00    +0.106 C 
ATOM     10  C   UNL     1       8.755  -8.072  33.110  0.00  0.00    +0.093 C 
ATOM     11  C   UNL     1       9.645  -5.326  33.617  0.00  0.00    +0.044 C 
ATOM     12  C   UNL     1       8.368  -5.823  34.298  0.00  0.00    +0.057 C 
ATOM     13  C   UNL     1       7.753  -6.942  33.459  0.00  0.00    +0.042 C 
ATOM     14  C   UNL     1      10.937  -8.539  31.972  0.00  0.00    +0.172 C 
ATOM     15  C   UNL     1      11.868  -5.975  32.642  0.00  0.00    +0.038 A 
ATOM     16  C   UNL     1      12.047  -7.923  31.083  0.00  0.00    +0.068 C 
ATOM     17  C   UNL     1      12.541  -6.631  31.633  0.00  0.00    -0.016 A 
ATOM     19  C   UNL     1      13.678  -5.851  31.292  0.00  0.00    +0.003 A 
ATOM     20  C   UNL     1      13.673  -4.736  32.135  0.00  0.00    +0.047 A 
ATOM     25  C   UNL     1      14.720  -5.983  30.351  0.00  0.00    +0.010 A 
ATOM     26  C   UNL     1      14.659  -3.745  32.082  0.00  0.00    +0.026 A 
ATOM     28  C   UNL     1      15.712  -4.998  30.287  0.00  0.00    +0.001 A 
ATOM     31  C   UNL     1      15.680  -3.897  31.140  0.00  0.00    +0.002 A 
ATOM     37  H   UNL     1      12.322  -4.181  33.676  0.00  0.00    +0.166 HD
ENDROOT
BRANCH  10  18
ATOM      1  F   UNL     1       8.610 -10.841  33.744  0.00  0.00    -0.205 F 
ATOM     18  C   UNL     1       8.013  -9.094  32.252  0.00  0.00    +0.005 A 
ATOM     23  C   UNL     1       7.987 -10.437  32.628  0.00  0.00    +0.128 A 
ATOM     24  C   UNL     1       7.361  -8.683  31.090  0.00  0.00    +0.008 A 
ATOM     29  C   UNL     1       7.309 -11.368  31.843  0.00  0.00    +0.038 A 
ATOM     30  C   UNL     1       6.683  -9.615  30.304  0.00  0.00    +0.000 A 
ATOM     32  C   UNL     1       6.656 -10.958  30.680  0.00  0.00    +0.003 A 
ENDBRANCH  10  18
BRANCH  14  21
ATOM      3  O   UNL     1      11.337  -9.045  34.295  0.00  0.00    -0.249 OA
ATOM     21  C   UNL     1      11.532  -9.309  33.116  0.00  0.00    +0.325 C 
BRANCH  21   2
ATOM      2  O   UNL     1      12.304 -10.323  32.631  0.00  0.00    -0.467 OA
ATOM     33  C   UNL     1      11.592 -11.492  32.212  0.00  0.00    +0.280 C 
ENDBRANCH  21   2
ENDBRANCH  14  21
BRANCH  12   6
ATOM      6  N   UNL     1       8.653  -6.293  35.655  0.00  0.00    -0.312 NA
ATOM     36  H   UNL     1       9.547  -5.915  35.968  0.00  0.00    +0.122 HD
BRANCH   6  22
ATOM     22  C   UNL     1       7.613  -5.864  36.576  0.00  0.00    +0.100 C 
BRANCH  22  27
ATOM     27  C   UNL     1       6.928  -7.071  37.201  0.00  0.00    +0.119 C 
BRANCH  27   8
ATOM      4  O   UNL     1       6.922  -9.722  36.020  0.00  0.00    -0.276 OA
ATOM      8  N   UNL     1       5.945  -7.629  36.313  0.00  0.00    -0.314 N 
ATOM     34  C   UNL     1       6.024  -8.915  35.795  0.00  0.00    +0.210 C 
ATOM     35  C   UNL     1       4.851  -9.253  34.914  0.00  0.00    +0.109 C 
ATOM     38  H   UNL     1       5.155  -7.043  36.057  0.00  0.00    +0.149 HD
ENDBRANCH  27   8
ENDBRANCH  22  27
ENDBRANCH   6  22
ENDBRANCH  12   6
TORSDOF 7
ENDMDL
MODEL 9
REMARK VINA RESULT:      -5.9     31.688     36.269
REMARK  Name = 25389737
REMARK  9 active torsions:
REMARK  status: ('A' for Active; 'I' for Inactive)
REMARK    1  A    between atoms: O_2  and  C_21
REMARK    2  A    between atoms: O_2  and  C_33
REMARK    3  A    between atoms: N_6  and  C_12
REMARK    4  A    between atoms: N_6  and  C_22
REMARK    5  A    between atoms: N_8  and  C_27
REMARK    6  A    between atoms: C_10  and  C_18
REMARK    7  A    between atoms: C_14  and  C_21
REMARK    8  A    between atoms: C_22  and  C_27
REMARK    9  A    between atoms: C_34  and  C_35
REMARK                            x       y       z     vdW  Elec       q    Type
REMARK                         _______ _______ _______ _____ _____    ______ ____
ROOT
ATOM      5  N   UNL     1      -2.555  10.774  36.911  0.00  0.00    -0.274 NA
ATOM      7  N   UNL     1      -0.141   8.102  37.977  0.00  0.00    -0.356 N 
ATOM      9  C   UNL     1      -1.155  10.300  37.141  0.00  0.00    +0.106 C 
ATOM     10  C   UNL     1      -2.592  12.099  36.241  0.00  0.00    +0.093 C 
ATOM     11  C   UNL     1      -0.387  10.216  35.811  0.00  0.00    +0.044 C 
ATOM     12  C   UNL     1      -0.363  11.557  35.074  0.00  0.00    +0.057 C 
ATOM     13  C   UNL     1      -1.794  12.068  34.912  0.00  0.00    +0.042 C 
ATOM     14  C   UNL     1      -3.411  10.664  38.124  0.00  0.00    +0.172 C 
ATOM     15  C   UNL     1      -1.184   8.977  37.846  0.00  0.00    +0.038 A 
ATOM     16  C   UNL     1      -3.551   9.203  38.621  0.00  0.00    +0.068 C 
ATOM     17  C   UNL     1      -2.259   8.468  38.542  0.00  0.00    -0.016 A 
ATOM     19  C   UNL     1      -1.869   7.216  39.090  0.00  0.00    +0.003 A 
ATOM     20  C   UNL     1      -0.536   7.010  38.720  0.00  0.00    +0.047 A 
ATOM     25  C   UNL     1      -2.514   6.235  39.870  0.00  0.00    +0.010 A 
ATOM     26  C   UNL     1       0.183   5.869  39.093  0.00  0.00    +0.026 A 
ATOM     28  C   UNL     1      -1.807   5.089  40.248  0.00  0.00    +0.001 A 
ATOM     31  C   UNL     1      -0.479   4.910  39.864  0.00  0.00    +0.002 A 
ATOM     37  H   UNL     1       0.784   8.229  37.588  0.00  0.00    +0.166 HD
ENDROOT
BRANCH  10  18
ATOM      1  F   UNL     1      -3.640  14.562  37.202  0.00  0.00    -0.205 F 
ATOM     18  C   UNL     1      -3.999  12.597  35.920  0.00  0.00    +0.005 A 
ATOM     23  C   UNL     1      -4.443  13.817  36.429  0.00  0.00    +0.128 A 
ATOM     24  C   UNL     1      -4.842  11.829  35.116  0.00  0.00    +0.008 A 
ATOM     29  C   UNL     1      -5.729  14.269  36.135  0.00  0.00    +0.038 A 
ATOM     30  C   UNL     1      -6.128  12.281  34.822  0.00  0.00    +0.000 A 
ATOM     32  C   UNL     1      -6.572  13.501  35.331  0.00  0.00    +0.003 A 
ENDBRANCH  10  18
BRANCH  14  21
ATOM      3  O   UNL     1      -2.209  12.551  39.023  0.00  0.00    -0.249 OA
ATOM     21  C   UNL     1      -2.893  11.555  39.217  0.00  0.00    +0.325 C 
BRANCH  21   2
ATOM      2  O   UNL     1      -3.303  11.079  40.426  0.00  0.00    -0.467 OA
ATOM     33  C   UNL     1      -4.085  11.986  41.212  0.00  0.00    +0.280 C 
ENDBRANCH  21   2
ENDBRANCH  14  21
BRANCH  12   6
ATOM      6  N   UNL     1       0.452  12.534  35.799  0.00  0.00    -0.312 NA
ATOM     36  H   UNL     1       1.439  12.373  35.596  0.00  0.00    +0.122 HD
BRANCH   6  22
ATOM     22  C   UNL     1       0.106  13.888  35.403  0.00  0.00    +0.100 C 
BRANCH  22  27
ATOM     27  C   UNL     1       1.179  14.464  34.490  0.00  0.00    +0.119 C 
BRANCH  27   8
ATOM      4  O   UNL     1       0.738  15.111  31.695  0.00  0.00    -0.276 OA
ATOM      8  N   UNL     1       1.403  13.616  33.351  0.00  0.00    -0.314 N 
ATOM     34  C   UNL     1       1.164  14.013  32.042  0.00  0.00    +0.210 C 
ATOM     35  C   UNL     1       1.507  12.940  31.043  0.00  0.00    +0.109 C 
ATOM     38  H   UNL     1       1.755  12.678  33.525  0.00  0.00    +0.149 HD
ENDBRANCH  27   8
ENDBRANCH  22  27
ENDBRANCH   6  22
ENDBRANCH  12   6
TORSDOF 7
ENDMDL
MODEL 10
REMARK VINA RESULT:      -5.8     23.811     27.643
REMARK  Name = 25389737
REMARK  9 active torsions:
REMARK  status: ('A' for Active; 'I' for Inactive)
REMARK    1  A    between atoms: O_2  and  C_21
REMARK    2  A    between atoms: O_2  and  C_33
REMARK    3  A    between atoms: N_6  and  C_12
REMARK    4  A    between atoms: N_6  and  C_22
REMARK    5  A    between atoms: N_8  and  C_27
REMARK    6  A    between atoms: C_10  and  C_18
REMARK    7  A    between atoms: C_14  and  C_21
REMARK    8  A    between atoms: C_22  and  C_27
REMARK    9  A    between atoms: C_34  and  C_35
REMARK                            x       y       z     vdW  Elec       q    Type
REMARK                         _______ _______ _______ _____ _____    ______ ____
ROOT
ATOM      5  N   UNL     1      16.742  -7.432  25.814  0.00  0.00    -0.274 NA
ATOM      7  N   UNL     1      17.262  -3.731  26.185  0.00  0.00    -0.356 N 
ATOM      9  C   UNL     1      17.121  -6.247  26.644  0.00  0.00    +0.106 C 
ATOM     10  C   UNL     1      16.658  -8.674  26.623  0.00  0.00    +0.093 C 
ATOM     11  C   UNL     1      16.111  -6.040  27.786  0.00  0.00    +0.044 C 
ATOM     12  C   UNL     1      15.989  -7.277  28.678  0.00  0.00    +0.057 C 
ATOM     13  C   UNL     1      15.677  -8.495  27.810  0.00  0.00    +0.042 C 
ATOM     14  C   UNL     1      17.551  -7.550  24.570  0.00  0.00    +0.172 C 
ATOM     15  C   UNL     1      17.220  -5.033  25.768  0.00  0.00    +0.038 A 
ATOM     16  C   UNL     1      17.383  -6.326  23.634  0.00  0.00    +0.068 C 
ATOM     17  C   UNL     1      17.360  -5.049  24.398  0.00  0.00    -0.016 A 
ATOM     19  C   UNL     1      17.455  -3.702  23.955  0.00  0.00    +0.003 A 
ATOM     20  C   UNL     1      17.391  -2.895  25.095  0.00  0.00    +0.047 A 
ATOM     25  C   UNL     1      17.595  -3.083  22.696  0.00  0.00    +0.010 A 
ATOM     26  C   UNL     1      17.460  -1.499  25.037  0.00  0.00    +0.026 A 
ATOM     28  C   UNL     1      17.664  -1.688  22.624  0.00  0.00    +0.001 A 
ATOM     31  C   UNL     1      17.597  -0.909  23.778  0.00  0.00    +0.002 A 
ATOM     37  H   UNL     1      17.207  -3.420  27.145  0.00  0.00    +0.166 HD
ENDROOT
BRANCH  10  18
ATOM      1  F   UNL     1      18.275 -10.986  26.261  0.00  0.00    -0.205 F 
ATOM     18  C   UNL     1      16.206  -9.902  25.835  0.00  0.00    +0.005 A 
ATOM     23  C   UNL     1      17.056 -10.999  25.701  0.00  0.00    +0.128 A 
ATOM     24  C   UNL     1      14.940  -9.925  25.250  0.00  0.00    +0.008 A 
ATOM     29  C   UNL     1      16.642 -12.119  24.980  0.00  0.00    +0.038 A 
ATOM     30  C   UNL     1      14.526 -11.044  24.529  0.00  0.00    +0.000 A 
ATOM     32  C   UNL     1      15.376 -12.142  24.394  0.00  0.00    +0.003 A 
ENDBRANCH  10  18
BRANCH  14  21
ATOM      3  O   UNL     1      19.394  -8.237  25.965  0.00  0.00    -0.249 OA
ATOM     21  C   UNL     1      18.998  -7.778  24.901  0.00  0.00    +0.325 C 
BRANCH  21   2
ATOM      2  O   UNL     1      19.773  -7.396  23.847  0.00  0.00    -0.467 OA
ATOM     33  C   UNL     1      21.023  -6.788  24.190  0.00  0.00    +0.280 C 
ENDBRANCH  21   2
ENDBRANCH  14  21
BRANCH  12   6
ATOM      6  N   UNL     1      17.222  -7.491  29.440  0.00  0.00    -0.312 NA
ATOM     36  H   UNL     1      18.006  -7.063  28.948  0.00  0.00    +0.122 HD
BRANCH   6  22
ATOM     22  C   UNL     1      17.117  -6.898  30.763  0.00  0.00    +0.100 C 
BRANCH  22  27
ATOM     27  C   UNL     1      18.055  -5.706  30.885  0.00  0.00    +0.119 C 
BRANCH  27   8
ATOM      4  O   UNL     1      18.403  -3.568  28.953  0.00  0.00    -0.276 OA
ATOM      8  N   UNL     1      17.333  -4.465  30.816  0.00  0.00    -0.314 N 
ATOM     34  C   UNL     1      17.568  -3.496  29.850  0.00  0.00    +0.210 C 
ATOM     35  C   UNL     1      16.655  -2.307  29.994  0.00  0.00    +0.109 C 
ATOM     38  H   UNL     1      16.615  -4.299  31.517  0.00  0.00    +0.149 HD
ENDBRANCH  27   8
ENDBRANCH  22  27
ENDBRANCH   6  22
ENDBRANCH  12   6
TORSDOF 7
ENDMDL
