MODEL 1
REMARK VINA RESULT:      -7.3      0.000      0.000
REMARK  Name = 45784236
REMARK  3 active torsions:
REMARK  status: ('A' for Active; 'I' for Inactive)
REMARK    1  A    between atoms: N_2  and  C_11
REMARK    2  A    between atoms: C_6  and  C_10
REMARK    3  A    between atoms: C_11  and  C_13
REMARK                            x       y       z     vdW  Elec       q    Type
REMARK                         _______ _______ _______ _____ _____    ______ ____
ROOT
ATOM      2  N   UNL     1      11.967   4.257   1.861  0.00  0.00    -0.296 NA
ATOM      6  C   UNL     1      10.467   5.302   3.330  0.00  0.00    +0.070 C 
ATOM      7  C   UNL     1      11.476   6.337   2.803  0.00  0.00    +0.028 C 
ATOM      8  C   UNL     1      11.093   3.943   2.993  0.00  0.00    +0.096 C 
ATOM      9  C   UNL     1      12.621   5.514   2.228  0.00  0.00    +0.085 C 
ENDROOT
BRANCH   6  10
ATOM      1  F   UNL     1       9.266   4.391  10.436  0.00  0.00    -0.205 F 
ATOM      3  N   UNL     1      10.258   4.398   5.661  0.00  0.00    -0.341 N 
ATOM      4  N   UNL     1       9.661   6.521   5.391  0.00  0.00    -0.232 NA
ATOM     10  C   UNL     1      10.118   5.444   4.793  0.00  0.00    +0.113 A 
ATOM     12  C   UNL     1       9.867   4.829   6.903  0.00  0.00    +0.069 A 
ATOM     14  C   UNL     1       9.498   6.157   6.709  0.00  0.00    +0.089 A 
ATOM     15  C   UNL     1       9.806   4.190   8.143  0.00  0.00    +0.066 A 
ATOM     16  C   UNL     1       9.039   6.908   7.804  0.00  0.00    +0.032 A 
ATOM     18  C   UNL     1       9.346   4.952   9.221  0.00  0.00    +0.125 A 
ATOM     19  C   UNL     1       8.969   6.287   9.057  0.00  0.00    +0.040 A 
ATOM     23  H   UNL     1      10.592   3.471   5.433  0.00  0.00    +0.167 HD
ENDBRANCH   6  10
BRANCH   2  11
ATOM     11  C   UNL     1      12.922   3.195   1.584  0.00  0.00    +0.139 C 
BRANCH  11  13
ATOM      5  N   UNL     1      15.202   3.739   0.932  0.00  0.00    -0.259 NA
ATOM     13  C   UNL     1      13.918   3.598   0.530  0.00  0.00    +0.055 A 
ATOM     17  C   UNL     1      13.487   3.799  -0.771  0.00  0.00    +0.024 A 
ATOM     20  C   UNL     1      14.432   4.168  -1.721  0.00  0.00    +0.003 A 
ATOM     21  C   UNL     1      16.093   4.099  -0.019  0.00  0.00    +0.111 A 
ATOM     22  C   UNL     1      15.762   4.324  -1.345  0.00  0.00    +0.020 A 
ENDBRANCH  11  13
ENDBRANCH   2  11
TORSDOF 3
ENDMDL
MODEL 2
REMARK VINA RESULT:      -7.0     16.203     19.622
REMARK  Name = 45784236
REMARK  3 active torsions:
REMARK  status: ('A' for Active; 'I' for Inactive)
REMARK    1  A    between atoms: N_2  and  C_11
REMARK    2  A    between atoms: C_6  and  C_10
REMARK    3  A    between atoms: C_11  and  C_13
REMARK                            x       y       z     vdW  Elec       q    Type
REMARK                         _______ _______ _______ _____ _____    ______ ____
ROOT
ATOM      2  N   UNL     1      11.446   9.613  21.389  0.00  0.00    -0.296 NA
ATOM      6  C   UNL     1      13.259   9.100  19.993  0.00  0.00    +0.070 C 
ATOM      7  C   UNL     1      11.983   8.439  19.443  0.00  0.00    +0.028 C 
ATOM      8  C   UNL     1      12.904   9.489  21.434  0.00  0.00    +0.096 C 
ATOM      9  C   UNL     1      10.994   8.465  20.602  0.00  0.00    +0.085 C 
ENDROOT
BRANCH   6  10
ATOM      1  F   UNL     1      19.702   5.872  20.904  0.00  0.00    -0.205 F 
ATOM      3  N   UNL     1      15.523   8.383  20.803  0.00  0.00    -0.341 N 
ATOM      4  N   UNL     1      14.761   7.326  19.003  0.00  0.00    -0.232 NA
ATOM     10  C   UNL     1      14.504   8.249  19.902  0.00  0.00    +0.113 A 
ATOM     12  C   UNL     1      16.503   7.486  20.464  0.00  0.00    +0.069 A 
ATOM     14  C   UNL     1      16.004   6.837  19.337  0.00  0.00    +0.089 A 
ATOM     15  C   UNL     1      17.745   7.193  21.029  0.00  0.00    +0.066 A 
ATOM     16  C   UNL     1      16.776   5.836  18.724  0.00  0.00    +0.032 A 
ATOM     18  C   UNL     1      18.500   6.195  20.406  0.00  0.00    +0.125 A 
ATOM     19  C   UNL     1      18.026   5.526  19.274  0.00  0.00    +0.040 A 
ATOM     23  H   UNL     1      15.553   9.026  21.582  0.00  0.00    +0.167 HD
ENDBRANCH   6  10
BRANCH   2  11
ATOM     11  C   UNL     1      10.849   9.643  22.716  0.00  0.00    +0.139 C 
BRANCH  11  13
ATOM      5  N   UNL     1      10.863  11.105  24.660  0.00  0.00    -0.259 NA
ATOM     13  C   UNL     1      10.875  11.025  23.311  0.00  0.00    +0.055 A 
ATOM     17  C   UNL     1      10.913  12.126  22.470  0.00  0.00    +0.024 A 
ATOM     20  C   UNL     1      10.938  13.389  23.051  0.00  0.00    +0.003 A 
ATOM     21  C   UNL     1      10.888  12.348  25.190  0.00  0.00    +0.111 A 
ATOM     22  C   UNL     1      10.924  13.510  24.436  0.00  0.00    +0.020 A 
ENDBRANCH  11  13
ENDBRANCH   2  11
TORSDOF 3
ENDMDL
MODEL 3
REMARK VINA RESULT:      -6.7     22.336     25.144
REMARK  Name = 45784236
REMARK  3 active torsions:
REMARK  status: ('A' for Active; 'I' for Inactive)
REMARK    1  A    between atoms: N_2  and  C_11
REMARK    2  A    between atoms: C_6  and  C_10
REMARK    3  A    between atoms: C_11  and  C_13
REMARK                            x       y       z     vdW  Elec       q    Type
REMARK                         _______ _______ _______ _____ _____    ______ ____
ROOT
ATOM      2  N   UNL     1      -2.084 -11.010  13.626  0.00  0.00    -0.296 NA
ATOM      6  C   UNL     1      -3.066 -10.234  15.609  0.00  0.00    +0.070 C 
ATOM      7  C   UNL     1      -1.690 -10.849  15.921  0.00  0.00    +0.028 C 
ATOM      8  C   UNL     1      -3.403 -10.735  14.198  0.00  0.00    +0.096 C 
ATOM      9  C   UNL     1      -1.341 -11.680  14.694  0.00  0.00    +0.085 C 
ENDROOT
BRANCH   6  10
ATOM      1  F   UNL     1      -9.142 -10.648  19.568  0.00  0.00    -0.205 F 
ATOM      3  N   UNL     1      -5.374  -9.953  16.551  0.00  0.00    -0.341 N 
ATOM      4  N   UNL     1      -4.055 -11.375  17.634  0.00  0.00    -0.232 NA
ATOM     10  C   UNL     1      -4.145 -10.546  16.619  0.00  0.00    +0.113 A 
ATOM     12  C   UNL     1      -6.129 -10.432  17.591  0.00  0.00    +0.069 A 
ATOM     14  C   UNL     1      -5.284 -11.318  18.253  0.00  0.00    +0.089 A 
ATOM     15  C   UNL     1      -7.439 -10.174  17.998  0.00  0.00    +0.066 A 
ATOM     16  C   UNL     1      -5.755 -11.996  19.390  0.00  0.00    +0.032 A 
ATOM     18  C   UNL     1      -7.892 -10.857  19.131  0.00  0.00    +0.125 A 
ATOM     19  C   UNL     1      -7.067 -11.752  19.816  0.00  0.00    +0.040 A 
ATOM     23  H   UNL     1      -5.678  -9.282  15.858  0.00  0.00    +0.167 HD
ENDBRANCH   6  10
BRANCH   2  11
ATOM     11  C   UNL     1      -2.160 -11.814  12.415  0.00  0.00    +0.139 C 
BRANCH  11  13
ATOM      5  N   UNL     1      -3.807 -11.774  10.626  0.00  0.00    -0.259 NA
ATOM     13  C   UNL     1      -2.860 -11.084  11.301  0.00  0.00    +0.055 A 
ATOM     17  C   UNL     1      -2.515  -9.771  11.026  0.00  0.00    +0.024 A 
ATOM     20  C   UNL     1      -3.181  -9.125   9.992  0.00  0.00    +0.003 A 
ATOM     21  C   UNL     1      -4.434 -11.114   9.627  0.00  0.00    +0.111 A 
ATOM     22  C   UNL     1      -4.161  -9.803   9.273  0.00  0.00    +0.020 A 
ENDBRANCH  11  13
ENDBRANCH   2  11
TORSDOF 3
ENDMDL
MODEL 4
REMARK VINA RESULT:      -6.7      5.239      5.957
REMARK  Name = 45784236
REMARK  3 active torsions:
REMARK  status: ('A' for Active; 'I' for Inactive)
REMARK    1  A    between atoms: N_2  and  C_11
REMARK    2  A    between atoms: C_6  and  C_10
REMARK    3  A    between atoms: C_11  and  C_13
REMARK                            x       y       z     vdW  Elec       q    Type
REMARK                         _______ _______ _______ _____ _____    ______ ____
ROOT
ATOM      2  N   UNL     1      16.263   8.562   5.170  0.00  0.00    -0.296 NA
ATOM      6  C   UNL     1      14.199   7.448   5.171  0.00  0.00    +0.070 C 
ATOM      7  C   UNL     1      14.209   8.514   4.061  0.00  0.00    +0.028 C 
ATOM      8  C   UNL     1      15.383   7.818   6.074  0.00  0.00    +0.096 C 
ATOM      9  C   UNL     1      15.369   9.436   4.409  0.00  0.00    +0.085 C 
ENDROOT
BRANCH   6  10
ATOM      1  F   UNL     1       8.639   5.510   9.425  0.00  0.00    -0.205 F 
ATOM      3  N   UNL     1      12.665   6.295   6.787  0.00  0.00    -0.341 N 
ATOM      4  N   UNL     1      11.873   8.154   5.863  0.00  0.00    -0.232 NA
ATOM     10  C   UNL     1      12.896   7.331   5.927  0.00  0.00    +0.113 A 
ATOM     12  C   UNL     1      11.410   6.461   7.315  0.00  0.00    +0.069 A 
ATOM     14  C   UNL     1      10.936   7.628   6.723  0.00  0.00    +0.089 A 
ATOM     15  C   UNL     1      10.671   5.713   8.233  0.00  0.00    +0.066 A 
ATOM     16  C   UNL     1       9.652   8.092   7.053  0.00  0.00    +0.032 A 
ATOM     18  C   UNL     1       9.395   6.188   8.550  0.00  0.00    +0.125 A 
ATOM     19  C   UNL     1       8.892   7.357   7.972  0.00  0.00    +0.040 A 
ATOM     23  H   UNL     1      13.303   5.540   7.001  0.00  0.00    +0.167 HD
ENDBRANCH   6  10
BRANCH   2  11
ATOM     11  C   UNL     1      17.291   9.306   5.882  0.00  0.00    +0.139 C 
BRANCH  11  13
ATOM      5  N   UNL     1      18.933   8.055   4.595  0.00  0.00    -0.259 NA
ATOM     13  C   UNL     1      18.637   8.641   5.777  0.00  0.00    +0.055 A 
ATOM     17  C   UNL     1      19.493   8.662   6.866  0.00  0.00    +0.024 A 
ATOM     20  C   UNL     1      20.730   8.041   6.736  0.00  0.00    +0.003 A 
ATOM     21  C   UNL     1      20.143   7.461   4.504  0.00  0.00    +0.111 A 
ATOM     22  C   UNL     1      21.068   7.426   5.535  0.00  0.00    +0.020 A 
ENDBRANCH  11  13
ENDBRANCH   2  11
TORSDOF 3
ENDMDL
MODEL 5
REMARK VINA RESULT:      -6.6     16.948     19.476
REMARK  Name = 45784236
REMARK  3 active torsions:
REMARK  status: ('A' for Active; 'I' for Inactive)
REMARK    1  A    between atoms: N_2  and  C_11
REMARK    2  A    between atoms: C_6  and  C_10
REMARK    3  A    between atoms: C_11  and  C_13
REMARK                            x       y       z     vdW  Elec       q    Type
REMARK                         _______ _______ _______ _____ _____    ______ ____
ROOT
ATOM      2  N   UNL     1      15.757   7.583  20.651  0.00  0.00    -0.296 NA
ATOM      6  C   UNL     1      17.951   6.942  20.125  0.00  0.00    +0.070 C 
ATOM      7  C   UNL     1      16.957   6.050  19.361  0.00  0.00    +0.028 C 
ATOM      8  C   UNL     1      17.108   7.618  21.214  0.00  0.00    +0.096 C 
ATOM      9  C   UNL     1      15.624   6.245  20.072  0.00  0.00    +0.085 C 
ENDROOT
BRANCH   6  10
ATOM      1  F   UNL     1      23.468   2.425  21.512  0.00  0.00    -0.205 F 
ATOM      3  N   UNL     1      19.630   5.078  20.093  0.00  0.00    -0.341 N 
ATOM      4  N   UNL     1      19.871   6.568  21.724  0.00  0.00    -0.232 NA
ATOM     10  C   UNL     1      19.158   6.220  20.676  0.00  0.00    +0.113 A 
ATOM     12  C   UNL     1      20.722   4.661  20.811  0.00  0.00    +0.069 A 
ATOM     14  C   UNL     1      20.852   5.607  21.823  0.00  0.00    +0.089 A 
ATOM     15  C   UNL     1      21.581   3.571  20.665  0.00  0.00    +0.066 A 
ATOM     16  C   UNL     1      21.895   5.474  22.756  0.00  0.00    +0.032 A 
ATOM     18  C   UNL     1      22.612   3.453  21.602  0.00  0.00    +0.125 A 
ATOM     19  C   UNL     1      22.769   4.387  22.629  0.00  0.00    +0.040 A 
ATOM     23  H   UNL     1      19.247   4.620  19.277  0.00  0.00    +0.167 HD
ENDBRANCH   6  10
BRANCH   2  11
ATOM     11  C   UNL     1      14.732   7.861  21.646  0.00  0.00    +0.139 C 
BRANCH  11  13
ATOM      5  N   UNL     1      12.335   7.451  21.589  0.00  0.00    -0.259 NA
ATOM     13  C   UNL     1      13.384   8.082  21.014  0.00  0.00    +0.055 A 
ATOM     17  C   UNL     1      13.280   8.904  19.904  0.00  0.00    +0.024 A 
ATOM     20  C   UNL     1      12.021   9.089  19.346  0.00  0.00    +0.003 A 
ATOM     21  C   UNL     1      11.126   7.653  21.019  0.00  0.00    +0.111 A 
ATOM     22  C   UNL     1      10.918   8.454  19.908  0.00  0.00    +0.020 A 
ENDBRANCH  11  13
ENDBRANCH   2  11
TORSDOF 3
ENDMDL
MODEL 6
REMARK VINA RESULT:      -6.6     16.629     18.821
REMARK  Name = 45784236
REMARK  3 active torsions:
REMARK  status: ('A' for Active; 'I' for Inactive)
REMARK    1  A    between atoms: N_2  and  C_11
REMARK    2  A    between atoms: C_6  and  C_10
REMARK    3  A    between atoms: C_11  and  C_13
REMARK                            x       y       z     vdW  Elec       q    Type
REMARK                         _______ _______ _______ _____ _____    ______ ____
ROOT
ATOM      2  N   UNL     1      13.799   8.242  20.277  0.00  0.00    -0.296 NA
ATOM      6  C   UNL     1      12.588  10.242  20.459  0.00  0.00    +0.070 C 
ATOM      7  C   UNL     1      14.041  10.554  20.062  0.00  0.00    +0.028 C 
ATOM      8  C   UNL     1      12.626   8.792  20.959  0.00  0.00    +0.096 C 
ATOM      9  C   UNL     1      14.820   9.285  20.383  0.00  0.00    +0.085 C 
ENDROOT
BRANCH   6  10
ATOM      1  F   UNL     1      10.130  13.652  26.383  0.00  0.00    -0.205 F 
ATOM      3  N   UNL     1      11.957  10.898  22.797  0.00  0.00    -0.341 N 
ATOM      4  N   UNL     1      11.442  12.365  21.210  0.00  0.00    -0.232 NA
ATOM     10  C   UNL     1      11.986  11.196  21.464  0.00  0.00    +0.113 A 
ATOM     12  C   UNL     1      11.356  11.945  23.448  0.00  0.00    +0.069 A 
ATOM     14  C   UNL     1      11.043  12.848  22.435  0.00  0.00    +0.089 A 
ATOM     15  C   UNL     1      11.067  12.174  24.794  0.00  0.00    +0.066 A 
ATOM     16  C   UNL     1      10.405  14.055  22.766  0.00  0.00    +0.032 A 
ATOM     18  C   UNL     1      10.432  13.379  25.105  0.00  0.00    +0.125 A 
ATOM     19  C   UNL     1      10.106  14.305  24.111  0.00  0.00    +0.040 A 
ATOM     23  H   UNL     1      12.315  10.058  23.231  0.00  0.00    +0.167 HD
ENDBRANCH   6  10
BRANCH   2  11
ATOM     11  C   UNL     1      14.236   6.979  20.854  0.00  0.00    +0.139 C 
BRANCH  11  13
ATOM      5  N   UNL     1      15.731   6.216  19.093  0.00  0.00    -0.259 NA
ATOM     13  C   UNL     1      15.614   6.596  20.385  0.00  0.00    +0.055 A 
ATOM     17  C   UNL     1      16.675   6.652  21.274  0.00  0.00    +0.024 A 
ATOM     20  C   UNL     1      17.935   6.294  20.810  0.00  0.00    +0.003 A 
ATOM     21  C   UNL     1      16.970   5.874  18.676  0.00  0.00    +0.111 A 
ATOM     22  C   UNL     1      18.094   5.895  19.487  0.00  0.00    +0.020 A 
ENDBRANCH  11  13
ENDBRANCH   2  11
TORSDOF 3
ENDMDL
MODEL 7
REMARK VINA RESULT:      -6.5     22.521     24.847
REMARK  Name = 45784236
REMARK  3 active torsions:
REMARK  status: ('A' for Active; 'I' for Inactive)
REMARK    1  A    between atoms: N_2  and  C_11
REMARK    2  A    between atoms: C_6  and  C_10
REMARK    3  A    between atoms: C_11  and  C_13
REMARK                            x       y       z     vdW  Elec       q    Type
REMARK                         _______ _______ _______ _____ _____    ______ ____
ROOT
ATOM      2  N   UNL     1      -2.665 -11.641  12.156  0.00  0.00    -0.296 NA
ATOM      6  C   UNL     1      -2.782 -10.869  14.367  0.00  0.00    +0.070 C 
ATOM      7  C   UNL     1      -1.822 -12.069  14.291  0.00  0.00    +0.028 C 
ATOM      8  C   UNL     1      -3.570 -10.918  13.052  0.00  0.00    +0.096 C 
ATOM      9  C   UNL     1      -2.138 -12.743  12.961  0.00  0.00    +0.085 C 
ENDROOT
BRANCH   6  10
ATOM      1  F   UNL     1      -5.803 -11.586  20.934  0.00  0.00    -0.205 F 
ATOM      3  N   UNL     1      -3.281 -11.420  16.763  0.00  0.00    -0.341 N 
ATOM      4  N   UNL     1      -4.866 -10.304  15.678  0.00  0.00    -0.232 NA
ATOM     10  C   UNL     1      -3.672 -10.845  15.587  0.00  0.00    +0.113 A 
ATOM     12  C   UNL     1      -4.289 -11.238  17.675  0.00  0.00    +0.069 A 
ATOM     14  C   UNL     1      -5.267 -10.538  16.974  0.00  0.00    +0.089 A 
ATOM     15  C   UNL     1      -4.425 -11.613  19.013  0.00  0.00    +0.066 A 
ATOM     16  C   UNL     1      -6.459 -10.183  17.629  0.00  0.00    +0.032 A 
ATOM     18  C   UNL     1      -5.617 -11.252  19.649  0.00  0.00    +0.125 A 
ATOM     19  C   UNL     1      -6.617 -10.550  18.972  0.00  0.00    +0.040 A 
ATOM     23  H   UNL     1      -2.405 -11.896  16.935  0.00  0.00    +0.167 HD
ENDBRANCH   6  10
BRANCH   2  11
ATOM     11  C   UNL     1      -3.333 -12.107  10.949  0.00  0.00    +0.139 C 
BRANCH  11  13
ATOM      5  N   UNL     1      -5.366 -11.229   9.943  0.00  0.00    -0.259 NA
ATOM     13  C   UNL     1      -4.070 -10.996  10.252  0.00  0.00    +0.055 A 
ATOM     17  C   UNL     1      -3.407  -9.813   9.969  0.00  0.00    +0.024 A 
ATOM     20  C   UNL     1      -4.117  -8.805   9.326  0.00  0.00    +0.003 A 
ATOM     21  C   UNL     1      -6.025 -10.227   9.319  0.00  0.00    +0.111 A 
ATOM     22  C   UNL     1      -5.452  -9.009   8.991  0.00  0.00    +0.020 A 
ENDBRANCH  11  13
ENDBRANCH   2  11
TORSDOF 3
ENDMDL
MODEL 8
REMARK VINA RESULT:      -6.5     17.732     18.971
REMARK  Name = 45784236
REMARK  3 active torsions:
REMARK  status: ('A' for Active; 'I' for Inactive)
REMARK    1  A    between atoms: N_2  and  C_11
REMARK    2  A    between atoms: C_6  and  C_10
REMARK    3  A    between atoms: C_11  and  C_13
REMARK                            x       y       z     vdW  Elec       q    Type
REMARK                         _______ _______ _______ _____ _____    ______ ____
ROOT
ATOM      2  N   UNL     1      18.869   7.260  21.605  0.00  0.00    -0.296 NA
ATOM      6  C   UNL     1      16.783   7.665  20.615  0.00  0.00    +0.070 C 
ATOM      7  C   UNL     1      17.498   9.003  20.873  0.00  0.00    +0.028 C 
ATOM      8  C   UNL     1      17.548   6.645  21.467  0.00  0.00    +0.096 C 
ATOM      9  C   UNL     1      18.601   8.674  21.871  0.00  0.00    +0.085 C 
ENDROOT
BRANCH   6  10
ATOM      1  F   UNL     1       9.945   9.274  22.466  0.00  0.00    -0.205 F 
ATOM      3  N   UNL     1      14.679   8.783  21.403  0.00  0.00    -0.341 N 
ATOM      4  N   UNL     1      14.456   6.685  20.709  0.00  0.00    -0.232 NA
ATOM     10  C   UNL     1      15.298   7.675  20.897  0.00  0.00    +0.113 A 
ATOM     12  C   UNL     1      13.348   8.489  21.550  0.00  0.00    +0.069 A 
ATOM     14  C   UNL     1      13.233   7.173  21.110  0.00  0.00    +0.089 A 
ATOM     15  C   UNL     1      12.266   9.238  22.016  0.00  0.00    +0.066 A 
ATOM     16  C   UNL     1      11.973   6.551  21.128  0.00  0.00    +0.032 A 
ATOM     18  C   UNL     1      11.020   8.603  22.028  0.00  0.00    +0.125 A 
ATOM     19  C   UNL     1      10.874   7.284  21.592  0.00  0.00    +0.040 A 
ATOM     23  H   UNL     1      15.120   9.665  21.630  0.00  0.00    +0.167 HD
ENDBRANCH   6  10
BRANCH   2  11
ATOM     11  C   UNL     1      19.664   6.640  22.655  0.00  0.00    +0.139 C 
BRANCH  11  13
ATOM      5  N   UNL     1      21.453   5.019  22.952  0.00  0.00    -0.259 NA
ATOM     13  C   UNL     1      20.806   5.837  22.092  0.00  0.00    +0.055 A 
ATOM     17  C   UNL     1      21.133   5.966  20.752  0.00  0.00    +0.024 A 
ATOM     20  C   UNL     1      22.191   5.210  20.263  0.00  0.00    +0.003 A 
ATOM     21  C   UNL     1      22.477   4.299  22.442  0.00  0.00    +0.111 A 
ATOM     22  C   UNL     1      22.882   4.358  21.119  0.00  0.00    +0.020 A 
ENDBRANCH  11  13
ENDBRANCH   2  11
TORSDOF 3
ENDMDL
MODEL 9
REMARK VINA RESULT:      -6.5     29.189     33.567
REMARK  Name = 45784236
REMARK  3 active torsions:
REMARK  status: ('A' for Active; 'I' for Inactive)
REMARK    1  A    between atoms: N_2  and  C_11
REMARK    2  A    between atoms: C_6  and  C_10
REMARK    3  A    between atoms: C_11  and  C_13
REMARK                            x       y       z     vdW  Elec       q    Type
REMARK                         _______ _______ _______ _____ _____    ______ ____
ROOT
ATOM      2  N   UNL     1     -15.008   5.806  22.135  0.00  0.00    -0.296 NA
ATOM      6  C   UNL     1     -15.716   3.870  23.252  0.00  0.00    +0.070 C 
ATOM      7  C   UNL     1     -16.926   4.555  22.593  0.00  0.00    +0.028 C 
ATOM      8  C   UNL     1     -14.614   4.937  23.245  0.00  0.00    +0.096 C 
ATOM      9  C   UNL     1     -16.455   5.969  22.279  0.00  0.00    +0.085 C 
ENDROOT
BRANCH   6  10
ATOM      1  F   UNL     1     -16.567   2.678  30.367  0.00  0.00    -0.205 F 
ATOM      3  N   UNL     1     -15.833   4.068  25.751  0.00  0.00    -0.341 N 
ATOM      4  N   UNL     1     -16.358   2.078  24.914  0.00  0.00    -0.232 NA
ATOM     10  C   UNL     1     -15.979   3.303  24.628  0.00  0.00    +0.113 A 
ATOM     12  C   UNL     1     -16.139   3.285  26.834  0.00  0.00    +0.069 A 
ATOM     14  C   UNL     1     -16.464   2.047  26.286  0.00  0.00    +0.089 A 
ATOM     15  C   UNL     1     -16.160   3.545  28.205  0.00  0.00    +0.066 A 
ATOM     16  C   UNL     1     -16.833   0.994  27.140  0.00  0.00    +0.032 A 
ATOM     18  C   UNL     1     -16.530   2.486  29.041  0.00  0.00    +0.125 A 
ATOM     19  C   UNL     1     -16.861   1.233  28.520  0.00  0.00    +0.040 A 
ATOM     23  H   UNL     1     -15.551   5.039  25.782  0.00  0.00    +0.167 HD
ENDBRANCH   6  10
BRANCH   2  11
ATOM     11  C   UNL     1     -14.303   7.079  22.148  0.00  0.00    +0.139 C 
BRANCH  11  13
ATOM      5  N   UNL     1     -14.151   7.777  19.822  0.00  0.00    -0.259 NA
ATOM     13  C   UNL     1     -13.493   7.284  20.896  0.00  0.00    +0.055 A 
ATOM     17  C   UNL     1     -12.144   6.969  20.900  0.00  0.00    +0.024 A 
ATOM     20  C   UNL     1     -11.424   7.171  19.729  0.00  0.00    +0.003 A 
ATOM     21  C   UNL     1     -13.419   7.960  18.701  0.00  0.00    +0.111 A 
ATOM     22  C   UNL     1     -12.067   7.675  18.603  0.00  0.00    +0.020 A 
ENDBRANCH  11  13
ENDBRANCH   2  11
TORSDOF 3
ENDMDL
MODEL 10
REMARK VINA RESULT:      -6.4     23.147     26.101
REMARK  Name = 45784236
REMARK  3 active torsions:
REMARK  status: ('A' for Active; 'I' for Inactive)
REMARK    1  A    between atoms: N_2  and  C_11
REMARK    2  A    between atoms: C_6  and  C_10
REMARK    3  A    between atoms: C_11  and  C_13
REMARK                            x       y       z     vdW  Elec       q    Type
REMARK                         _______ _______ _______ _____ _____    ______ ____
ROOT
ATOM      2  N   UNL     1      -3.936 -10.780  14.619  0.00  0.00    -0.296 NA
ATOM      6  C   UNL     1      -5.219  -9.812  16.326  0.00  0.00    +0.070 C 
ATOM      7  C   UNL     1      -4.101 -10.668  16.946  0.00  0.00    +0.028 C 
ATOM      8  C   UNL     1      -5.282 -10.258  14.860  0.00  0.00    +0.096 C 
ATOM      9  C   UNL     1      -3.616 -11.563  15.813  0.00  0.00    +0.085 C 
ENDROOT
BRANCH   6  10
ATOM      1  F   UNL     1     -12.067  -9.070  18.632  0.00  0.00    -0.205 F 
ATOM      3  N   UNL     1      -7.606  -9.114  16.665  0.00  0.00    -0.341 N 
ATOM      4  N   UNL     1      -6.864 -10.709  18.022  0.00  0.00    -0.232 NA
ATOM     10  C   UNL     1      -6.554  -9.906  17.029  0.00  0.00    +0.113 A 
ATOM     12  C   UNL     1      -8.666  -9.427  17.476  0.00  0.00    +0.069 A 
ATOM     14  C   UNL     1      -8.179 -10.426  18.315  0.00  0.00    +0.089 A 
ATOM     15  C   UNL     1      -9.972  -8.938  17.546  0.00  0.00    +0.066 A 
ATOM     16  C   UNL     1      -9.028 -10.981  19.287  0.00  0.00    +0.032 A 
ATOM     18  C   UNL     1     -10.803  -9.501  18.519  0.00  0.00    +0.125 A 
ATOM     19  C   UNL     1     -10.342 -10.505  19.375  0.00  0.00    +0.040 A 
ATOM     23  H   UNL     1      -7.607  -8.420  15.930  0.00  0.00    +0.167 HD
ENDBRANCH   6  10
BRANCH   2  11
ATOM     11  C   UNL     1      -3.856 -11.571  13.400  0.00  0.00    +0.139 C 
BRANCH  11  13
ATOM      5  N   UNL     1      -4.774 -10.419  11.464  0.00  0.00    -0.259 NA
ATOM     13  C   UNL     1      -3.665 -10.706  12.183  0.00  0.00    +0.055 A 
ATOM     17  C   UNL     1      -2.396 -10.251  11.864  0.00  0.00    +0.024 A 
ATOM     20  C   UNL     1      -2.254  -9.453  10.735  0.00  0.00    +0.003 A 
ATOM     21  C   UNL     1      -4.598  -9.641  10.373  0.00  0.00    +0.111 A 
ATOM     22  C   UNL     1      -3.372  -9.138   9.969  0.00  0.00    +0.020 A 
ENDBRANCH  11  13
ENDBRANCH   2  11
TORSDOF 3
ENDMDL
