MODEL 1
REMARK VINA RESULT:      -7.8      0.000      0.000
REMARK  Name = 11884399
REMARK  5 active torsions:
REMARK  status: ('A' for Active; 'I' for Inactive)
REMARK    1  A    between atoms: N_7  and  C_18
REMARK    2  A    between atoms: N_8  and  C_25
REMARK    3  A    between atoms: N_9  and  C_29
REMARK    4  A    between atoms: C_34  and  C_35
REMARK    5  A    between atoms: C_35  and  C_36
REMARK                            x       y       z     vdW  Elec       q    Type
REMARK                         _______ _______ _______ _____ _____    ______ ____
ROOT
ATOM      1  O   UNL     1      -3.673 -10.081  16.034  0.00  0.00    -0.253 OA
ATOM      2  O   UNL     1      -5.885 -12.372  10.895  0.00  0.00    -0.266 OA
ATOM      5  N   UNL     1      -3.282 -12.223  15.226  0.00  0.00    -0.285 N 
ATOM      6  N   UNL     1      -3.860 -12.417  12.059  0.00  0.00    -0.310 N 
ATOM      7  N   UNL     1      -5.300 -11.670  16.329  0.00  0.00    -0.296 N 
ATOM     10  C   UNL     1      -3.269 -14.250  13.742  0.00  0.00    +0.027 C 
ATOM     11  C   UNL     1      -1.680 -12.428  13.321  0.00  0.00    +0.054 C 
ATOM     12  C   UNL     1      -1.826 -13.946  13.366  0.00  0.00    +0.018 C 
ATOM     13  C   UNL     1      -3.624 -13.649  15.115  0.00  0.00    +0.114 C 
ATOM     14  C   UNL     1      -1.954 -11.851  14.720  0.00  0.00    +0.119 C 
ATOM     15  C   UNL     1      -4.190 -13.727  12.633  0.00  0.00    +0.130 C 
ATOM     16  C   UNL     1      -2.627 -11.808  12.311  0.00  0.00    +0.027 A 
ATOM     17  C   UNL     1      -4.058 -11.244  15.873  0.00  0.00    +0.302 C 
ATOM     19  C   UNL     1      -2.295 -10.668  11.683  0.00  0.00    +0.024 A 
ATOM     20  C   UNL     1      -4.797 -11.863  11.163  0.00  0.00    +0.273 A 
ATOM     25  C   UNL     1      -4.400 -10.579  10.503  0.00  0.00    +0.100 A 
ATOM     27  C   UNL     1      -3.203 -10.042  10.763  0.00  0.00    +0.030 A 
ATOM     37  H   UNL     1      -5.661 -12.579  16.080  0.00  0.00    +0.151 HD
ENDROOT
BRANCH  25   8
ATOM      3  O   UNL     1      -6.449  -8.730  11.193  0.00  0.00    -0.252 OA
ATOM      8  N   UNL     1      -5.286 -10.002   9.641  0.00  0.00    -0.265 N 
ATOM      9  N   UNL     1      -7.022  -8.687   8.917  0.00  0.00    -0.269 N 
ATOM     28  C   UNL     1      -6.279  -9.095  10.031  0.00  0.00    +0.308 C 
ATOM     38  H   UNL     1      -5.384 -10.433   8.726  0.00  0.00    +0.157 HD
ATOM     39  H   UNL     1      -6.751  -9.081   8.020  0.00  0.00    +0.156 HD
BRANCH   9  29
ATOM     29  C   UNL     1      -8.109  -7.783   8.881  0.00  0.00    +0.035 A 
ATOM     30  C   UNL     1      -7.931  -6.499   8.366  0.00  0.00    +0.024 A 
ATOM     31  C   UNL     1      -9.358  -8.174   9.362  0.00  0.00    +0.024 A 
ATOM     32  C   UNL     1      -9.002  -5.606   8.332  0.00  0.00    +0.013 A 
ATOM     33  C   UNL     1     -10.429  -7.283   9.327  0.00  0.00    +0.013 A 
ATOM     34  C   UNL     1     -10.252  -5.998   8.812  0.00  0.00    +0.017 A 
BRANCH  34  35
ATOM      4  O   UNL     1     -12.523  -5.447   8.491  0.00  0.00    -0.292 OA
ATOM     35  C   UNL     1     -11.369  -5.068   8.776  0.00  0.00    +0.160 C 
ATOM     36  C   UNL     1     -11.150  -3.591   9.087  0.00  0.00    +0.091 C 
ENDBRANCH  34  35
ENDBRANCH   9  29
ENDBRANCH  25   8
BRANCH   7  18
ATOM     18  C   UNL     1      -6.213 -10.786  17.020  0.00  0.00    +0.074 C 
ATOM     21  C   UNL     1      -5.744 -10.520  18.454  0.00  0.00    +0.022 C 
ATOM     22  C   UNL     1      -7.641 -11.343  16.997  0.00  0.00    +0.022 C 
ATOM     23  C   UNL     1      -5.914 -11.738  19.362  0.00  0.00    +0.002 C 
ATOM     24  C   UNL     1      -7.808 -12.560  17.907  0.00  0.00    +0.002 C 
ATOM     26  C   UNL     1      -7.345 -12.267  19.331  0.00  0.00    +0.000 C 
ENDBRANCH   7  18
TORSDOF 4
ENDMDL
MODEL 2
REMARK VINA RESULT:      -7.4      2.086      2.346
REMARK  Name = 11884399
REMARK  5 active torsions:
REMARK  status: ('A' for Active; 'I' for Inactive)
REMARK    1  A    between atoms: N_7  and  C_18
REMARK    2  A    between atoms: N_8  and  C_25
REMARK    3  A    between atoms: N_9  and  C_29
REMARK    4  A    between atoms: C_34  and  C_35
REMARK    5  A    between atoms: C_35  and  C_36
REMARK                            x       y       z     vdW  Elec       q    Type
REMARK                         _______ _______ _______ _____ _____    ______ ____
ROOT
ATOM      1  O   UNL     1      -2.776 -10.269  15.908  0.00  0.00    -0.253 OA
ATOM      2  O   UNL     1      -6.661 -11.084  11.347  0.00  0.00    -0.266 OA
ATOM      5  N   UNL     1      -3.203 -12.284  14.834  0.00  0.00    -0.285 N 
ATOM      6  N   UNL     1      -4.521 -11.820  11.927  0.00  0.00    -0.310 N 
ATOM      7  N   UNL     1      -4.674 -11.426  16.476  0.00  0.00    -0.296 N 
ATOM     10  C   UNL     1      -4.104 -13.987  13.221  0.00  0.00    +0.027 C 
ATOM     11  C   UNL     1      -2.205 -12.578  12.564  0.00  0.00    +0.054 C 
ATOM     12  C   UNL     1      -2.760 -13.999  12.507  0.00  0.00    +0.018 C 
ATOM     13  C   UNL     1      -3.950 -13.543  14.688  0.00  0.00    +0.114 C 
ATOM     14  C   UNL     1      -1.977 -12.182  14.032  0.00  0.00    +0.119 C 
ATOM     15  C   UNL     1      -5.068 -13.080  12.446  0.00  0.00    +0.130 C 
ATOM     16  C   UNL     1      -3.143 -11.589  11.900  0.00  0.00    +0.027 A 
ATOM     17  C   UNL     1      -3.501 -11.257  15.749  0.00  0.00    +0.302 C 
ATOM     19  C   UNL     1      -2.655 -10.483  11.313  0.00  0.00    +0.024 A 
ATOM     20  C   UNL     1      -5.442 -10.913  11.365  0.00  0.00    +0.273 A 
ATOM     25  C   UNL     1      -4.860  -9.681  10.743  0.00  0.00    +0.100 A 
ATOM     27  C   UNL     1      -3.534  -9.511  10.726  0.00  0.00    +0.030 A 
ATOM     37  H   UNL     1      -5.324 -12.163  16.249  0.00  0.00    +0.151 HD
ENDROOT
BRANCH  25   8
ATOM      3  O   UNL     1      -6.227  -9.940   8.262  0.00  0.00    -0.252 OA
ATOM      8  N   UNL     1      -5.720  -8.772  10.201  0.00  0.00    -0.265 N 
ATOM      9  N   UNL     1      -7.180  -7.839   8.696  0.00  0.00    -0.269 N 
ATOM     28  C   UNL     1      -6.370  -8.946   8.972  0.00  0.00    +0.308 C 
ATOM     38  H   UNL     1      -5.696  -7.831  10.584  0.00  0.00    +0.157 HD
ATOM     39  H   UNL     1      -7.191  -7.098   9.391  0.00  0.00    +0.156 HD
BRANCH   9  29
ATOM     29  C   UNL     1      -7.999  -7.622   7.563  0.00  0.00    +0.035 A 
ATOM     30  C   UNL     1      -9.264  -7.056   7.715  0.00  0.00    +0.024 A 
ATOM     31  C   UNL     1      -7.542  -7.976   6.294  0.00  0.00    +0.024 A 
ATOM     32  C   UNL     1     -10.073  -6.844   6.599  0.00  0.00    +0.013 A 
ATOM     33  C   UNL     1      -8.349  -7.763   5.177  0.00  0.00    +0.013 A 
ATOM     34  C   UNL     1      -9.615  -7.197   5.329  0.00  0.00    +0.017 A 
BRANCH  34  35
ATOM      4  O   UNL     1      -9.999  -6.481   3.114  0.00  0.00    -0.292 OA
ATOM     35  C   UNL     1     -10.457  -6.975   4.165  0.00  0.00    +0.160 C 
ATOM     36  C   UNL     1     -11.936  -7.344   4.204  0.00  0.00    +0.091 C 
ENDBRANCH  34  35
ENDBRANCH   9  29
ENDBRANCH  25   8
BRANCH   7  18
ATOM     18  C   UNL     1      -5.116 -10.463  17.461  0.00  0.00    +0.074 C 
ATOM     21  C   UNL     1      -5.145 -11.081  18.862  0.00  0.00    +0.022 C 
ATOM     22  C   UNL     1      -6.481  -9.878  17.083  0.00  0.00    +0.022 C 
ATOM     23  C   UNL     1      -6.284 -12.086  19.036  0.00  0.00    +0.002 C 
ATOM     24  C   UNL     1      -7.618 -10.885  17.259  0.00  0.00    +0.002 C 
ATOM     26  C   UNL     1      -7.633 -11.477  18.665  0.00  0.00    +0.000 C 
ENDBRANCH   7  18
TORSDOF 4
ENDMDL
MODEL 3
REMARK VINA RESULT:      -7.3     30.299     32.800
REMARK  Name = 11884399
REMARK  5 active torsions:
REMARK  status: ('A' for Active; 'I' for Inactive)
REMARK    1  A    between atoms: N_7  and  C_18
REMARK    2  A    between atoms: N_8  and  C_25
REMARK    3  A    between atoms: N_9  and  C_29
REMARK    4  A    between atoms: C_34  and  C_35
REMARK    5  A    between atoms: C_35  and  C_36
REMARK                            x       y       z     vdW  Elec       q    Type
REMARK                         _______ _______ _______ _____ _____    ______ ____
ROOT
ATOM      1  O   UNL     1      24.358   4.928  25.075  0.00  0.00    -0.253 OA
ATOM      2  O   UNL     1      20.589   6.102  20.495  0.00  0.00    -0.266 OA
ATOM      5  N   UNL     1      24.911   6.051  23.117  0.00  0.00    -0.285 N 
ATOM      6  N   UNL     1      22.291   7.217  21.642  0.00  0.00    -0.310 N 
ATOM      7  N   UNL     1      24.752   3.691  23.184  0.00  0.00    -0.296 N 
ATOM     10  C   UNL     1      24.733   7.179  20.880  0.00  0.00    +0.027 C 
ATOM     11  C   UNL     1      24.113   8.407  22.912  0.00  0.00    +0.054 C 
ATOM     12  C   UNL     1      24.832   8.531  21.572  0.00  0.00    +0.018 C 
ATOM     13  C   UNL     1      25.389   6.072  21.727  0.00  0.00    +0.114 C 
ATOM     14  C   UNL     1      24.831   7.359  23.778  0.00  0.00    +0.119 C 
ATOM     15  C   UNL     1      23.257   6.879  20.589  0.00  0.00    +0.130 C 
ATOM     16  C   UNL     1      22.658   8.018  22.728  0.00  0.00    +0.027 A 
ATOM     17  C   UNL     1      24.652   4.893  23.875  0.00  0.00    +0.302 C 
ATOM     19  C   UNL     1      21.733   8.415  23.618  0.00  0.00    +0.024 A 
ATOM     20  C   UNL     1      20.963   6.789  21.446  0.00  0.00    +0.273 A 
ATOM     25  C   UNL     1      19.967   7.232  22.472  0.00  0.00    +0.100 A 
ATOM     27  C   UNL     1      20.361   8.011  23.485  0.00  0.00    +0.030 A 
ATOM     37  H   UNL     1      24.862   3.676  22.181  0.00  0.00    +0.151 HD
ENDROOT
BRANCH  25   8
ATOM      3  O   UNL     1      17.954   8.562  20.966  0.00  0.00    -0.252 OA
ATOM      8  N   UNL     1      18.673   6.826  22.326  0.00  0.00    -0.265 N 
ATOM      9  N   UNL     1      16.490   6.847  21.618  0.00  0.00    -0.269 N 
ATOM     28  C   UNL     1      17.717   7.518  21.571  0.00  0.00    +0.308 C 
ATOM     38  H   UNL     1      18.331   6.133  22.985  0.00  0.00    +0.157 HD
ATOM     39  H   UNL     1      16.461   5.990  22.163  0.00  0.00    +0.156 HD
BRANCH   9  29
ATOM     29  C   UNL     1      15.275   7.213  20.994  0.00  0.00    +0.035 A 
ATOM     30  C   UNL     1      14.989   6.760  19.706  0.00  0.00    +0.024 A 
ATOM     31  C   UNL     1      14.364   8.029  21.664  0.00  0.00    +0.024 A 
ATOM     32  C   UNL     1      13.792   7.122  19.089  0.00  0.00    +0.013 A 
ATOM     33  C   UNL     1      13.166   8.390  21.048  0.00  0.00    +0.013 A 
ATOM     34  C   UNL     1      12.880   7.937  19.760  0.00  0.00    +0.017 A 
BRANCH  34  35
ATOM      4  O   UNL     1      10.568   8.407  19.763  0.00  0.00    -0.292 OA
ATOM     35  C   UNL     1      11.631   8.314  19.117  0.00  0.00    +0.160 C 
ATOM     36  C   UNL     1      11.594   8.604  17.621  0.00  0.00    +0.091 C 
ENDBRANCH  34  35
ENDBRANCH   9  29
ENDBRANCH  25   8
BRANCH   7  18
ATOM     18  C   UNL     1      24.523   2.413  23.822  0.00  0.00    +0.074 C 
ATOM     21  C   UNL     1      25.847   1.732  24.183  0.00  0.00    +0.022 C 
ATOM     22  C   UNL     1      23.653   1.508  22.943  0.00  0.00    +0.022 C 
ATOM     23  C   UNL     1      26.593   1.213  22.953  0.00  0.00    +0.002 C 
ATOM     24  C   UNL     1      24.403   0.991  21.715  0.00  0.00    +0.002 C 
ATOM     26  C   UNL     1      25.711   0.306  22.101  0.00  0.00    +0.000 C 
ENDBRANCH   7  18
TORSDOF 4
ENDMDL
MODEL 4
REMARK VINA RESULT:      -7.2     29.816     32.514
REMARK  Name = 11884399
REMARK  5 active torsions:
REMARK  status: ('A' for Active; 'I' for Inactive)
REMARK    1  A    between atoms: N_7  and  C_18
REMARK    2  A    between atoms: N_8  and  C_25
REMARK    3  A    between atoms: N_9  and  C_29
REMARK    4  A    between atoms: C_34  and  C_35
REMARK    5  A    between atoms: C_35  and  C_36
REMARK                            x       y       z     vdW  Elec       q    Type
REMARK                         _______ _______ _______ _____ _____    ______ ____
ROOT
ATOM      1  O   UNL     1      23.761   1.858  26.476  0.00  0.00    -0.253 OA
ATOM      2  O   UNL     1      23.121   1.869  20.465  0.00  0.00    -0.266 OA
ATOM      5  N   UNL     1      25.138   0.757  24.965  0.00  0.00    -0.285 N 
ATOM      6  N   UNL     1      24.875   2.002  22.001  0.00  0.00    -0.310 N 
ATOM      7  N   UNL     1      23.040  -0.134  25.598  0.00  0.00    -0.296 N 
ATOM     10  C   UNL     1      26.161  -0.053  22.819  0.00  0.00    +0.027 C 
ATOM     11  C   UNL     1      26.747   2.169  23.680  0.00  0.00    +0.054 C 
ATOM     12  C   UNL     1      27.317   0.915  23.023  0.00  0.00    +0.018 C 
ATOM     13  C   UNL     1      25.500  -0.420  24.160  0.00  0.00    +0.114 C 
ATOM     14  C   UNL     1      26.167   1.801  25.055  0.00  0.00    +0.119 C 
ATOM     15  C   UNL     1      25.160   0.570  21.838  0.00  0.00    +0.130 C 
ATOM     16  C   UNL     1      25.673   2.807  22.819  0.00  0.00    +0.027 A 
ATOM     17  C   UNL     1      23.965   0.895  25.730  0.00  0.00    +0.302 C 
ATOM     19  C   UNL     1      25.471   4.135  22.863  0.00  0.00    +0.024 A 
ATOM     20  C   UNL     1      23.836   2.535  21.214  0.00  0.00    +0.273 A 
ATOM     25  C   UNL     1      23.626   4.015  21.309  0.00  0.00    +0.100 A 
ATOM     27  C   UNL     1      24.425   4.747  22.093  0.00  0.00    +0.030 A 
ATOM     37  H   UNL     1      23.153  -0.847  24.892  0.00  0.00    +0.151 HD
ENDROOT
BRANCH  25   8
ATOM      3  O   UNL     1      21.040   4.709  22.266  0.00  0.00    -0.252 OA
ATOM      8  N   UNL     1      22.619   4.568  20.574  0.00  0.00    -0.265 N 
ATOM      9  N   UNL     1      20.553   5.441  20.090  0.00  0.00    -0.269 N 
ATOM     28  C   UNL     1      21.360   4.892  21.094  0.00  0.00    +0.308 C 
ATOM     38  H   UNL     1      22.705   4.514  19.563  0.00  0.00    +0.157 HD
ATOM     39  H   UNL     1      20.971   5.529  19.167  0.00  0.00    +0.156 HD
BRANCH   9  29
ATOM     29  C   UNL     1      19.219   5.897  20.200  0.00  0.00    +0.035 A 
ATOM     30  C   UNL     1      18.869   6.792  21.210  0.00  0.00    +0.024 A 
ATOM     31  C   UNL     1      18.252   5.450  19.300  0.00  0.00    +0.024 A 
ATOM     32  C   UNL     1      17.553   7.241  21.321  0.00  0.00    +0.013 A 
ATOM     33  C   UNL     1      16.937   5.899  19.408  0.00  0.00    +0.013 A 
ATOM     34  C   UNL     1      16.586   6.795  20.420  0.00  0.00    +0.017 A 
BRANCH  34  35
ATOM      4  O   UNL     1      14.764   7.702  21.611  0.00  0.00    -0.292 OA
ATOM     35  C   UNL     1      15.215   7.263  20.534  0.00  0.00    +0.160 C 
ATOM     36  C   UNL     1      14.287   7.225  19.325  0.00  0.00    +0.091 C 
ENDBRANCH  34  35
ENDBRANCH   9  29
ENDBRANCH  25   8
BRANCH   7  18
ATOM     18  C   UNL     1      21.788  -0.144  26.323  0.00  0.00    +0.074 C 
ATOM     21  C   UNL     1      21.903  -0.965  27.611  0.00  0.00    +0.022 C 
ATOM     22  C   UNL     1      20.645  -0.654  25.438  0.00  0.00    +0.022 C 
ATOM     23  C   UNL     1      21.993  -2.467  27.342  0.00  0.00    +0.002 C 
ATOM     24  C   UNL     1      20.737  -2.157  25.173  0.00  0.00    +0.002 C 
ATOM     26  C   UNL     1      20.839  -2.953  26.470  0.00  0.00    +0.000 C 
ENDBRANCH   7  18
TORSDOF 4
ENDMDL
MODEL 5
REMARK VINA RESULT:      -7.1     26.032     29.193
REMARK  Name = 11884399
REMARK  5 active torsions:
REMARK  status: ('A' for Active; 'I' for Inactive)
REMARK    1  A    between atoms: N_7  and  C_18
REMARK    2  A    between atoms: N_8  and  C_25
REMARK    3  A    between atoms: N_9  and  C_29
REMARK    4  A    between atoms: C_34  and  C_35
REMARK    5  A    between atoms: C_35  and  C_36
REMARK                            x       y       z     vdW  Elec       q    Type
REMARK                         _______ _______ _______ _____ _____    ______ ____
ROOT
ATOM      1  O   UNL     1      10.412   7.775   2.015  0.00  0.00    -0.253 OA
ATOM      2  O   UNL     1      13.681   6.599   6.963  0.00  0.00    -0.266 OA
ATOM      5  N   UNL     1       9.620   6.777   3.957  0.00  0.00    -0.285 N 
ATOM      6  N   UNL     1      11.541   7.396   6.473  0.00  0.00    -0.310 N 
ATOM      7  N   UNL     1      10.851   5.549   2.353  0.00  0.00    -0.296 N 
ATOM     10  C   UNL     1       9.499   5.867   6.295  0.00  0.00    +0.027 C 
ATOM     11  C   UNL     1       9.248   8.278   5.917  0.00  0.00    +0.054 C 
ATOM     12  C   UNL     1       8.706   7.096   6.716  0.00  0.00    +0.018 C 
ATOM     13  C   UNL     1       9.344   5.595   4.787  0.00  0.00    +0.114 C 
ATOM     14  C   UNL     1       9.009   8.030   4.419  0.00  0.00    +0.119 C 
ATOM     15  C   UNL     1      10.967   6.063   6.694  0.00  0.00    +0.130 C 
ATOM     16  C   UNL     1      10.727   8.493   6.177  0.00  0.00    +0.027 A 
ATOM     17  C   UNL     1      10.303   6.771   2.726  0.00  0.00    +0.302 C 
ATOM     19  C   UNL     1      11.256   9.726   6.096  0.00  0.00    +0.024 A 
ATOM     20  C   UNL     1      12.929   7.531   6.681  0.00  0.00    +0.273 A 
ATOM     25  C   UNL     1      13.484   8.916   6.557  0.00  0.00    +0.100 A 
ATOM     27  C   UNL     1      12.663   9.937   6.289  0.00  0.00    +0.030 A 
ATOM     37  H   UNL     1      10.872   4.771   2.995  0.00  0.00    +0.151 HD
ENDROOT
BRANCH  25   8
ATOM      3  O   UNL     1      15.542   7.846   4.912  0.00  0.00    -0.252 OA
ATOM      8  N   UNL     1      14.826   9.086   6.736  0.00  0.00    -0.265 N 
ATOM      9  N   UNL     1      17.079   8.893   6.345  0.00  0.00    -0.269 N 
ATOM     28  C   UNL     1      15.802   8.537   5.895  0.00  0.00    +0.308 C 
ATOM     38  H   UNL     1      15.130   9.417   7.647  0.00  0.00    +0.157 HD
ATOM     39  H   UNL     1      17.122   9.476   7.176  0.00  0.00    +0.156 HD
BRANCH   9  29
ATOM     29  C   UNL     1      18.328   8.544   5.780  0.00  0.00    +0.035 A 
ATOM     30  C   UNL     1      19.445   8.389   6.601  0.00  0.00    +0.024 A 
ATOM     31  C   UNL     1      18.443   8.356   4.404  0.00  0.00    +0.024 A 
ATOM     32  C   UNL     1      20.677   8.046   6.045  0.00  0.00    +0.013 A 
ATOM     33  C   UNL     1      19.674   8.012   3.847  0.00  0.00    +0.013 A 
ATOM     34  C   UNL     1      20.792   7.858   4.667  0.00  0.00    +0.017 A 
BRANCH  34  35
ATOM      4  O   UNL     1      22.154   6.784   3.067  0.00  0.00    -0.292 OA
ATOM     35  C   UNL     1      22.076   7.499   4.087  0.00  0.00    +0.160 C 
ATOM     36  C   UNL     1      23.371   7.995   4.722  0.00  0.00    +0.091 C 
ENDBRANCH  34  35
ENDBRANCH   9  29
ENDBRANCH  25   8
BRANCH   7  18
ATOM     18  C   UNL     1      11.576   5.376   1.113  0.00  0.00    +0.074 C 
ATOM     21  C   UNL     1      11.717   3.892   0.759  0.00  0.00    +0.022 C 
ATOM     22  C   UNL     1      12.944   6.064   1.177  0.00  0.00    +0.022 C 
ATOM     23  C   UNL     1      12.700   3.162   1.674  0.00  0.00    +0.002 C 
ATOM     24  C   UNL     1      13.926   5.330   2.091  0.00  0.00    +0.002 C 
ATOM     26  C   UNL     1      14.057   3.859   1.711  0.00  0.00    +0.000 C 
ENDBRANCH   7  18
TORSDOF 4
ENDMDL
MODEL 6
REMARK VINA RESULT:      -7.0      3.900      6.811
REMARK  Name = 11884399
REMARK  5 active torsions:
REMARK  status: ('A' for Active; 'I' for Inactive)
REMARK    1  A    between atoms: N_7  and  C_18
REMARK    2  A    between atoms: N_8  and  C_25
REMARK    3  A    between atoms: N_9  and  C_29
REMARK    4  A    between atoms: C_34  and  C_35
REMARK    5  A    between atoms: C_35  and  C_36
REMARK                            x       y       z     vdW  Elec       q    Type
REMARK                         _______ _______ _______ _____ _____    ______ ____
ROOT
ATOM      1  O   UNL     1      -6.679 -13.357  13.591  0.00  0.00    -0.253 OA
ATOM      2  O   UNL     1      -7.458  -8.594  17.233  0.00  0.00    -0.266 OA
ATOM      5  N   UNL     1      -5.189 -12.641  15.224  0.00  0.00    -0.285 N 
ATOM      6  N   UNL     1      -6.645 -10.776  17.416  0.00  0.00    -0.310 N 
ATOM      7  N   UNL     1      -5.320 -11.571  13.117  0.00  0.00    -0.296 N 
ATOM     10  C   UNL     1      -4.171 -11.362  17.131  0.00  0.00    +0.027 C 
ATOM     11  C   UNL     1      -5.796 -13.142  17.593  0.00  0.00    +0.054 C 
ATOM     12  C   UNL     1      -4.478 -12.531  18.057  0.00  0.00    +0.018 C 
ATOM     13  C   UNL     1      -4.046 -11.829  15.669  0.00  0.00    +0.114 C 
ATOM     14  C   UNL     1      -5.630 -13.680  16.163  0.00  0.00    +0.119 C 
ATOM     15  C   UNL     1      -5.262 -10.297  17.301  0.00  0.00    +0.130 C 
ATOM     16  C   UNL     1      -6.924 -12.128  17.637  0.00  0.00    +0.027 A 
ATOM     17  C   UNL     1      -5.792 -12.576  13.953  0.00  0.00    +0.302 C 
ATOM     19  C   UNL     1      -8.187 -12.529  17.859  0.00  0.00    +0.024 A 
ATOM     20  C   UNL     1      -7.658  -9.797  17.403  0.00  0.00    +0.273 A 
ATOM     25  C   UNL     1      -9.054 -10.287  17.629  0.00  0.00    +0.100 A 
ATOM     27  C   UNL     1      -9.272 -11.588  17.852  0.00  0.00    +0.030 A 
ATOM     37  H   UNL     1      -4.694 -10.859  13.463  0.00  0.00    +0.151 HD
ENDROOT
BRANCH  25   8
ATOM      3  O   UNL     1     -10.278  -9.195  15.305  0.00  0.00    -0.252 OA
ATOM      8  N   UNL     1     -10.066  -9.372  17.608  0.00  0.00    -0.265 N 
ATOM      9  N   UNL     1     -11.646  -7.948  16.748  0.00  0.00    -0.269 N 
ATOM     28  C   UNL     1     -10.636  -8.864  16.433  0.00  0.00    +0.308 C 
ATOM     38  H   UNL     1     -10.242  -8.862  18.468  0.00  0.00    +0.157 HD
ATOM     39  H   UNL     1     -11.823  -7.786  17.735  0.00  0.00    +0.156 HD
BRANCH   9  29
ATOM     29  C   UNL     1     -12.462  -7.215  15.855  0.00  0.00    +0.035 A 
ATOM     30  C   UNL     1     -13.814  -7.532  15.726  0.00  0.00    +0.024 A 
ATOM     31  C   UNL     1     -11.916  -6.176  15.102  0.00  0.00    +0.024 A 
ATOM     32  C   UNL     1     -14.620  -6.811  14.845  0.00  0.00    +0.013 A 
ATOM     33  C   UNL     1     -12.720  -5.454  14.222  0.00  0.00    +0.013 A 
ATOM     34  C   UNL     1     -14.073  -5.771  14.092  0.00  0.00    +0.017 A 
BRANCH  34  35
ATOM      4  O   UNL     1     -15.878  -5.550  12.590  0.00  0.00    -0.292 OA
ATOM     35  C   UNL     1     -14.912  -5.019  13.174  0.00  0.00    +0.160 C 
ATOM     36  C   UNL     1     -14.625  -3.547  12.902  0.00  0.00    +0.091 C 
ENDBRANCH  34  35
ENDBRANCH   9  29
ENDBRANCH  25   8
BRANCH   7  18
ATOM     18  C   UNL     1      -5.831 -11.378  11.778  0.00  0.00    +0.074 C 
ATOM     21  C   UNL     1      -4.690 -11.285  10.760  0.00  0.00    +0.022 C 
ATOM     22  C   UNL     1      -6.739 -10.145  11.710  0.00  0.00    +0.022 C 
ATOM     23  C   UNL     1      -3.912  -9.974  10.871  0.00  0.00    +0.002 C 
ATOM     24  C   UNL     1      -5.957  -8.836  11.819  0.00  0.00    +0.002 C 
ATOM     26  C   UNL     1      -4.835  -8.763  10.788  0.00  0.00    +0.000 C 
ENDBRANCH   7  18
TORSDOF 4
ENDMDL
MODEL 7
REMARK VINA RESULT:      -6.9     25.149     27.258
REMARK  Name = 11884399
REMARK  5 active torsions:
REMARK  status: ('A' for Active; 'I' for Inactive)
REMARK    1  A    between atoms: N_7  and  C_18
REMARK    2  A    between atoms: N_8  and  C_25
REMARK    3  A    between atoms: N_9  and  C_29
REMARK    4  A    between atoms: C_34  and  C_35
REMARK    5  A    between atoms: C_35  and  C_36
REMARK                            x       y       z     vdW  Elec       q    Type
REMARK                         _______ _______ _______ _____ _____    ______ ____
ROOT
ATOM      1  O   UNL     1      10.376  12.846   4.829  0.00  0.00    -0.253 OA
ATOM      2  O   UNL     1       9.893   7.149   6.797  0.00  0.00    -0.266 OA
ATOM      5  N   UNL     1       9.988  12.199   7.026  0.00  0.00    -0.285 N 
ATOM      6  N   UNL     1      10.873   9.138   7.532  0.00  0.00    -0.310 N 
ATOM      7  N   UNL     1       8.249  12.227   5.423  0.00  0.00    -0.296 N 
ATOM     10  C   UNL     1       9.674  10.786   9.079  0.00  0.00    +0.027 C 
ATOM     11  C   UNL     1      11.942  11.291   8.289  0.00  0.00    +0.054 C 
ATOM     12  C   UNL     1      11.074  11.169   9.538  0.00  0.00    +0.018 C 
ATOM     13  C   UNL     1       9.087  11.852   8.135  0.00  0.00    +0.114 C 
ATOM     14  C   UNL     1      11.392  12.417   7.398  0.00  0.00    +0.119 C 
ATOM     15  C   UNL     1       9.731   9.403   8.416  0.00  0.00    +0.130 C 
ATOM     16  C   UNL     1      11.983   9.988   7.512  0.00  0.00    +0.027 A 
ATOM     17  C   UNL     1       9.593  12.450   5.699  0.00  0.00    +0.302 C 
ATOM     19  C   UNL     1      13.067   9.667   6.786  0.00  0.00    +0.024 A 
ATOM     20  C   UNL     1      10.839   7.938   6.795  0.00  0.00    +0.273 A 
ATOM     25  C   UNL     1      12.056   7.628   5.979  0.00  0.00    +0.100 A 
ATOM     27  C   UNL     1      13.100   8.463   6.004  0.00  0.00    +0.030 A 
ATOM     37  H   UNL     1       7.647  11.780   6.099  0.00  0.00    +0.151 HD
ENDROOT
BRANCH  25   8
ATOM      3  O   UNL     1      11.723   7.455   3.160  0.00  0.00    -0.252 OA
ATOM      8  N   UNL     1      12.056   6.482   5.239  0.00  0.00    -0.265 N 
ATOM      9  N   UNL     1      11.936   5.128   3.390  0.00  0.00    -0.269 N 
ATOM     28  C   UNL     1      11.888   6.450   3.849  0.00  0.00    +0.308 C 
ATOM     38  H   UNL     1      11.928   5.609   5.743  0.00  0.00    +0.157 HD
ATOM     39  H   UNL     1      12.083   4.408   4.092  0.00  0.00    +0.156 HD
BRANCH   9  29
ATOM     29  C   UNL     1      11.809   4.665   2.060  0.00  0.00    +0.035 A 
ATOM     30  C   UNL     1      12.879   4.018   1.442  0.00  0.00    +0.024 A 
ATOM     31  C   UNL     1      10.616   4.858   1.365  0.00  0.00    +0.024 A 
ATOM     32  C   UNL     1      12.756   3.562   0.130  0.00  0.00    +0.013 A 
ATOM     33  C   UNL     1      10.492   4.403   0.053  0.00  0.00    +0.013 A 
ATOM     34  C   UNL     1      11.562   3.755  -0.566  0.00  0.00    +0.017 A 
BRANCH  34  35
ATOM      4  O   UNL     1      10.317   3.028  -2.433  0.00  0.00    -0.292 OA
ATOM     35  C   UNL     1      11.432   3.279  -1.934  0.00  0.00    +0.160 C 
ATOM     36  C   UNL     1      12.673   3.073  -2.796  0.00  0.00    +0.091 C 
ENDBRANCH  34  35
ENDBRANCH   9  29
ENDBRANCH  25   8
BRANCH   7  18
ATOM     18  C   UNL     1       7.685  12.445   4.109  0.00  0.00    +0.074 C 
ATOM     21  C   UNL     1       6.270  13.025   4.206  0.00  0.00    +0.022 C 
ATOM     22  C   UNL     1       7.700  11.154   3.283  0.00  0.00    +0.022 C 
ATOM     23  C   UNL     1       5.248  11.999   4.698  0.00  0.00    +0.002 C 
ATOM     24  C   UNL     1       6.677  10.131   3.777  0.00  0.00    +0.002 C 
ATOM     26  C   UNL     1       5.275  10.729   3.853  0.00  0.00    +0.000 C 
ENDBRANCH   7  18
TORSDOF 4
ENDMDL
MODEL 8
REMARK VINA RESULT:      -6.9      3.598      5.264
REMARK  Name = 11884399
REMARK  5 active torsions:
REMARK  status: ('A' for Active; 'I' for Inactive)
REMARK    1  A    between atoms: N_7  and  C_18
REMARK    2  A    between atoms: N_8  and  C_25
REMARK    3  A    between atoms: N_9  and  C_29
REMARK    4  A    between atoms: C_34  and  C_35
REMARK    5  A    between atoms: C_35  and  C_36
REMARK                            x       y       z     vdW  Elec       q    Type
REMARK                         _______ _______ _______ _____ _____    ______ ____
ROOT
ATOM      1  O   UNL     1      -7.235  -8.928  17.042  0.00  0.00    -0.253 OA
ATOM      2  O   UNL     1      -4.787 -13.576  14.048  0.00  0.00    -0.266 OA
ATOM      5  N   UNL     1      -6.581 -10.950  17.979  0.00  0.00    -0.285 N 
ATOM      6  N   UNL     1      -4.468 -12.498  16.096  0.00  0.00    -0.310 N 
ATOM      7  N   UNL     1      -8.624 -10.738  16.806  0.00  0.00    -0.296 N 
ATOM     10  C   UNL     1      -5.615 -13.253  18.254  0.00  0.00    +0.027 C 
ATOM     11  C   UNL     1      -4.128 -11.302  18.287  0.00  0.00    +0.054 C 
ATOM     12  C   UNL     1      -4.407 -12.646  18.953  0.00  0.00    +0.018 C 
ATOM     13  C   UNL     1      -6.849 -12.339  18.381  0.00  0.00    +0.114 C 
ATOM     14  C   UNL     1      -5.334 -10.372  18.497  0.00  0.00    +0.119 C 
ATOM     15  C   UNL     1      -5.254 -13.527  16.788  0.00  0.00    +0.130 C 
ATOM     16  C   UNL     1      -3.850 -11.463  16.804  0.00  0.00    +0.027 A 
ATOM     17  C   UNL     1      -7.463 -10.123  17.259  0.00  0.00    +0.302 C 
ATOM     19  C   UNL     1      -3.038 -10.601  16.170  0.00  0.00    +0.024 A 
ATOM     20  C   UNL     1      -4.281 -12.669  14.710  0.00  0.00    +0.273 A 
ATOM     25  C   UNL     1      -3.389 -11.673  14.035  0.00  0.00    +0.100 A 
ATOM     27  C   UNL     1      -2.807 -10.710  14.757  0.00  0.00    +0.030 A 
ATOM     37  H   UNL     1      -8.742 -11.738  16.871  0.00  0.00    +0.151 HD
ENDROOT
BRANCH  25   8
ATOM      3  O   UNL     1      -5.184 -10.824  11.999  0.00  0.00    -0.252 OA
ATOM      8  N   UNL     1      -3.195 -11.796  12.691  0.00  0.00    -0.265 N 
ATOM      9  N   UNL     1      -3.621 -11.628  10.442  0.00  0.00    -0.269 N 
ATOM     28  C   UNL     1      -4.112 -11.360  11.726  0.00  0.00    +0.308 C 
ATOM     38  H   UNL     1      -2.474 -12.444  12.388  0.00  0.00    +0.157 HD
ATOM     39  H   UNL     1      -2.711 -12.075  10.387  0.00  0.00    +0.156 HD
BRANCH   9  29
ATOM     29  C   UNL     1      -4.238 -11.347   9.200  0.00  0.00    +0.035 A 
ATOM     30  C   UNL     1      -4.623 -10.042   8.893  0.00  0.00    +0.024 A 
ATOM     31  C   UNL     1      -4.463 -12.374   8.285  0.00  0.00    +0.024 A 
ATOM     32  C   UNL     1      -5.233  -9.764   7.670  0.00  0.00    +0.013 A 
ATOM     33  C   UNL     1      -5.072 -12.097   7.061  0.00  0.00    +0.013 A 
ATOM     34  C   UNL     1      -5.457 -10.792   6.753  0.00  0.00    +0.017 A 
BRANCH  34  35
ATOM      4  O   UNL     1      -6.006 -11.290   4.514  0.00  0.00    -0.292 OA
ATOM     35  C   UNL     1      -6.092 -10.502   5.477  0.00  0.00    +0.160 C 
ATOM     36  C   UNL     1      -6.883  -9.213   5.288  0.00  0.00    +0.091 C 
ENDBRANCH  34  35
ENDBRANCH   9  29
ENDBRANCH  25   8
BRANCH   7  18
ATOM     18  C   UNL     1      -9.634 -10.023  16.057  0.00  0.00    +0.074 C 
ATOM     21  C   UNL     1     -10.399  -9.047  16.956  0.00  0.00    +0.022 C 
ATOM     22  C   UNL     1     -10.587 -10.994  15.353  0.00  0.00    +0.022 C 
ATOM     23  C   UNL     1     -11.336  -9.760  17.931  0.00  0.00    +0.002 C 
ATOM     24  C   UNL     1     -11.524 -11.704  16.330  0.00  0.00    +0.002 C 
ATOM     26  C   UNL     1     -12.283 -10.712  17.206  0.00  0.00    +0.000 C 
ENDBRANCH   7  18
TORSDOF 4
ENDMDL
MODEL 9
REMARK VINA RESULT:      -6.7      5.250      7.894
REMARK  Name = 11884399
REMARK  5 active torsions:
REMARK  status: ('A' for Active; 'I' for Inactive)
REMARK    1  A    between atoms: N_7  and  C_18
REMARK    2  A    between atoms: N_8  and  C_25
REMARK    3  A    between atoms: N_9  and  C_29
REMARK    4  A    between atoms: C_34  and  C_35
REMARK    5  A    between atoms: C_35  and  C_36
REMARK                            x       y       z     vdW  Elec       q    Type
REMARK                         _______ _______ _______ _____ _____    ______ ____
ROOT
ATOM      1  O   UNL     1      -5.227 -13.413  13.621  0.00  0.00    -0.253 OA
ATOM      2  O   UNL     1      -8.479  -8.889  15.968  0.00  0.00    -0.266 OA
ATOM      5  N   UNL     1      -4.541 -11.994  15.326  0.00  0.00    -0.285 N 
ATOM      6  N   UNL     1      -7.053 -10.562  16.756  0.00  0.00    -0.310 N 
ATOM      7  N   UNL     1      -4.478 -11.319  13.060  0.00  0.00    -0.296 N 
ATOM     10  C   UNL     1      -4.542 -10.202  17.087  0.00  0.00    +0.027 C 
ATOM     11  C   UNL     1      -5.532 -12.392  17.583  0.00  0.00    +0.054 C 
ATOM     12  C   UNL     1      -4.664 -11.277  18.158  0.00  0.00    +0.018 C 
ATOM     13  C   UNL     1      -3.895 -10.763  15.807  0.00  0.00    +0.114 C 
ATOM     14  C   UNL     1      -4.831 -12.999  16.357  0.00  0.00    +0.119 C 
ATOM     15  C   UNL     1      -5.933  -9.615  16.815  0.00  0.00    +0.130 C 
ATOM     16  C   UNL     1      -6.907 -11.882  17.195  0.00  0.00    +0.027 A 
ATOM     17  C   UNL     1      -4.782 -12.318  13.978  0.00  0.00    +0.302 C 
ATOM     19  C   UNL     1      -7.971 -12.700  17.244  0.00  0.00    +0.024 A 
ATOM     20  C   UNL     1      -8.298 -10.048  16.342  0.00  0.00    +0.273 A 
ATOM     25  C   UNL     1      -9.455 -10.997  16.388  0.00  0.00    +0.100 A 
ATOM     27  C   UNL     1      -9.269 -12.246  16.831  0.00  0.00    +0.030 A 
ATOM     37  H   UNL     1      -4.241 -10.387  13.365  0.00  0.00    +0.151 HD
ENDROOT
BRANCH  25   8
ATOM      3  O   UNL     1     -11.261  -9.436  17.933  0.00  0.00    -0.252 OA
ATOM      8  N   UNL     1     -10.674 -10.541  15.981  0.00  0.00    -0.265 N 
ATOM      9  N   UNL     1     -12.699  -9.465  16.077  0.00  0.00    -0.269 N 
ATOM     28  C   UNL     1     -11.529  -9.773  16.782  0.00  0.00    +0.308 C 
ATOM     38  H   UNL     1     -11.078 -10.981  15.158  0.00  0.00    +0.157 HD
ATOM     39  H   UNL     1     -12.764  -9.819  15.127  0.00  0.00    +0.156 HD
BRANCH   9  29
ATOM     29  C   UNL     1     -13.809  -8.713  16.525  0.00  0.00    +0.035 A 
ATOM     30  C   UNL     1     -14.606  -9.196  17.563  0.00  0.00    +0.024 A 
ATOM     31  C   UNL     1     -14.109  -7.489  15.928  0.00  0.00    +0.024 A 
ATOM     32  C   UNL     1     -15.703  -8.455  18.004  0.00  0.00    +0.013 A 
ATOM     33  C   UNL     1     -15.204  -6.747  16.369  0.00  0.00    +0.013 A 
ATOM     34  C   UNL     1     -16.002  -7.230  17.407  0.00  0.00    +0.017 A 
BRANCH  34  35
ATOM      4  O   UNL     1     -18.279  -6.614  17.372  0.00  0.00    -0.292 OA
ATOM     35  C   UNL     1     -17.144  -6.457  17.868  0.00  0.00    +0.160 C 
ATOM     36  C   UNL     1     -16.976  -5.425  18.977  0.00  0.00    +0.091 C 
ENDBRANCH  34  35
ENDBRANCH   9  29
ENDBRANCH  25   8
BRANCH   7  18
ATOM     18  C   UNL     1      -4.662 -11.499  11.636  0.00  0.00    +0.074 C 
ATOM     21  C   UNL     1      -3.332 -11.364  10.887  0.00  0.00    +0.022 C 
ATOM     22  C   UNL     1      -5.709 -10.522  11.090  0.00  0.00    +0.022 C 
ATOM     23  C   UNL     1      -2.827  -9.922  10.846  0.00  0.00    +0.002 C 
ATOM     24  C   UNL     1      -5.200  -9.082  11.048  0.00  0.00    +0.002 C 
ATOM     26  C   UNL     1      -3.881  -8.972  10.288  0.00  0.00    +0.000 C 
ENDBRANCH   7  18
TORSDOF 4
ENDMDL
MODEL 10
REMARK VINA RESULT:      -6.7     23.221     26.503
REMARK  Name = 11884399
REMARK  5 active torsions:
REMARK  status: ('A' for Active; 'I' for Inactive)
REMARK    1  A    between atoms: N_7  and  C_18
REMARK    2  A    between atoms: N_8  and  C_25
REMARK    3  A    between atoms: N_9  and  C_29
REMARK    4  A    between atoms: C_34  and  C_35
REMARK    5  A    between atoms: C_35  and  C_36
REMARK                            x       y       z     vdW  Elec       q    Type
REMARK                         _______ _______ _______ _____ _____    ______ ____
ROOT
ATOM      1  O   UNL     1       7.453 -12.251  35.202  0.00  0.00    -0.253 OA
ATOM      2  O   UNL     1       6.329  -6.942  32.538  0.00  0.00    -0.266 OA
ATOM      5  N   UNL     1       7.228 -11.902  32.917  0.00  0.00    -0.285 N 
ATOM      6  N   UNL     1       7.682  -8.804  32.143  0.00  0.00    -0.310 N 
ATOM      7  N   UNL     1       5.339 -12.057  34.334  0.00  0.00    -0.296 N 
ATOM     10  C   UNL     1       6.939 -10.775  30.691  0.00  0.00    +0.027 C 
ATOM     11  C   UNL     1       9.150 -10.815  31.754  0.00  0.00    +0.054 C 
ATOM     12  C   UNL     1       8.425 -10.965  30.420  0.00  0.00    +0.018 C 
ATOM     13  C   UNL     1       6.418 -11.823  31.692  0.00  0.00    +0.114 C 
ATOM     14  C   UNL     1       8.682 -11.920  32.713  0.00  0.00    +0.119 C 
ATOM     15  C   UNL     1       6.705  -9.343  31.188  0.00  0.00    +0.130 C 
ATOM     16  C   UNL     1       8.900  -9.452  32.372  0.00  0.00    +0.027 A 
ATOM     17  C   UNL     1       6.725 -12.080  34.220  0.00  0.00    +0.302 C 
ATOM     19  C   UNL     1       9.830  -8.884  33.157  0.00  0.00    +0.024 A 
ATOM     20  C   UNL     1       7.378  -7.558  32.726  0.00  0.00    +0.273 A 
ATOM     25  C   UNL     1       8.430  -6.970  33.615  0.00  0.00    +0.100 A 
ATOM     27  C   UNL     1       9.587  -7.618  33.791  0.00  0.00    +0.030 A 
ATOM     37  H   UNL     1       4.758 -11.787  33.555  0.00  0.00    +0.151 HD
ENDROOT
BRANCH  25   8
ATOM      3  O   UNL     1       7.168  -6.593  36.135  0.00  0.00    -0.252 OA
ATOM      8  N   UNL     1       8.168  -5.771  34.210  0.00  0.00    -0.265 N 
ATOM      9  N   UNL     1       7.418  -4.285  35.790  0.00  0.00    -0.269 N 
ATOM     28  C   UNL     1       7.542  -5.639  35.457  0.00  0.00    +0.308 C 
ATOM     38  H   UNL     1       8.206  -4.946  33.620  0.00  0.00    +0.157 HD
ATOM     39  H   UNL     1       7.784  -3.615  35.118  0.00  0.00    +0.156 HD
BRANCH   9  29
ATOM     29  C   UNL     1       6.846  -3.726  36.956  0.00  0.00    +0.035 A 
ATOM     30  C   UNL     1       5.503  -3.349  36.963  0.00  0.00    +0.024 A 
ATOM     31  C   UNL     1       7.624  -3.550  38.100  0.00  0.00    +0.024 A 
ATOM     32  C   UNL     1       4.938  -2.797  38.112  0.00  0.00    +0.013 A 
ATOM     33  C   UNL     1       7.060  -2.999  39.250  0.00  0.00    +0.013 A 
ATOM     34  C   UNL     1       5.717  -2.622  39.256  0.00  0.00    +0.017 A 
BRANCH  34  35
ATOM      4  O   UNL     1       5.694  -1.128  41.082  0.00  0.00    -0.292 OA
ATOM     35  C   UNL     1       5.128  -2.047  40.455  0.00  0.00    +0.160 C 
ATOM     36  C   UNL     1       3.792  -2.563  40.978  0.00  0.00    +0.091 C 
ENDBRANCH  34  35
ENDBRANCH   9  29
ENDBRANCH  25   8
BRANCH   7  18
ATOM     18  C   UNL     1       4.667 -12.232  35.603  0.00  0.00    +0.074 C 
ATOM     21  C   UNL     1       3.259 -12.802  35.407  0.00  0.00    +0.022 C 
ATOM     22  C   UNL     1       4.630 -10.918  36.391  0.00  0.00    +0.022 C 
ATOM     23  C   UNL     1       2.293 -11.782  34.805  0.00  0.00    +0.002 C 
ATOM     24  C   UNL     1       3.662  -9.901  35.787  0.00  0.00    +0.002 C 
ATOM     26  C   UNL     1       2.265 -10.488  35.613  0.00  0.00    +0.000 C 
ENDBRANCH   7  18
TORSDOF 4
ENDMDL
