MODEL 1
REMARK VINA RESULT:      -7.9      0.000      0.000
REMARK  Name = 28960679
REMARK  7 active torsions:
REMARK  status: ('A' for Active; 'I' for Inactive)
REMARK    1  A    between atoms: O_6  and  C_30
REMARK    2  A    between atoms: O_6  and  C_31
REMARK    3  A    between atoms: N_7  and  C_16
REMARK    4  A    between atoms: N_8  and  C_11
REMARK    5  A    between atoms: C_12  and  C_15
REMARK    6  A    between atoms: C_17  and  C_19
REMARK    7  A    between atoms: C_18  and  C_20
REMARK                            x       y       z     vdW  Elec       q    Type
REMARK                         _______ _______ _______ _____ _____    ______ ____
ROOT
ATOM      7  N   UNL     1      11.477   7.013  21.669  0.00  0.00    -0.293 NA
ATOM     11  C   UNL     1      10.738   9.219  21.809  0.00  0.00    +0.089 C 
ATOM     12  C   UNL     1      11.762   7.565  20.331  0.00  0.00    +0.147 C 
ATOM     13  C   UNL     1      11.420   9.064  20.450  0.00  0.00    +0.052 C 
ATOM     14  C   UNL     1      10.358   7.799  22.198  0.00  0.00    +0.107 C 
ATOM     16  C   UNL     1      11.179   5.586  21.650  0.00  0.00    +0.105 C 
ENDROOT
BRANCH  12  15
ATOM      4  O   UNL     1      13.436   7.541  18.551  0.00  0.00    -0.336 OA
ATOM      9  N   UNL     1      14.226   6.939  20.560  0.00  0.00    -0.190 NA
ATOM     10  N   UNL     1      14.797   7.260  18.367  0.00  0.00    -0.056 NA
ATOM     15  C   UNL     1      13.184   7.327  19.869  0.00  0.00    +0.245 A 
ATOM     18  C   UNL     1      15.192   6.911  19.595  0.00  0.00    +0.202 A 
BRANCH  18  20
ATOM     20  C   UNL     1      16.543   6.533  19.892  0.00  0.00    +0.023 A 
ATOM     23  C   UNL     1      17.140   6.953  21.082  0.00  0.00    +0.015 A 
ATOM     24  C   UNL     1      17.261   5.746  18.991  0.00  0.00    +0.015 A 
ATOM     28  C   UNL     1      18.454   6.586  21.370  0.00  0.00    +0.046 A 
ATOM     29  C   UNL     1      18.576   5.380  19.280  0.00  0.00    +0.046 A 
ATOM     30  C   UNL     1      19.172   5.800  20.469  0.00  0.00    +0.130 A 
BRANCH  30   6
ATOM      6  O   UNL     1      20.455   5.442  20.749  0.00  0.00    -0.406 OA
BRANCH   6  31
ATOM      1  F   UNL     1      22.572   5.961  20.168  0.00  0.00    -0.133 F 
ATOM      2  F   UNL     1      21.055   7.528  20.030  0.00  0.00    -0.133 F 
ATOM      3  F   UNL     1      21.768   6.833  22.003  0.00  0.00    -0.133 F 
ATOM     31  C   UNL     1      21.454   6.455  20.746  0.00  0.00    +0.575 C 
ENDBRANCH   6  31
ENDBRANCH  30   6
ENDBRANCH  18  20
ENDBRANCH  12  15
BRANCH  11   8
ATOM      5  O   UNL     1      11.076  12.022  22.336  0.00  0.00    -0.270 OA
ATOM      8  N   UNL     1      11.623   9.813  22.783  0.00  0.00    -0.307 N 
ATOM     17  C   UNL     1      11.716  11.184  22.965  0.00  0.00    +0.244 C 
ATOM     32  H   UNL     1      12.263   9.187  23.261  0.00  0.00    +0.149 HD
BRANCH  17  19
ATOM     19  C   UNL     1      12.694  11.637  23.989  0.00  0.00    +0.037 A 
ATOM     21  C   UNL     1      14.044  11.313  23.857  0.00  0.00    +0.013 A 
ATOM     22  C   UNL     1      12.259  12.387  25.082  0.00  0.00    +0.013 A 
ATOM     25  C   UNL     1      14.960  11.741  24.818  0.00  0.00    +0.001 A 
ATOM     26  C   UNL     1      13.175  12.813  26.043  0.00  0.00    +0.001 A 
ATOM     27  C   UNL     1      14.526  12.490  25.911  0.00  0.00    +0.000 A 
ENDBRANCH  17  19
ENDBRANCH  11   8
TORSDOF 6
ENDMDL
MODEL 2
REMARK VINA RESULT:      -7.4      3.461      5.337
REMARK  Name = 28960679
REMARK  7 active torsions:
REMARK  status: ('A' for Active; 'I' for Inactive)
REMARK    1  A    between atoms: O_6  and  C_30
REMARK    2  A    between atoms: O_6  and  C_31
REMARK    3  A    between atoms: N_7  and  C_16
REMARK    4  A    between atoms: N_8  and  C_11
REMARK    5  A    between atoms: C_12  and  C_15
REMARK    6  A    between atoms: C_17  and  C_19
REMARK    7  A    between atoms: C_18  and  C_20
REMARK                            x       y       z     vdW  Elec       q    Type
REMARK                         _______ _______ _______ _____ _____    ______ ____
ROOT
ATOM      7  N   UNL     1      11.933   8.558  19.743  0.00  0.00    -0.293 NA
ATOM     11  C   UNL     1      11.921   8.479  17.414  0.00  0.00    +0.089 C 
ATOM     12  C   UNL     1      12.591   7.275  19.431  0.00  0.00    +0.147 C 
ATOM     13  C   UNL     1      12.729   7.275  17.896  0.00  0.00    +0.052 C 
ATOM     14  C   UNL     1      11.052   8.843  18.607  0.00  0.00    +0.107 C 
ATOM     16  C   UNL     1      11.205   8.537  21.006  0.00  0.00    +0.105 C 
ENDROOT
BRANCH  12  15
ATOM      4  O   UNL     1      13.937   7.340  21.470  0.00  0.00    -0.336 OA
ATOM      9  N   UNL     1      15.076   6.724  19.641  0.00  0.00    -0.190 NA
ATOM     10  N   UNL     1      15.253   7.106  21.890  0.00  0.00    -0.056 NA
ATOM     15  C   UNL     1      13.920   7.091  20.134  0.00  0.00    +0.245 A 
ATOM     18  C   UNL     1      15.863   6.748  20.756  0.00  0.00    +0.202 A 
BRANCH  18  20
ATOM     20  C   UNL     1      17.255   6.406  20.703  0.00  0.00    +0.023 A 
ATOM     23  C   UNL     1      17.735   5.595  19.675  0.00  0.00    +0.015 A 
ATOM     24  C   UNL     1      18.128   6.885  21.680  0.00  0.00    +0.015 A 
ATOM     28  C   UNL     1      19.089   5.262  19.623  0.00  0.00    +0.046 A 
ATOM     29  C   UNL     1      19.481   6.550  21.629  0.00  0.00    +0.046 A 
ATOM     30  C   UNL     1      19.961   5.739  20.601  0.00  0.00    +0.130 A 
BRANCH  30   6
ATOM      6  O   UNL     1      21.282   5.415  20.553  0.00  0.00    -0.406 OA
BRANCH   6  31
ATOM      1  F   UNL     1      20.838   3.212  20.754  0.00  0.00    -0.133 F 
ATOM      2  F   UNL     1      22.931   3.838  20.716  0.00  0.00    -0.133 F 
ATOM      3  F   UNL     1      21.673   4.253  22.484  0.00  0.00    -0.133 F 
ATOM     31  C   UNL     1      21.696   4.185  21.137  0.00  0.00    +0.575 C 
ENDBRANCH   6  31
ENDBRANCH  30   6
ENDBRANCH  18  20
ENDBRANCH  12  15
BRANCH  11   8
ATOM      5  O   UNL     1      13.734   8.543  15.189  0.00  0.00    -0.270 OA
ATOM      8  N   UNL     1      12.777   9.576  17.032  0.00  0.00    -0.307 N 
ATOM     17  C   UNL     1      13.623   9.513  15.935  0.00  0.00    +0.244 C 
ATOM     32  H   UNL     1      12.820  10.367  17.667  0.00  0.00    +0.149 HD
BRANCH  17  19
ATOM     19  C   UNL     1      14.460  10.716  15.692  0.00  0.00    +0.037 A 
ATOM     21  C   UNL     1      15.402  10.716  14.662  0.00  0.00    +0.013 A 
ATOM     22  C   UNL     1      14.303  11.847  16.494  0.00  0.00    +0.013 A 
ATOM     25  C   UNL     1      16.185  11.847  14.435  0.00  0.00    +0.001 A 
ATOM     26  C   UNL     1      15.087  12.977  16.266  0.00  0.00    +0.001 A 
ATOM     27  C   UNL     1      16.029  12.977  15.237  0.00  0.00    +0.000 A 
ENDBRANCH  17  19
ENDBRANCH  11   8
TORSDOF 6
ENDMDL
MODEL 3
REMARK VINA RESULT:      -7.1     28.337     30.360
REMARK  Name = 28960679
REMARK  7 active torsions:
REMARK  status: ('A' for Active; 'I' for Inactive)
REMARK    1  A    between atoms: O_6  and  C_30
REMARK    2  A    between atoms: O_6  and  C_31
REMARK    3  A    between atoms: N_7  and  C_16
REMARK    4  A    between atoms: N_8  and  C_11
REMARK    5  A    between atoms: C_12  and  C_15
REMARK    6  A    between atoms: C_17  and  C_19
REMARK    7  A    between atoms: C_18  and  C_20
REMARK                            x       y       z     vdW  Elec       q    Type
REMARK                         _______ _______ _______ _____ _____    ______ ____
ROOT
ATOM      7  N   UNL     1      -4.099 -13.616  14.906  0.00  0.00    -0.293 NA
ATOM     11  C   UNL     1      -2.371 -12.633  13.689  0.00  0.00    +0.089 C 
ATOM     12  C   UNL     1      -3.641 -12.514  15.773  0.00  0.00    +0.147 C 
ATOM     13  C   UNL     1      -2.601 -11.759  14.921  0.00  0.00    +0.052 C 
ATOM     14  C   UNL     1      -2.944 -13.986  14.082  0.00  0.00    +0.107 C 
ATOM     16  C   UNL     1      -4.622 -14.754  15.653  0.00  0.00    +0.105 C 
ENDROOT
BRANCH  12  15
ATOM      4  O   UNL     1      -4.712 -11.230  17.555  0.00  0.00    -0.336 OA
ATOM      9  N   UNL     1      -5.792 -11.151  15.593  0.00  0.00    -0.190 NA
ATOM     10  N   UNL     1      -5.836 -10.420  17.761  0.00  0.00    -0.056 NA
ATOM     15  C   UNL     1      -4.762 -11.617  16.253  0.00  0.00    +0.245 A 
ATOM     18  C   UNL     1      -6.423 -10.422  16.560  0.00  0.00    +0.202 A 
BRANCH  18  20
ATOM     20  C   UNL     1      -7.636  -9.706  16.293  0.00  0.00    +0.023 A 
ATOM     23  C   UNL     1      -8.172  -9.698  15.005  0.00  0.00    +0.015 A 
ATOM     24  C   UNL     1      -8.279  -9.016  17.321  0.00  0.00    +0.015 A 
ATOM     28  C   UNL     1      -9.352  -9.001  14.745  0.00  0.00    +0.046 A 
ATOM     29  C   UNL     1      -9.459  -8.318  17.060  0.00  0.00    +0.046 A 
ATOM     30  C   UNL     1      -9.995  -8.311  15.772  0.00  0.00    +0.130 A 
BRANCH  30   6
ATOM      6  O   UNL     1     -11.145  -7.629  15.520  0.00  0.00    -0.406 OA
BRANCH   6  31
ATOM      1  F   UNL     1     -11.982  -5.722  14.652  0.00  0.00    -0.133 F 
ATOM      2  F   UNL     1     -11.484  -5.751  16.779  0.00  0.00    -0.133 F 
ATOM      3  F   UNL     1      -9.883  -5.740  15.257  0.00  0.00    -0.133 F 
ATOM     31  C   UNL     1     -11.111  -6.207  15.565  0.00  0.00    +0.575 C 
ENDBRANCH   6  31
ENDBRANCH  30   6
ENDBRANCH  18  20
ENDBRANCH  12  15
BRANCH  11   8
ATOM      5  O   UNL     1      -1.434 -10.504  12.006  0.00  0.00    -0.270 OA
ATOM      8  N   UNL     1      -3.037 -12.098  12.525  0.00  0.00    -0.307 N 
ATOM     17  C   UNL     1      -2.503 -11.064  11.773  0.00  0.00    +0.244 C 
ATOM     32  H   UNL     1      -3.975 -12.437  12.338  0.00  0.00    +0.149 HD
BRANCH  17  19
ATOM     19  C   UNL     1      -3.324 -10.609  10.621  0.00  0.00    +0.037 A 
ATOM     21  C   UNL     1      -3.328  -9.263  10.254  0.00  0.00    +0.013 A 
ATOM     22  C   UNL     1      -4.091 -11.530   9.906  0.00  0.00    +0.013 A 
ATOM     25  C   UNL     1      -4.098  -8.838   9.172  0.00  0.00    +0.001 A 
ATOM     26  C   UNL     1      -4.862 -11.104   8.825  0.00  0.00    +0.001 A 
ATOM     27  C   UNL     1      -4.866  -9.758   8.458  0.00  0.00    +0.000 A 
ENDBRANCH  17  19
ENDBRANCH  11   8
TORSDOF 6
ENDMDL
MODEL 4
REMARK VINA RESULT:      -7.0      4.987     10.482
REMARK  Name = 28960679
REMARK  7 active torsions:
REMARK  status: ('A' for Active; 'I' for Inactive)
REMARK    1  A    between atoms: O_6  and  C_30
REMARK    2  A    between atoms: O_6  and  C_31
REMARK    3  A    between atoms: N_7  and  C_16
REMARK    4  A    between atoms: N_8  and  C_11
REMARK    5  A    between atoms: C_12  and  C_15
REMARK    6  A    between atoms: C_17  and  C_19
REMARK    7  A    between atoms: C_18  and  C_20
REMARK                            x       y       z     vdW  Elec       q    Type
REMARK                         _______ _______ _______ _____ _____    ______ ____
ROOT
ATOM      7  N   UNL     1      21.074   7.647  22.794  0.00  0.00    -0.293 NA
ATOM     11  C   UNL     1      22.994   7.335  21.510  0.00  0.00    +0.089 C 
ATOM     12  C   UNL     1      20.672   8.090  21.446  0.00  0.00    +0.147 C 
ATOM     13  C   UNL     1      21.879   7.749  20.551  0.00  0.00    +0.052 C 
ATOM     14  C   UNL     1      22.525   7.843  22.865  0.00  0.00    +0.107 C 
ATOM     16  C   UNL     1      20.377   8.353  23.863  0.00  0.00    +0.105 C 
ENDROOT
BRANCH  12  15
ATOM      4  O   UNL     1      19.496   6.209  20.421  0.00  0.00    -0.336 OA
ATOM      9  N   UNL     1      18.167   7.925  20.976  0.00  0.00    -0.190 NA
ATOM     10  N   UNL     1      18.198   5.834  20.048  0.00  0.00    -0.056 NA
ATOM     15  C   UNL     1      19.387   7.451  20.959  0.00  0.00    +0.245 A 
ATOM     18  C   UNL     1      17.473   6.897  20.406  0.00  0.00    +0.202 A 
BRANCH  18  20
ATOM     20  C   UNL     1      16.053   6.963  20.212  0.00  0.00    +0.023 A 
ATOM     23  C   UNL     1      15.528   7.018  18.920  0.00  0.00    +0.015 A 
ATOM     24  C   UNL     1      15.198   6.973  21.314  0.00  0.00    +0.015 A 
ATOM     28  C   UNL     1      14.148   7.082  18.731  0.00  0.00    +0.046 A 
ATOM     29  C   UNL     1      13.818   7.039  21.124  0.00  0.00    +0.046 A 
ATOM     30  C   UNL     1      13.293   7.094  19.833  0.00  0.00    +0.130 A 
BRANCH  30   6
ATOM      6  O   UNL     1      11.946   7.157  19.650  0.00  0.00    -0.406 OA
BRANCH   6  31
ATOM      1  F   UNL     1      12.261   9.387  19.794  0.00  0.00    -0.133 F 
ATOM      2  F   UNL     1      10.520   8.665  18.690  0.00  0.00    -0.133 F 
ATOM      3  F   UNL     1      10.586   8.513  20.893  0.00  0.00    -0.133 F 
ATOM     31  C   UNL     1      11.310   8.426  19.757  0.00  0.00    +0.575 C 
ENDBRANCH   6  31
ENDBRANCH  30   6
ENDBRANCH  18  20
ENDBRANCH  12  15
BRANCH  11   8
ATOM      5  O   UNL     1      25.439   5.930  22.048  0.00  0.00    -0.270 OA
ATOM      8  N   UNL     1      23.181   5.903  21.521  0.00  0.00    -0.307 N 
ATOM     17  C   UNL     1      24.406   5.315  21.793  0.00  0.00    +0.244 C 
ATOM     32  H   UNL     1      22.398   5.337  21.210  0.00  0.00    +0.149 HD
BRANCH  17  19
ATOM     19  C   UNL     1      24.440   3.830  21.738  0.00  0.00    +0.037 A 
ATOM     21  C   UNL     1      25.238   3.116  22.632  0.00  0.00    +0.013 A 
ATOM     22  C   UNL     1      23.670   3.152  20.793  0.00  0.00    +0.013 A 
ATOM     25  C   UNL     1      25.267   1.722  22.579  0.00  0.00    +0.001 A 
ATOM     26  C   UNL     1      23.700   1.759  20.741  0.00  0.00    +0.001 A 
ATOM     27  C   UNL     1      24.498   1.044  21.634  0.00  0.00    +0.000 A 
ENDBRANCH  17  19
ENDBRANCH  11   8
TORSDOF 6
ENDMDL
MODEL 5
REMARK VINA RESULT:      -7.0     28.402     31.742
REMARK  Name = 28960679
REMARK  7 active torsions:
REMARK  status: ('A' for Active; 'I' for Inactive)
REMARK    1  A    between atoms: O_6  and  C_30
REMARK    2  A    between atoms: O_6  and  C_31
REMARK    3  A    between atoms: N_7  and  C_16
REMARK    4  A    between atoms: N_8  and  C_11
REMARK    5  A    between atoms: C_12  and  C_15
REMARK    6  A    between atoms: C_17  and  C_19
REMARK    7  A    between atoms: C_18  and  C_20
REMARK                            x       y       z     vdW  Elec       q    Type
REMARK                         _______ _______ _______ _____ _____    ______ ____
ROOT
ATOM      7  N   UNL     1     -12.116 -11.573  18.745  0.00  0.00    -0.293 NA
ATOM     11  C   UNL     1     -13.099 -10.689  20.664  0.00  0.00    +0.089 C 
ATOM     12  C   UNL     1     -11.308 -10.373  19.034  0.00  0.00    +0.147 C 
ATOM     13  C   UNL     1     -11.847  -9.859  20.383  0.00  0.00    +0.052 C 
ATOM     14  C   UNL     1     -13.439 -11.314  19.320  0.00  0.00    +0.107 C 
ATOM     16  C   UNL     1     -12.192 -11.886  17.323  0.00  0.00    +0.105 C 
ENDROOT
BRANCH  12  15
ATOM      4  O   UNL     1      -9.337 -11.247  20.184  0.00  0.00    -0.336 OA
ATOM      9  N   UNL     1      -8.906 -10.371  18.167  0.00  0.00    -0.190 NA
ATOM     10  N   UNL     1      -7.957 -11.387  19.984  0.00  0.00    -0.056 NA
ATOM     15  C   UNL     1      -9.818 -10.641  19.067  0.00  0.00    +0.245 A 
ATOM     18  C   UNL     1      -7.780 -10.846  18.774  0.00  0.00    +0.202 A 
BRANCH  18  20
ATOM     20  C   UNL     1      -6.494 -10.769  18.145  0.00  0.00    +0.023 A 
ATOM     23  C   UNL     1      -6.332 -10.019  16.979  0.00  0.00    +0.015 A 
ATOM     24  C   UNL     1      -5.405 -11.443  18.697  0.00  0.00    +0.015 A 
ATOM     28  C   UNL     1      -5.082  -9.944  16.366  0.00  0.00    +0.046 A 
ATOM     29  C   UNL     1      -4.155 -11.369  18.083  0.00  0.00    +0.046 A 
ATOM     30  C   UNL     1      -3.993 -10.619  16.919  0.00  0.00    +0.130 A 
BRANCH  30   6
ATOM      6  O   UNL     1      -2.772 -10.547  16.321  0.00  0.00    -0.406 OA
BRANCH   6  31
ATOM      1  F   UNL     1      -1.280 -11.665  15.050  0.00  0.00    -0.133 F 
ATOM      2  F   UNL     1      -3.349 -12.368  15.064  0.00  0.00    -0.133 F 
ATOM      3  F   UNL     1      -2.816 -10.486  14.035  0.00  0.00    -0.133 F 
ATOM     31  C   UNL     1      -2.571 -11.266  15.109  0.00  0.00    +0.575 C 
ENDBRANCH   6  31
ENDBRANCH  30   6
ENDBRANCH  18  20
ENDBRANCH  12  15
BRANCH  11   8
ATOM      5  O   UNL     1     -15.014 -11.771  22.509  0.00  0.00    -0.270 OA
ATOM      8  N   UNL     1     -12.855 -11.698  21.667  0.00  0.00    -0.307 N 
ATOM     17  C   UNL     1     -13.849 -12.159  22.516  0.00  0.00    +0.244 C 
ATOM     32  H   UNL     1     -11.890 -11.983  21.804  0.00  0.00    +0.149 HD
BRANCH  17  19
ATOM     19  C   UNL     1     -13.429 -13.179  23.512  0.00  0.00    +0.037 A 
ATOM     21  C   UNL     1     -14.235 -13.449  24.618  0.00  0.00    +0.013 A 
ATOM     22  C   UNL     1     -12.228 -13.869  23.338  0.00  0.00    +0.013 A 
ATOM     25  C   UNL     1     -13.840 -14.408  25.551  0.00  0.00    +0.001 A 
ATOM     26  C   UNL     1     -11.834 -14.827  24.271  0.00  0.00    +0.001 A 
ATOM     27  C   UNL     1     -12.640 -15.096  25.378  0.00  0.00    +0.000 A 
ENDBRANCH  17  19
ENDBRANCH  11   8
TORSDOF 6
ENDMDL
MODEL 6
REMARK VINA RESULT:      -6.9     28.060     30.539
REMARK  Name = 28960679
REMARK  7 active torsions:
REMARK  status: ('A' for Active; 'I' for Inactive)
REMARK    1  A    between atoms: O_6  and  C_30
REMARK    2  A    between atoms: O_6  and  C_31
REMARK    3  A    between atoms: N_7  and  C_16
REMARK    4  A    between atoms: N_8  and  C_11
REMARK    5  A    between atoms: C_12  and  C_15
REMARK    6  A    between atoms: C_17  and  C_19
REMARK    7  A    between atoms: C_18  and  C_20
REMARK                            x       y       z     vdW  Elec       q    Type
REMARK                         _______ _______ _______ _____ _____    ______ ____
ROOT
ATOM      7  N   UNL     1      -4.459 -12.657  15.766  0.00  0.00    -0.293 NA
ATOM     11  C   UNL     1      -2.832 -11.188  14.974  0.00  0.00    +0.089 C 
ATOM     12  C   UNL     1      -4.321 -11.667  16.851  0.00  0.00    +0.147 C 
ATOM     13  C   UNL     1      -3.361 -10.603  16.283  0.00  0.00    +0.052 C 
ATOM     14  C   UNL     1      -3.171 -12.667  15.066  0.00  0.00    +0.107 C 
ATOM     16  C   UNL     1      -4.830 -13.983  16.244  0.00  0.00    +0.105 C 
ENDROOT
BRANCH  12  15
ATOM      4  O   UNL     1      -5.837 -10.991  18.645  0.00  0.00    -0.336 OA
ATOM      9  N   UNL     1      -6.640 -10.633  16.584  0.00  0.00    -0.190 NA
ATOM     10  N   UNL     1      -7.107 -10.425  18.814  0.00  0.00    -0.056 NA
ATOM     15  C   UNL     1      -5.641 -11.077  17.303  0.00  0.00    +0.245 A 
ATOM     18  C   UNL     1      -7.517 -10.243  17.556  0.00  0.00    +0.202 A 
BRANCH  18  20
ATOM     20  C   UNL     1      -8.793  -9.673  17.235  0.00  0.00    +0.023 A 
ATOM     23  C   UNL     1      -9.045  -9.211  15.942  0.00  0.00    +0.015 A 
ATOM     24  C   UNL     1      -9.781  -9.579  18.214  0.00  0.00    +0.015 A 
ATOM     28  C   UNL     1     -10.286  -8.656  15.630  0.00  0.00    +0.046 A 
ATOM     29  C   UNL     1     -11.021  -9.023  17.902  0.00  0.00    +0.046 A 
ATOM     30  C   UNL     1     -11.274  -8.561  16.610  0.00  0.00    +0.130 A 
BRANCH  30   6
ATOM      6  O   UNL     1     -12.485  -8.019  16.307  0.00  0.00    -0.406 OA
BRANCH   6  31
ATOM      1  F   UNL     1     -13.755  -6.154  16.299  0.00  0.00    -0.133 F 
ATOM      2  F   UNL     1     -11.607  -5.934  16.636  0.00  0.00    -0.133 F 
ATOM      3  F   UNL     1     -12.375  -6.465  14.633  0.00  0.00    -0.133 F 
ATOM     31  C   UNL     1     -12.539  -6.640  15.961  0.00  0.00    +0.575 C 
ENDBRANCH   6  31
ENDBRANCH  30   6
ENDBRANCH  18  20
ENDBRANCH  12  15
BRANCH  11   8
ATOM      5  O   UNL     1      -1.843 -11.188  12.279  0.00  0.00    -0.270 OA
ATOM      8  N   UNL     1      -3.457 -10.575  13.827  0.00  0.00    -0.307 N 
ATOM     17  C   UNL     1      -2.901 -10.629  12.559  0.00  0.00    +0.244 C 
ATOM     32  H   UNL     1      -4.276 -10.001  14.003  0.00  0.00    +0.149 HD
BRANCH  17  19
ATOM     19  C   UNL     1      -3.654  -9.924  11.489  0.00  0.00    +0.037 A 
ATOM     21  C   UNL     1      -2.994  -9.489  10.339  0.00  0.00    +0.013 A 
ATOM     22  C   UNL     1      -5.024  -9.700  11.635  0.00  0.00    +0.013 A 
ATOM     25  C   UNL     1      -3.704  -8.830   9.336  0.00  0.00    +0.001 A 
ATOM     26  C   UNL     1      -5.732  -9.039  10.632  0.00  0.00    +0.001 A 
ATOM     27  C   UNL     1      -5.072  -8.604   9.482  0.00  0.00    +0.000 A 
ENDBRANCH  17  19
ENDBRANCH  11   8
TORSDOF 6
ENDMDL
MODEL 7
REMARK VINA RESULT:      -6.8     29.076     32.282
REMARK  Name = 28960679
REMARK  7 active torsions:
REMARK  status: ('A' for Active; 'I' for Inactive)
REMARK    1  A    between atoms: O_6  and  C_30
REMARK    2  A    between atoms: O_6  and  C_31
REMARK    3  A    between atoms: N_7  and  C_16
REMARK    4  A    between atoms: N_8  and  C_11
REMARK    5  A    between atoms: C_12  and  C_15
REMARK    6  A    between atoms: C_17  and  C_19
REMARK    7  A    between atoms: C_18  and  C_20
REMARK                            x       y       z     vdW  Elec       q    Type
REMARK                         _______ _______ _______ _____ _____    ______ ____
ROOT
ATOM      7  N   UNL     1     -11.761 -11.747  18.669  0.00  0.00    -0.293 NA
ATOM     11  C   UNL     1     -10.098 -10.921  20.078  0.00  0.00    +0.089 C 
ATOM     12  C   UNL     1     -12.331 -10.489  19.186  0.00  0.00    +0.147 C 
ATOM     13  C   UNL     1     -11.187  -9.852  20.000  0.00  0.00    +0.052 C 
ATOM     14  C   UNL     1     -10.812 -12.206  19.687  0.00  0.00    +0.107 C 
ATOM     16  C   UNL     1     -12.772 -12.755  18.372  0.00  0.00    +0.105 C 
ENDROOT
BRANCH  12  15
ATOM      4  O   UNL     1     -14.195  -9.361  18.080  0.00  0.00    -0.336 OA
ATOM      9  N   UNL     1     -12.196  -8.939  17.161  0.00  0.00    -0.190 NA
ATOM     10  N   UNL     1     -14.435  -8.493  17.006  0.00  0.00    -0.056 NA
ATOM     15  C   UNL     1     -12.853  -9.571  18.101  0.00  0.00    +0.245 A 
ATOM     18  C   UNL     1     -13.209  -8.292  16.514  0.00  0.00    +0.202 A 
BRANCH  18  20
ATOM     20  C   UNL     1     -12.961  -7.448  15.381  0.00  0.00    +0.023 A 
ATOM     23  C   UNL     1     -12.097  -6.358  15.498  0.00  0.00    +0.015 A 
ATOM     24  C   UNL     1     -13.585  -7.716  14.163  0.00  0.00    +0.015 A 
ATOM     28  C   UNL     1     -11.857  -5.538  14.396  0.00  0.00    +0.046 A 
ATOM     29  C   UNL     1     -13.345  -6.895  13.061  0.00  0.00    +0.046 A 
ATOM     30  C   UNL     1     -12.482  -5.806  13.178  0.00  0.00    +0.130 A 
BRANCH  30   6
ATOM      6  O   UNL     1     -12.249  -5.005  12.102  0.00  0.00    -0.406 OA
BRANCH   6  31
ATOM      1  F   UNL     1     -11.786  -2.831  12.486  0.00  0.00    -0.133 F 
ATOM      2  F   UNL     1     -13.205  -3.314  10.897  0.00  0.00    -0.133 F 
ATOM      3  F   UNL     1     -13.774  -3.567  13.017  0.00  0.00    -0.133 F 
ATOM     31  C   UNL     1     -12.771  -3.682  12.121  0.00  0.00    +0.575 C 
ENDBRANCH   6  31
ENDBRANCH  30   6
ENDBRANCH  18  20
ENDBRANCH  12  15
BRANCH  11   8
ATOM      5  O   UNL     1      -7.435 -11.986  20.223  0.00  0.00    -0.270 OA
ATOM      8  N   UNL     1      -9.005 -10.633  19.181  0.00  0.00    -0.307 N 
ATOM     17  C   UNL     1      -7.749 -11.199  19.332  0.00  0.00    +0.244 C 
ATOM     32  H   UNL     1      -9.160  -9.907  18.488  0.00  0.00    +0.149 HD
BRANCH  17  19
ATOM     19  C   UNL     1      -6.724 -10.778  18.342  0.00  0.00    +0.037 A 
ATOM     21  C   UNL     1      -7.081  -9.958  17.271  0.00  0.00    +0.013 A 
ATOM     22  C   UNL     1      -5.403 -11.204  18.485  0.00  0.00    +0.013 A 
ATOM     25  C   UNL     1      -6.118  -9.564  16.343  0.00  0.00    +0.001 A 
ATOM     26  C   UNL     1      -4.440 -10.809  17.556  0.00  0.00    +0.001 A 
ATOM     27  C   UNL     1      -4.797  -9.990  16.485  0.00  0.00    +0.000 A 
ENDBRANCH  17  19
ENDBRANCH  11   8
TORSDOF 6
ENDMDL
MODEL 8
REMARK VINA RESULT:      -6.8      7.399     11.848
REMARK  Name = 28960679
REMARK  7 active torsions:
REMARK  status: ('A' for Active; 'I' for Inactive)
REMARK    1  A    between atoms: O_6  and  C_30
REMARK    2  A    between atoms: O_6  and  C_31
REMARK    3  A    between atoms: N_7  and  C_16
REMARK    4  A    between atoms: N_8  and  C_11
REMARK    5  A    between atoms: C_12  and  C_15
REMARK    6  A    between atoms: C_17  and  C_19
REMARK    7  A    between atoms: C_18  and  C_20
REMARK                            x       y       z     vdW  Elec       q    Type
REMARK                         _______ _______ _______ _____ _____    ______ ____
ROOT
ATOM      7  N   UNL     1      22.550   0.906  26.686  0.00  0.00    -0.293 NA
ATOM     11  C   UNL     1      22.321  -1.262  25.861  0.00  0.00    +0.089 C 
ATOM     12  C   UNL     1      23.518   0.848  25.574  0.00  0.00    +0.147 C 
ATOM     13  C   UNL     1      23.274  -0.527  24.920  0.00  0.00    +0.052 C 
ATOM     14  C   UNL     1      22.399  -0.473  27.159  0.00  0.00    +0.107 C 
ATOM     16  C   UNL     1      22.958   1.808  27.756  0.00  0.00    +0.105 C 
ENDROOT
BRANCH  12  15
ATOM      4  O   UNL     1      24.535   2.571  24.171  0.00  0.00    -0.336 OA
ATOM      9  N   UNL     1      22.297   2.519  24.079  0.00  0.00    -0.190 NA
ATOM     10  N   UNL     1      24.157   3.587  23.283  0.00  0.00    -0.056 NA
ATOM     15  C   UNL     1      23.380   1.992  24.592  0.00  0.00    +0.245 A 
ATOM     18  C   UNL     1      22.824   3.495  23.283  0.00  0.00    +0.202 A 
BRANCH  18  20
ATOM     20  C   UNL     1      21.991   4.358  22.497  0.00  0.00    +0.023 A 
ATOM     23  C   UNL     1      21.680   5.638  22.959  0.00  0.00    +0.015 A 
ATOM     24  C   UNL     1      21.491   3.918  21.271  0.00  0.00    +0.015 A 
ATOM     28  C   UNL     1      20.870   6.477  22.195  0.00  0.00    +0.046 A 
ATOM     29  C   UNL     1      20.680   4.758  20.508  0.00  0.00    +0.046 A 
ATOM     30  C   UNL     1      20.370   6.037  20.970  0.00  0.00    +0.130 A 
BRANCH  30   6
ATOM      6  O   UNL     1      19.579   6.855  20.223  0.00  0.00    -0.406 OA
BRANCH   6  31
ATOM      1  F   UNL     1      17.857   5.873  19.145  0.00  0.00    -0.133 F 
ATOM      2  F   UNL     1      17.798   5.939  21.328  0.00  0.00    -0.133 F 
ATOM      3  F   UNL     1      17.488   7.780  20.146  0.00  0.00    -0.133 F 
ATOM     31  C   UNL     1      18.175   6.621  20.226  0.00  0.00    +0.575 C 
ENDBRANCH   6  31
ENDBRANCH  30   6
ENDBRANCH  18  20
ENDBRANCH  12  15
BRANCH  11   8
ATOM      5  O   UNL     1      20.897  -3.564  24.903  0.00  0.00    -0.270 OA
ATOM      8  N   UNL     1      20.975  -1.288  25.341  0.00  0.00    -0.307 N 
ATOM     17  C   UNL     1      20.370  -2.455  24.900  0.00  0.00    +0.244 C 
ATOM     32  H   UNL     1      20.519  -0.391  25.206  0.00  0.00    +0.149 HD
BRANCH  17  19
ATOM     19  C   UNL     1      18.990  -2.308  24.368  0.00  0.00    +0.037 A 
ATOM     21  C   UNL     1      18.255  -1.154  24.638  0.00  0.00    +0.013 A 
ATOM     22  C   UNL     1      18.431  -3.327  23.595  0.00  0.00    +0.013 A 
ATOM     25  C   UNL     1      16.961  -1.018  24.136  0.00  0.00    +0.001 A 
ATOM     26  C   UNL     1      17.136  -3.191  23.095  0.00  0.00    +0.001 A 
ATOM     27  C   UNL     1      16.401  -2.036  23.365  0.00  0.00    +0.000 A 
ENDBRANCH  17  19
ENDBRANCH  11   8
TORSDOF 6
ENDMDL
MODEL 9
REMARK VINA RESULT:      -6.7     18.772     21.349
REMARK  Name = 28960679
REMARK  7 active torsions:
REMARK  status: ('A' for Active; 'I' for Inactive)
REMARK    1  A    between atoms: O_6  and  C_30
REMARK    2  A    between atoms: O_6  and  C_31
REMARK    3  A    between atoms: N_7  and  C_16
REMARK    4  A    between atoms: N_8  and  C_11
REMARK    5  A    between atoms: C_12  and  C_15
REMARK    6  A    between atoms: C_17  and  C_19
REMARK    7  A    between atoms: C_18  and  C_20
REMARK                            x       y       z     vdW  Elec       q    Type
REMARK                         _______ _______ _______ _____ _____    ______ ____
ROOT
ATOM      7  N   UNL     1       6.589  11.453   1.812  0.00  0.00    -0.293 NA
ATOM     11  C   UNL     1       4.438  10.889   1.114  0.00  0.00    +0.089 C 
ATOM     12  C   UNL     1       6.023  10.729   2.966  0.00  0.00    +0.147 C 
ATOM     13  C   UNL     1       4.657  10.217   2.468  0.00  0.00    +0.052 C 
ATOM     14  C   UNL     1       5.446  12.029   1.099  0.00  0.00    +0.107 C 
ATOM     16  C   UNL     1       7.562  12.470   2.194  0.00  0.00    +0.105 C 
ENDROOT
BRANCH  12  15
ATOM      4  O   UNL     1       7.507   8.836   2.532  0.00  0.00    -0.336 OA
ATOM      9  N   UNL     1       7.197   9.276   4.707  0.00  0.00    -0.190 NA
ATOM     10  N   UNL     1       8.266   7.890   3.234  0.00  0.00    -0.056 NA
ATOM     15  C   UNL     1       6.912   9.613   3.475  0.00  0.00    +0.245 A 
ATOM     18  C   UNL     1       8.030   8.213   4.509  0.00  0.00    +0.202 A 
BRANCH  18  20
ATOM     20  C   UNL     1       8.614   7.498   5.607  0.00  0.00    +0.023 A 
ATOM     23  C   UNL     1       8.783   8.130   6.839  0.00  0.00    +0.015 A 
ATOM     24  C   UNL     1       9.013   6.172   5.442  0.00  0.00    +0.015 A 
ATOM     28  C   UNL     1       9.351   7.435   7.907  0.00  0.00    +0.046 A 
ATOM     29  C   UNL     1       9.582   5.477   6.509  0.00  0.00    +0.046 A 
ATOM     30  C   UNL     1       9.751   6.109   7.741  0.00  0.00    +0.130 A 
BRANCH  30   6
ATOM      6  O   UNL     1      10.306   5.429   8.782  0.00  0.00    -0.406 OA
BRANCH   6  31
ATOM      1  F   UNL     1      10.108   4.329  10.742  0.00  0.00    -0.133 F 
ATOM      2  F   UNL     1       8.330   5.303   9.927  0.00  0.00    -0.133 F 
ATOM      3  F   UNL     1       9.134   3.475   8.982  0.00  0.00    -0.133 F 
ATOM     31  C   UNL     1       9.454   4.632   9.598  0.00  0.00    +0.575 C 
ENDBRANCH   6  31
ENDBRANCH  30   6
ENDBRANCH  18  20
ENDBRANCH  12  15
BRANCH  11   8
ATOM      5  O   UNL     1       3.143  10.923  -1.449  0.00  0.00    -0.270 OA
ATOM      8  N   UNL     1       4.664   9.973   0.022  0.00  0.00    -0.307 N 
ATOM     17  C   UNL     1       3.987  10.070  -1.184  0.00  0.00    +0.244 C 
ATOM     32  H   UNL     1       5.266   9.177   0.209  0.00  0.00    +0.149 HD
BRANCH  17  19
ATOM     19  C   UNL     1       4.314   9.033  -2.197  0.00  0.00    +0.037 A 
ATOM     21  C   UNL     1       5.012   7.885  -1.822  0.00  0.00    +0.013 A 
ATOM     22  C   UNL     1       3.920   9.209  -3.524  0.00  0.00    +0.013 A 
ATOM     25  C   UNL     1       5.316   6.913  -2.774  0.00  0.00    +0.001 A 
ATOM     26  C   UNL     1       4.226   8.236  -4.475  0.00  0.00    +0.001 A 
ATOM     27  C   UNL     1       4.924   7.088  -4.100  0.00  0.00    +0.000 A 
ENDBRANCH  17  19
ENDBRANCH  11   8
TORSDOF 6
ENDMDL
MODEL 10
REMARK VINA RESULT:      -6.7     28.622     30.999
REMARK  Name = 28960679
REMARK  7 active torsions:
REMARK  status: ('A' for Active; 'I' for Inactive)
REMARK    1  A    between atoms: O_6  and  C_30
REMARK    2  A    between atoms: O_6  and  C_31
REMARK    3  A    between atoms: N_7  and  C_16
REMARK    4  A    between atoms: N_8  and  C_11
REMARK    5  A    between atoms: C_12  and  C_15
REMARK    6  A    between atoms: C_17  and  C_19
REMARK    7  A    between atoms: C_18  and  C_20
REMARK                            x       y       z     vdW  Elec       q    Type
REMARK                         _______ _______ _______ _____ _____    ______ ____
ROOT
ATOM      7  N   UNL     1      -6.484 -11.950  16.044  0.00  0.00    -0.293 NA
ATOM     11  C   UNL     1      -4.550 -10.773  15.489  0.00  0.00    +0.089 C 
ATOM     12  C   UNL     1      -6.474 -10.823  16.995  0.00  0.00    +0.147 C 
ATOM     13  C   UNL     1      -5.285  -9.949  16.546  0.00  0.00    +0.052 C 
ATOM     14  C   UNL     1      -5.083 -12.184  15.683  0.00  0.00    +0.107 C 
ATOM     16  C   UNL     1      -7.116 -13.149  16.582  0.00  0.00    +0.105 C 
ENDROOT
BRANCH  12  15
ATOM      4  O   UNL     1      -8.459 -10.080  18.211  0.00  0.00    -0.336 OA
ATOM      9  N   UNL     1      -8.360  -9.358  16.092  0.00  0.00    -0.190 NA
ATOM     10  N   UNL     1      -9.613  -9.312  18.006  0.00  0.00    -0.056 NA
ATOM     15  C   UNL     1      -7.778 -10.054  17.035  0.00  0.00    +0.245 A 
ATOM     18  C   UNL     1      -9.483  -8.923  16.734  0.00  0.00    +0.202 A 
BRANCH  18  20
ATOM     20  C   UNL     1     -10.455  -8.097  16.078  0.00  0.00    +0.023 A 
ATOM     23  C   UNL     1     -10.976  -8.481  14.842  0.00  0.00    +0.015 A 
ATOM     24  C   UNL     1     -10.878  -6.909  16.675  0.00  0.00    +0.015 A 
ATOM     28  C   UNL     1     -11.920  -7.677  14.203  0.00  0.00    +0.046 A 
ATOM     29  C   UNL     1     -11.821  -6.105  16.035  0.00  0.00    +0.046 A 
ATOM     30  C   UNL     1     -12.342  -6.489  14.800  0.00  0.00    +0.130 A 
BRANCH  30   6
ATOM      6  O   UNL     1     -13.263  -5.704  14.177  0.00  0.00    -0.406 OA
BRANCH   6  31
ATOM      1  F   UNL     1     -11.509  -4.585  13.305  0.00  0.00    -0.133 F 
ATOM      2  F   UNL     1     -12.965  -5.450  11.924  0.00  0.00    -0.133 F 
ATOM      3  F   UNL     1     -13.490  -3.679  13.138  0.00  0.00    -0.133 F 
ATOM     31  C   UNL     1     -12.822  -4.852  13.126  0.00  0.00    +0.575 C 
ENDBRANCH   6  31
ENDBRANCH  30   6
ENDBRANCH  18  20
ENDBRANCH  12  15
BRANCH  11   8
ATOM      5  O   UNL     1      -2.795 -10.932  13.223  0.00  0.00    -0.270 OA
ATOM      8  N   UNL     1      -4.818 -10.288  14.156  0.00  0.00    -0.307 N 
ATOM     17  C   UNL     1      -3.903 -10.412  13.122  0.00  0.00    +0.244 C 
ATOM     32  H   UNL     1      -5.668  -9.749  14.027  0.00  0.00    +0.149 HD
BRANCH  17  19
ATOM     19  C   UNL     1      -4.319  -9.837  11.816  0.00  0.00    +0.037 A 
ATOM     21  C   UNL     1      -5.616  -9.349  11.648  0.00  0.00    +0.013 A 
ATOM     22  C   UNL     1      -3.411  -9.784  10.759  0.00  0.00    +0.013 A 
ATOM     25  C   UNL     1      -6.003  -8.809  10.423  0.00  0.00    +0.001 A 
ATOM     26  C   UNL     1      -3.800  -9.244   9.533  0.00  0.00    +0.001 A 
ATOM     27  C   UNL     1      -5.096  -8.757   9.365  0.00  0.00    +0.000 A 
ENDBRANCH  17  19
ENDBRANCH  11   8
TORSDOF 6
ENDMDL
