MODEL 1
REMARK VINA RESULT:      -7.8      0.000      0.000
REMARK  Name = 26744730
REMARK  6 active torsions:
REMARK  status: ('A' for Active; 'I' for Inactive)
REMARK    1  A    between atoms: N_2  and  C_12
REMARK    2  A    between atoms: C_9  and  C_16
REMARK    3  A    between atoms: C_12  and  C_15
REMARK    4  A    between atoms: C_15  and  C_17
REMARK    5  A    between atoms: C_17  and  C_19
REMARK    6  A    between atoms: C_20  and  C_23
REMARK                            x       y       z     vdW  Elec       q    Type
REMARK                         _______ _______ _______ _____ _____    ______ ____
ROOT
ATOM      2  N   UNL     1      14.436   7.537  19.307  0.00  0.00    -0.285 NA
ATOM      3  N   UNL     1      11.906   6.653  21.929  0.00  0.00    -0.347 N 
ATOM      4  N   UNL     1      10.532   7.973  20.760  0.00  0.00    -0.240 NA
ATOM      9  C   UNL     1      13.400   7.784  18.245  0.00  0.00    +0.152 C 
ATOM     10  C   UNL     1      12.098   8.445  18.822  0.00  0.00    +0.085 C 
ATOM     11  C   UNL     1      13.941   6.627  20.379  0.00  0.00    +0.140 C 
ATOM     13  C   UNL     1      12.583   7.020  20.807  0.00  0.00    +0.053 A 
ATOM     14  C   UNL     1      11.721   7.821  20.105  0.00  0.00    +0.065 A 
ATOM     18  C   UNL     1      10.674   7.254  21.857  0.00  0.00    +0.197 A 
ATOM     30  H   UNL     1      12.238   6.053  22.673  0.00  0.00    +0.167 HD
ENDROOT
BRANCH   9  16
ATOM      1  O   UNL     1      13.872   8.082  15.856  0.00  0.00    -0.336 OA
ATOM      5  N   UNL     1      14.340   9.880  17.107  0.00  0.00    -0.189 NA
ATOM      6  N   UNL     1      14.362   9.052  14.974  0.00  0.00    -0.054 NA
ATOM     16  C   UNL     1      13.893   8.650  17.090  0.00  0.00    +0.245 A 
ATOM     20  C   UNL     1      14.616  10.083  15.785  0.00  0.00    +0.222 A 
BRANCH  20  23
ATOM      7  N   UNL     1      16.278  11.268  14.584  0.00  0.00    -0.249 NA
ATOM      8  N   UNL     1      15.001  13.702  15.142  0.00  0.00    -0.260 NA
ATOM     23  C   UNL     1      15.143  11.329  15.309  0.00  0.00    +0.129 A 
ATOM     27  C   UNL     1      14.517  12.524  15.583  0.00  0.00    +0.142 A 
ATOM     28  C   UNL     1      16.762  12.446  14.143  0.00  0.00    +0.131 A 
ATOM     29  C   UNL     1      16.136  13.642  14.417  0.00  0.00    +0.130 A 
ENDBRANCH  20  23
ENDBRANCH   9  16
BRANCH   2  12
ATOM     12  C   UNL     1      15.673   6.966  18.758  0.00  0.00    +0.086 C 
BRANCH  12  15
ATOM     15  C   UNL     1      16.747   6.883  19.841  0.00  0.00    +0.020 C 
BRANCH  15  17
ATOM     17  C   UNL     1      17.863   5.915  19.439  0.00  0.00    +0.036 C 
BRANCH  17  19
ATOM     19  C   UNL     1      18.971   5.886  20.459  0.00  0.00    -0.047 A 
ATOM     21  C   UNL     1      20.078   5.060  20.263  0.00  0.00    +0.003 A 
ATOM     22  C   UNL     1      18.890   6.685  21.600  0.00  0.00    +0.003 A 
ATOM     24  C   UNL     1      21.104   5.033  21.208  0.00  0.00    +0.000 A 
ATOM     25  C   UNL     1      19.916   6.659  22.545  0.00  0.00    +0.000 A 
ATOM     26  C   UNL     1      21.023   5.832  22.349  0.00  0.00    +0.000 A 
ENDBRANCH  17  19
ENDBRANCH  15  17
ENDBRANCH  12  15
ENDBRANCH   2  12
TORSDOF 6
ENDMDL
MODEL 2
REMARK VINA RESULT:      -7.7      3.031      7.327
REMARK  Name = 26744730
REMARK  6 active torsions:
REMARK  status: ('A' for Active; 'I' for Inactive)
REMARK    1  A    between atoms: N_2  and  C_12
REMARK    2  A    between atoms: C_9  and  C_16
REMARK    3  A    between atoms: C_12  and  C_15
REMARK    4  A    between atoms: C_15  and  C_17
REMARK    5  A    between atoms: C_17  and  C_19
REMARK    6  A    between atoms: C_20  and  C_23
REMARK                            x       y       z     vdW  Elec       q    Type
REMARK                         _______ _______ _______ _____ _____    ______ ____
ROOT
ATOM      2  N   UNL     1      14.223   7.569  19.319  0.00  0.00    -0.285 NA
ATOM      3  N   UNL     1      17.662   6.087  19.129  0.00  0.00    -0.347 N 
ATOM      4  N   UNL     1      17.781   6.598  21.303  0.00  0.00    -0.240 NA
ATOM      9  C   UNL     1      14.055   7.251  20.779  0.00  0.00    +0.152 C 
ATOM     10  C   UNL     1      15.394   7.408  21.583  0.00  0.00    +0.085 C 
ATOM     11  C   UNL     1      15.218   6.678  18.657  0.00  0.00    +0.140 C 
ATOM     13  C   UNL     1      16.433   6.550  19.487  0.00  0.00    +0.053 A 
ATOM     14  C   UNL     1      16.528   6.849  20.821  0.00  0.00    +0.065 A 
ATOM     18  C   UNL     1      18.442   6.136  20.259  0.00  0.00    +0.197 A 
ATOM     30  H   UNL     1      17.949   5.765  18.215  0.00  0.00    +0.167 HD
ENDROOT
BRANCH   9  16
ATOM      1  O   UNL     1      11.894   7.426  21.926  0.00  0.00    -0.336 OA
ATOM      5  N   UNL     1      12.970   9.378  21.712  0.00  0.00    -0.189 NA
ATOM      6  N   UNL     1      11.070   8.391  22.519  0.00  0.00    -0.054 NA
ATOM     16  C   UNL     1      12.990   8.091  21.476  0.00  0.00    +0.245 A 
ATOM     20  C   UNL     1      11.773   9.515  22.354  0.00  0.00    +0.222 A 
BRANCH  20  23
ATOM      7  N   UNL     1      11.260  11.784  21.909  0.00  0.00    -0.249 NA
ATOM      8  N   UNL     1      10.497  12.176  24.580  0.00  0.00    -0.260 NA
ATOM     23  C   UNL     1      11.309  10.791  22.818  0.00  0.00    +0.129 A 
ATOM     27  C   UNL     1      10.934  10.983  24.130  0.00  0.00    +0.142 A 
ATOM     28  C   UNL     1      10.822  12.977  22.359  0.00  0.00    +0.131 A 
ATOM     29  C   UNL     1      10.448  13.170  23.671  0.00  0.00    +0.130 A 
ENDBRANCH  20  23
ENDBRANCH   9  16
BRANCH   2  12
ATOM     12  C   UNL     1      12.958   7.472  18.577  0.00  0.00    +0.086 C 
BRANCH  12  15
ATOM     15  C   UNL     1      12.847   8.610  17.564  0.00  0.00    +0.020 C 
BRANCH  15  17
ATOM     17  C   UNL     1      13.438   9.906  18.124  0.00  0.00    +0.036 C 
BRANCH  17  19
ATOM     19  C   UNL     1      14.379  10.560  17.144  0.00  0.00    -0.047 A 
ATOM     21  C   UNL     1      14.476  10.074  15.841  0.00  0.00    +0.003 A 
ATOM     22  C   UNL     1      15.152  11.651  17.542  0.00  0.00    +0.003 A 
ATOM     24  C   UNL     1      15.347  10.679  14.934  0.00  0.00    +0.000 A 
ATOM     25  C   UNL     1      16.022  12.256  16.635  0.00  0.00    +0.000 A 
ATOM     26  C   UNL     1      16.120  11.770  15.331  0.00  0.00    +0.000 A 
ENDBRANCH  17  19
ENDBRANCH  15  17
ENDBRANCH  12  15
ENDBRANCH   2  12
TORSDOF 6
ENDMDL
MODEL 3
REMARK VINA RESULT:      -7.4      3.445      7.717
REMARK  Name = 26744730
REMARK  6 active torsions:
REMARK  status: ('A' for Active; 'I' for Inactive)
REMARK    1  A    between atoms: N_2  and  C_12
REMARK    2  A    between atoms: C_9  and  C_16
REMARK    3  A    between atoms: C_12  and  C_15
REMARK    4  A    between atoms: C_15  and  C_17
REMARK    5  A    between atoms: C_17  and  C_19
REMARK    6  A    between atoms: C_20  and  C_23
REMARK                            x       y       z     vdW  Elec       q    Type
REMARK                         _______ _______ _______ _____ _____    ______ ____
ROOT
ATOM      2  N   UNL     1      12.588   8.460  19.935  0.00  0.00    -0.285 NA
ATOM      3  N   UNL     1      10.236   8.743  17.028  0.00  0.00    -0.347 N 
ATOM      4  N   UNL     1      12.096   8.897  15.798  0.00  0.00    -0.240 NA
ATOM      9  C   UNL     1      13.699   7.871  19.110  0.00  0.00    +0.152 C 
ATOM     10  C   UNL     1      13.762   8.485  17.666  0.00  0.00    +0.085 C 
ATOM     11  C   UNL     1      11.247   8.234  19.321  0.00  0.00    +0.140 C 
ATOM     13  C   UNL     1      11.280   8.537  17.877  0.00  0.00    +0.053 A 
ATOM     14  C   UNL     1      12.406   8.629  17.101  0.00  0.00    +0.065 A 
ATOM     18  C   UNL     1      10.779   8.957  15.785  0.00  0.00    +0.197 A 
ATOM     30  H   UNL     1       9.252   8.737  17.260  0.00  0.00    +0.167 HD
ENDROOT
BRANCH   9  16
ATOM      1  O   UNL     1      15.430   9.260  20.154  0.00  0.00    -0.336 OA
ATOM      5  N   UNL     1      15.997   7.103  19.948  0.00  0.00    -0.189 NA
ATOM      6  N   UNL     1      16.719   9.144  20.689  0.00  0.00    -0.054 NA
ATOM     16  C   UNL     1      15.080   8.015  19.740  0.00  0.00    +0.245 A 
ATOM     20  C   UNL     1      16.984   7.844  20.532  0.00  0.00    +0.222 A 
BRANCH  20  23
ATOM      7  N   UNL     1      18.814   7.787  22.034  0.00  0.00    -0.249 NA
ATOM      8  N   UNL     1      19.940   5.628  20.643  0.00  0.00    -0.260 NA
ATOM     23  C   UNL     1      18.223   7.253  20.947  0.00  0.00    +0.129 A 
ATOM     27  C   UNL     1      18.777   6.193  20.264  0.00  0.00    +0.142 A 
ATOM     28  C   UNL     1      19.977   7.222  22.413  0.00  0.00    +0.131 A 
ATOM     29  C   UNL     1      20.531   6.162  21.730  0.00  0.00    +0.130 A 
ENDBRANCH  20  23
ENDBRANCH   9  16
BRANCH   2  12
ATOM     12  C   UNL     1      12.562   7.923  21.302  0.00  0.00    +0.086 C 
BRANCH  12  15
ATOM     15  C   UNL     1      11.915   8.926  22.255  0.00  0.00    +0.020 C 
BRANCH  15  17
ATOM     17  C   UNL     1      12.561  10.307  22.123  0.00  0.00    +0.036 C 
BRANCH  17  19
ATOM     19  C   UNL     1      11.740  11.375  22.800  0.00  0.00    -0.047 A 
ATOM     21  C   UNL     1      11.401  11.246  24.146  0.00  0.00    +0.003 A 
ATOM     22  C   UNL     1      11.318  12.492  22.078  0.00  0.00    +0.003 A 
ATOM     24  C   UNL     1      10.641  12.234  24.772  0.00  0.00    +0.000 A 
ATOM     25  C   UNL     1      10.559  13.480  22.703  0.00  0.00    +0.000 A 
ATOM     26  C   UNL     1      10.220  13.351  24.051  0.00  0.00    +0.000 A 
ENDBRANCH  17  19
ENDBRANCH  15  17
ENDBRANCH  12  15
ENDBRANCH   2  12
TORSDOF 6
ENDMDL
MODEL 4
REMARK VINA RESULT:      -7.2      3.190      4.662
REMARK  Name = 26744730
REMARK  6 active torsions:
REMARK  status: ('A' for Active; 'I' for Inactive)
REMARK    1  A    between atoms: N_2  and  C_12
REMARK    2  A    between atoms: C_9  and  C_16
REMARK    3  A    between atoms: C_12  and  C_15
REMARK    4  A    between atoms: C_15  and  C_17
REMARK    5  A    between atoms: C_17  and  C_19
REMARK    6  A    between atoms: C_20  and  C_23
REMARK                            x       y       z     vdW  Elec       q    Type
REMARK                         _______ _______ _______ _____ _____    ______ ____
ROOT
ATOM      2  N   UNL     1      11.829   9.892  21.795  0.00  0.00    -0.285 NA
ATOM      3  N   UNL     1      10.612  11.527  24.942  0.00  0.00    -0.347 N 
ATOM      4  N   UNL     1      12.209  13.038  24.534  0.00  0.00    -0.240 NA
ATOM      9  C   UNL     1      12.334  11.178  21.201  0.00  0.00    +0.152 C 
ATOM     10  C   UNL     1      12.949  12.136  22.282  0.00  0.00    +0.085 C 
ATOM     11  C   UNL     1      10.762  10.120  22.811  0.00  0.00    +0.140 C 
ATOM     13  C   UNL     1      11.145  11.210  23.730  0.00  0.00    +0.053 A 
ATOM     14  C   UNL     1      12.115  12.151  23.500  0.00  0.00    +0.065 A 
ATOM     18  C   UNL     1      11.288  12.637  25.388  0.00  0.00    +0.197 A 
ATOM     30  H   UNL     1       9.863  11.048  25.422  0.00  0.00    +0.167 HD
ENDROOT
BRANCH   9  16
ATOM      1  O   UNL     1      14.624  10.640  20.505  0.00  0.00    -0.336 OA
ATOM      5  N   UNL     1      13.242  11.101  18.804  0.00  0.00    -0.189 NA
ATOM      6  N   UNL     1      15.390  10.522  19.338  0.00  0.00    -0.054 NA
ATOM     16  C   UNL     1      13.374  10.985  20.102  0.00  0.00    +0.245 A 
ATOM     20  C   UNL     1      14.506  10.809  18.379  0.00  0.00    +0.222 A 
BRANCH  20  23
ATOM      7  N   UNL     1      15.645  11.811  16.560  0.00  0.00    -0.249 NA
ATOM      8  N   UNL     1      14.704   9.821  14.822  0.00  0.00    -0.260 NA
ATOM     23  C   UNL     1      14.851  10.810  16.986  0.00  0.00    +0.129 A 
ATOM     27  C   UNL     1      14.388   9.833  16.132  0.00  0.00    +0.142 A 
ATOM     28  C   UNL     1      15.961  11.800  15.250  0.00  0.00    +0.131 A 
ATOM     29  C   UNL     1      15.498  10.823  14.396  0.00  0.00    +0.130 A 
ENDBRANCH  20  23
ENDBRANCH   9  16
BRANCH   2  12
ATOM     12  C   UNL     1      11.301   8.976  20.775  0.00  0.00    +0.086 C 
BRANCH  12  15
ATOM     15  C   UNL     1      11.898   7.581  20.954  0.00  0.00    +0.020 C 
BRANCH  15  17
ATOM     17  C   UNL     1      13.192   7.635  21.769  0.00  0.00    +0.036 C 
BRANCH  17  19
ATOM     19  C   UNL     1      14.389   7.242  20.943  0.00  0.00    -0.047 A 
ATOM     21  C   UNL     1      14.269   7.105  19.561  0.00  0.00    +0.003 A 
ATOM     22  C   UNL     1      15.619   7.014  21.562  0.00  0.00    +0.003 A 
ATOM     24  C   UNL     1      15.377   6.741  18.796  0.00  0.00    +0.000 A 
ATOM     25  C   UNL     1      16.728   6.650  20.797  0.00  0.00    +0.000 A 
ATOM     26  C   UNL     1      16.607   6.513  19.414  0.00  0.00    +0.000 A 
ENDBRANCH  17  19
ENDBRANCH  15  17
ENDBRANCH  12  15
ENDBRANCH   2  12
TORSDOF 6
ENDMDL
MODEL 5
REMARK VINA RESULT:      -7.1     26.058     29.660
REMARK  Name = 26744730
REMARK  6 active torsions:
REMARK  status: ('A' for Active; 'I' for Inactive)
REMARK    1  A    between atoms: N_2  and  C_12
REMARK    2  A    between atoms: C_9  and  C_16
REMARK    3  A    between atoms: C_12  and  C_15
REMARK    4  A    between atoms: C_15  and  C_17
REMARK    5  A    between atoms: C_17  and  C_19
REMARK    6  A    between atoms: C_20  and  C_23
REMARK                            x       y       z     vdW  Elec       q    Type
REMARK                         _______ _______ _______ _____ _____    ______ ____
ROOT
ATOM      2  N   UNL     1     -12.295   9.107  21.128  0.00  0.00    -0.285 NA
ATOM      3  N   UNL     1     -10.436  10.575  18.221  0.00  0.00    -0.347 N 
ATOM      4  N   UNL     1     -10.395   8.478  17.448  0.00  0.00    -0.240 NA
ATOM      9  C   UNL     1     -12.856   7.966  20.324  0.00  0.00    +0.152 C 
ATOM     10  C   UNL     1     -11.840   7.433  19.252  0.00  0.00    +0.085 C 
ATOM     11  C   UNL     1     -11.932  10.275  20.274  0.00  0.00    +0.140 C 
ATOM     13  C   UNL     1     -11.188   9.832  19.078  0.00  0.00    +0.053 A 
ATOM     14  C   UNL     1     -11.154   8.555  18.581  0.00  0.00    +0.065 A 
ATOM     18  C   UNL     1      -9.978   9.713  17.254  0.00  0.00    +0.197 A 
ATOM     30  H   UNL     1     -10.251  11.568  18.276  0.00  0.00    +0.167 HD
ENDROOT
BRANCH   9  16
ATOM      1  O   UNL     1     -12.335   5.955  21.628  0.00  0.00    -0.336 OA
ATOM      5  N   UNL     1     -14.521   6.431  21.525  0.00  0.00    -0.189 NA
ATOM      6  N   UNL     1     -12.985   4.957  22.364  0.00  0.00    -0.054 NA
ATOM     16  C   UNL     1     -13.311   6.781  21.168  0.00  0.00    +0.245 A 
ATOM     20  C   UNL     1     -14.270   5.306  22.257  0.00  0.00    +0.222 A 
BRANCH  20  23
ATOM      7  N   UNL     1     -16.416   4.314  22.113  0.00  0.00    -0.249 NA
ATOM      8  N   UNL     1     -16.215   3.400  24.757  0.00  0.00    -0.260 NA
ATOM     23  C   UNL     1     -15.327   4.555  22.870  0.00  0.00    +0.129 A 
ATOM     27  C   UNL     1     -15.229   4.107  24.169  0.00  0.00    +0.142 A 
ATOM     28  C   UNL     1     -17.401   3.607  22.701  0.00  0.00    +0.131 A 
ATOM     29  C   UNL     1     -17.303   3.159  24.000  0.00  0.00    +0.130 A 
ENDBRANCH  20  23
ENDBRANCH   9  16
BRANCH   2  12
ATOM     12  C   UNL     1     -13.227   9.571  22.164  0.00  0.00    +0.086 C 
BRANCH  12  15
ATOM     15  C   UNL     1     -12.654  10.788  22.888  0.00  0.00    +0.020 C 
BRANCH  15  17
ATOM     17  C   UNL     1     -13.446  11.095  24.162  0.00  0.00    +0.036 C 
BRANCH  17  19
ATOM     19  C   UNL     1     -12.661  10.756  25.403  0.00  0.00    -0.047 A 
ATOM     21  C   UNL     1     -13.327  10.413  26.578  0.00  0.00    +0.003 A 
ATOM     22  C   UNL     1     -11.266  10.785  25.374  0.00  0.00    +0.003 A 
ATOM     24  C   UNL     1     -12.600  10.099  27.727  0.00  0.00    +0.000 A 
ATOM     25  C   UNL     1     -10.538  10.470  26.522  0.00  0.00    +0.000 A 
ATOM     26  C   UNL     1     -11.205  10.127  27.699  0.00  0.00    +0.000 A 
ENDBRANCH  17  19
ENDBRANCH  15  17
ENDBRANCH  12  15
ENDBRANCH   2  12
TORSDOF 6
ENDMDL
MODEL 6
REMARK VINA RESULT:      -7.0      3.472      6.719
REMARK  Name = 26744730
REMARK  6 active torsions:
REMARK  status: ('A' for Active; 'I' for Inactive)
REMARK    1  A    between atoms: N_2  and  C_12
REMARK    2  A    between atoms: C_9  and  C_16
REMARK    3  A    between atoms: C_12  and  C_15
REMARK    4  A    between atoms: C_15  and  C_17
REMARK    5  A    between atoms: C_17  and  C_19
REMARK    6  A    between atoms: C_20  and  C_23
REMARK                            x       y       z     vdW  Elec       q    Type
REMARK                         _______ _______ _______ _____ _____    ______ ____
ROOT
ATOM      2  N   UNL     1      13.424   9.752  18.383  0.00  0.00    -0.285 NA
ATOM      3  N   UNL     1      14.872  10.750  15.071  0.00  0.00    -0.347 N 
ATOM      4  N   UNL     1      15.957  12.313  16.244  0.00  0.00    -0.240 NA
ATOM      9  C   UNL     1      14.603  10.259  19.166  0.00  0.00    +0.152 C 
ATOM     10  C   UNL     1      15.211  11.570  18.552  0.00  0.00    +0.085 C 
ATOM     11  C   UNL     1      13.780   9.430  16.971  0.00  0.00    +0.140 C 
ATOM     13  C   UNL     1      14.596  10.511  16.382  0.00  0.00    +0.053 A 
ATOM     14  C   UNL     1      15.275  11.475  17.080  0.00  0.00    +0.065 A 
ATOM     18  C   UNL     1      15.696  11.848  15.038  0.00  0.00    +0.197 A 
ATOM     30  H   UNL     1      14.542  10.223  14.273  0.00  0.00    +0.167 HD
ENDROOT
BRANCH   9  16
ATOM      1  O   UNL     1      15.227  10.105  21.534  0.00  0.00    -0.336 OA
ATOM      5  N   UNL     1      13.261  11.117  21.175  0.00  0.00    -0.189 NA
ATOM      6  N   UNL     1      14.735  10.457  22.796  0.00  0.00    -0.054 NA
ATOM     16  C   UNL     1      14.299  10.528  20.636  0.00  0.00    +0.245 A 
ATOM     20  C   UNL     1      13.574  11.049  22.502  0.00  0.00    +0.222 A 
BRANCH  20  23
ATOM      7  N   UNL     1      11.433  11.838  23.138  0.00  0.00    -0.249 NA
ATOM      8  N   UNL     1      12.345  12.329  25.745  0.00  0.00    -0.260 NA
ATOM     23  C   UNL     1      12.703  11.584  23.509  0.00  0.00    +0.129 A 
ATOM     27  C   UNL     1      13.151  11.826  24.789  0.00  0.00    +0.142 A 
ATOM     28  C   UNL     1      10.626  12.341  24.094  0.00  0.00    +0.131 A 
ATOM     29  C   UNL     1      11.074  12.583  25.374  0.00  0.00    +0.130 A 
ENDBRANCH  20  23
ENDBRANCH   9  16
BRANCH   2  12
ATOM     12  C   UNL     1      12.825   8.555  18.988  0.00  0.00    +0.086 C 
BRANCH  12  15
ATOM     15  C   UNL     1      13.738   7.346  18.790  0.00  0.00    +0.020 C 
BRANCH  15  17
ATOM     17  C   UNL     1      14.212   6.788  20.134  0.00  0.00    +0.036 C 
BRANCH  17  19
ATOM     19  C   UNL     1      15.701   6.553  20.147  0.00  0.00    -0.047 A 
ATOM     21  C   UNL     1      16.339   6.057  19.011  0.00  0.00    +0.003 A 
ATOM     22  C   UNL     1      16.441   6.833  21.297  0.00  0.00    +0.003 A 
ATOM     24  C   UNL     1      17.717   5.840  19.023  0.00  0.00    +0.000 A 
ATOM     25  C   UNL     1      17.819   6.616  21.309  0.00  0.00    +0.000 A 
ATOM     26  C   UNL     1      18.457   6.120  20.171  0.00  0.00    +0.000 A 
ENDBRANCH  17  19
ENDBRANCH  15  17
ENDBRANCH  12  15
ENDBRANCH   2  12
TORSDOF 6
ENDMDL
MODEL 7
REMARK VINA RESULT:      -6.8      4.814      6.677
REMARK  Name = 26744730
REMARK  6 active torsions:
REMARK  status: ('A' for Active; 'I' for Inactive)
REMARK    1  A    between atoms: N_2  and  C_12
REMARK    2  A    between atoms: C_9  and  C_16
REMARK    3  A    between atoms: C_12  and  C_15
REMARK    4  A    between atoms: C_15  and  C_17
REMARK    5  A    between atoms: C_17  and  C_19
REMARK    6  A    between atoms: C_20  and  C_23
REMARK                            x       y       z     vdW  Elec       q    Type
REMARK                         _______ _______ _______ _____ _____    ______ ____
ROOT
ATOM      2  N   UNL     1      13.459   9.285  21.848  0.00  0.00    -0.285 NA
ATOM      3  N   UNL     1      12.217   5.797  21.254  0.00  0.00    -0.347 N 
ATOM      4  N   UNL     1      10.265   6.580  22.010  0.00  0.00    -0.240 NA
ATOM      9  C   UNL     1      12.104   9.909  21.658  0.00  0.00    +0.152 C 
ATOM     10  C   UNL     1      10.947   9.013  22.228  0.00  0.00    +0.085 C 
ATOM     11  C   UNL     1      13.574   7.964  21.165  0.00  0.00    +0.140 C 
ATOM     13  C   UNL     1      12.381   7.136  21.433  0.00  0.00    +0.053 A 
ATOM     14  C   UNL     1      11.172   7.594  21.889  0.00  0.00    +0.065 A 
ATOM     18  C   UNL     1      10.924   5.509  21.616  0.00  0.00    +0.197 A 
ATOM     30  H   UNL     1      12.907   5.139  20.916  0.00  0.00    +0.167 HD
ENDROOT
BRANCH   9  16
ATOM      1  O   UNL     1      11.825  12.334  21.413  0.00  0.00    -0.336 OA
ATOM      5  N   UNL     1      11.973  11.646  23.539  0.00  0.00    -0.189 NA
ATOM      6  N   UNL     1      11.723  13.486  22.201  0.00  0.00    -0.054 NA
ATOM     16  C   UNL     1      11.970  11.296  22.277  0.00  0.00    +0.245 A 
ATOM     20  C   UNL     1      11.819  12.999  23.442  0.00  0.00    +0.222 A 
BRANCH  20  23
ATOM      7  N   UNL     1      12.804  14.671  24.801  0.00  0.00    -0.249 NA
ATOM      8  N   UNL     1      10.634  14.562  26.575  0.00  0.00    -0.260 NA
ATOM     23  C   UNL     1      11.764  13.836  24.606  0.00  0.00    +0.129 A 
ATOM     27  C   UNL     1      10.699  13.782  25.478  0.00  0.00    +0.142 A 
ATOM     28  C   UNL     1      12.739  15.451  25.898  0.00  0.00    +0.131 A 
ATOM     29  C   UNL     1      11.673  15.397  26.770  0.00  0.00    +0.130 A 
ENDBRANCH  20  23
ENDBRANCH   9  16
BRANCH   2  12
ATOM     12  C   UNL     1      14.544  10.147  21.361  0.00  0.00    +0.086 C 
BRANCH  12  15
ATOM     15  C   UNL     1      15.850   9.815  22.080  0.00  0.00    +0.020 C 
BRANCH  15  17
ATOM     17  C   UNL     1      17.041   9.884  21.119  0.00  0.00    +0.036 C 
BRANCH  17  19
ATOM     19  C   UNL     1      17.678   8.532  20.924  0.00  0.00    -0.047 A 
ATOM     21  C   UNL     1      18.920   8.257  21.495  0.00  0.00    +0.003 A 
ATOM     22  C   UNL     1      17.025   7.557  20.170  0.00  0.00    +0.003 A 
ATOM     24  C   UNL     1      19.510   7.006  21.314  0.00  0.00    +0.000 A 
ATOM     25  C   UNL     1      17.614   6.305  19.989  0.00  0.00    +0.000 A 
ATOM     26  C   UNL     1      18.857   6.030  20.561  0.00  0.00    +0.000 A 
ENDBRANCH  17  19
ENDBRANCH  15  17
ENDBRANCH  12  15
ENDBRANCH   2  12
TORSDOF 6
ENDMDL
MODEL 8
REMARK VINA RESULT:      -6.7      3.883      7.120
REMARK  Name = 26744730
REMARK  6 active torsions:
REMARK  status: ('A' for Active; 'I' for Inactive)
REMARK    1  A    between atoms: N_2  and  C_12
REMARK    2  A    between atoms: C_9  and  C_16
REMARK    3  A    between atoms: C_12  and  C_15
REMARK    4  A    between atoms: C_15  and  C_17
REMARK    5  A    between atoms: C_17  and  C_19
REMARK    6  A    between atoms: C_20  and  C_23
REMARK                            x       y       z     vdW  Elec       q    Type
REMARK                         _______ _______ _______ _____ _____    ______ ____
ROOT
ATOM      2  N   UNL     1      12.958  12.136  21.433  0.00  0.00    -0.285 NA
ATOM      3  N   UNL     1      10.776  14.201  23.678  0.00  0.00    -0.347 N 
ATOM      4  N   UNL     1      10.538  12.311  24.848  0.00  0.00    -0.240 NA
ATOM      9  C   UNL     1      13.352  11.181  22.525  0.00  0.00    +0.152 C 
ATOM     10  C   UNL     1      12.174  10.895  23.524  0.00  0.00    +0.085 C 
ATOM     11  C   UNL     1      12.529  13.461  21.969  0.00  0.00    +0.140 C 
ATOM     13  C   UNL     1      11.607  13.286  23.109  0.00  0.00    +0.053 A 
ATOM     14  C   UNL     1      11.450  12.140  23.845  0.00  0.00    +0.065 A 
ATOM     18  C   UNL     1      10.151  13.565  24.723  0.00  0.00    +0.197 A 
ATOM     30  H   UNL     1      10.643  15.162  23.395  0.00  0.00    +0.167 HD
ENDROOT
BRANCH   9  16
ATOM      1  O   UNL     1      13.012   8.788  22.101  0.00  0.00    -0.336 OA
ATOM      5  N   UNL     1      15.033   9.541  21.498  0.00  0.00    -0.189 NA
ATOM      6  N   UNL     1      13.699   7.684  21.582  0.00  0.00    -0.054 NA
ATOM     16  C   UNL     1      13.869   9.839  22.016  0.00  0.00    +0.245 A 
ATOM     20  C   UNL     1      14.882   8.207  21.248  0.00  0.00    +0.222 A 
BRANCH  20  23
ATOM      7  N   UNL     1      17.180   7.645  21.125  0.00  0.00    -0.249 NA
ATOM      8  N   UNL     1      16.653   5.763  19.114  0.00  0.00    -0.260 NA
ATOM     23  C   UNL     1      15.934   7.427  20.662  0.00  0.00    +0.129 A 
ATOM     27  C   UNL     1      15.675   6.503  19.674  0.00  0.00    +0.142 A 
ATOM     28  C   UNL     1      18.158   6.906  20.566  0.00  0.00    +0.131 A 
ATOM     29  C   UNL     1      17.899   5.981  19.577  0.00  0.00    +0.130 A 
ENDBRANCH  20  23
ENDBRANCH   9  16
BRANCH   2  12
ATOM     12  C   UNL     1      14.044  12.363  20.470  0.00  0.00    +0.086 C 
BRANCH  12  15
ATOM     15  C   UNL     1      13.502  12.344  19.042  0.00  0.00    +0.020 C 
BRANCH  15  17
ATOM     17  C   UNL     1      14.319  11.402  18.154  0.00  0.00    +0.036 C 
BRANCH  17  19
ATOM     19  C   UNL     1      13.684  10.040  18.052  0.00  0.00    -0.047 A 
ATOM     21  C   UNL     1      14.295   9.039  17.299  0.00  0.00    +0.003 A 
ATOM     22  C   UNL     1      12.482   9.780  18.712  0.00  0.00    +0.003 A 
ATOM     24  C   UNL     1      13.707   7.778  17.204  0.00  0.00    +0.000 A 
ATOM     25  C   UNL     1      11.894   8.519  18.619  0.00  0.00    +0.000 A 
ATOM     26  C   UNL     1      12.506   7.517  17.865  0.00  0.00    +0.000 A 
ENDBRANCH  17  19
ENDBRANCH  15  17
ENDBRANCH  12  15
ENDBRANCH   2  12
TORSDOF 6
ENDMDL
MODEL 9
REMARK VINA RESULT:      -6.6     13.240     16.030
REMARK  Name = 26744730
REMARK  6 active torsions:
REMARK  status: ('A' for Active; 'I' for Inactive)
REMARK    1  A    between atoms: N_2  and  C_12
REMARK    2  A    between atoms: C_9  and  C_16
REMARK    3  A    between atoms: C_12  and  C_15
REMARK    4  A    between atoms: C_15  and  C_17
REMARK    5  A    between atoms: C_17  and  C_19
REMARK    6  A    between atoms: C_20  and  C_23
REMARK                            x       y       z     vdW  Elec       q    Type
REMARK                         _______ _______ _______ _____ _____    ______ ____
ROOT
ATOM      2  N   UNL     1       9.985   6.662   5.681  0.00  0.00    -0.285 NA
ATOM      3  N   UNL     1      10.114   3.936   8.253  0.00  0.00    -0.347 N 
ATOM      4  N   UNL     1       9.083   5.413   9.576  0.00  0.00    -0.240 NA
ATOM      9  C   UNL     1       8.758   7.300   6.272  0.00  0.00    +0.152 C 
ATOM     10  C   UNL     1       8.744   7.231   7.841  0.00  0.00    +0.085 C 
ATOM     11  C   UNL     1      10.098   5.218   6.040  0.00  0.00    +0.140 C 
ATOM     13  C   UNL     1       9.832   5.019   7.478  0.00  0.00    +0.053 A 
ATOM     14  C   UNL     1       9.196   5.905   8.308  0.00  0.00    +0.065 A 
ATOM     18  C   UNL     1       9.644   4.221   9.511  0.00  0.00    +0.197 A 
ATOM     30  H   UNL     1      10.576   3.083   7.964  0.00  0.00    +0.167 HD
ENDROOT
BRANCH   9  16
ATOM      1  O   UNL     1       9.453   9.651   6.374  0.00  0.00    -0.336 OA
ATOM      5  N   UNL     1       7.655   9.289   5.089  0.00  0.00    -0.189 NA
ATOM      6  N   UNL     1       9.078  10.902   5.870  0.00  0.00    -0.054 NA
ATOM     16  C   UNL     1       8.564   8.758   5.867  0.00  0.00    +0.245 A 
ATOM     20  C   UNL     1       8.011  10.607   5.122  0.00  0.00    +0.222 A 
BRANCH  20  23
ATOM      7  N   UNL     1       7.956  12.712   4.038  0.00  0.00    -0.249 NA
ATOM      8  N   UNL     1       5.249  12.356   3.396  0.00  0.00    -0.260 NA
ATOM     23  C   UNL     1       7.279  11.603   4.394  0.00  0.00    +0.129 A 
ATOM     27  C   UNL     1       5.949  11.429   4.080  0.00  0.00    +0.142 A 
ATOM     28  C   UNL     1       7.256  13.639   3.354  0.00  0.00    +0.131 A 
ATOM     29  C   UNL     1       5.926  13.465   3.040  0.00  0.00    +0.130 A 
ENDBRANCH  20  23
ENDBRANCH   9  16
BRANCH   2  12
ATOM     12  C   UNL     1      10.022   6.773   4.217  0.00  0.00    +0.086 C 
BRANCH  12  15
ATOM     15  C   UNL     1      10.469   5.452   3.594  0.00  0.00    +0.020 C 
BRANCH  15  17
ATOM     17  C   UNL     1      10.155   5.414   2.096  0.00  0.00    +0.036 C 
BRANCH  17  19
ATOM     19  C   UNL     1      11.186   4.626   1.330  0.00  0.00    -0.047 A 
ATOM     21  C   UNL     1      12.158   3.898   2.014  0.00  0.00    +0.003 A 
ATOM     22  C   UNL     1      11.166   4.625  -0.065  0.00  0.00    +0.003 A 
ATOM     24  C   UNL     1      13.113   3.168   1.304  0.00  0.00    +0.000 A 
ATOM     25  C   UNL     1      12.120   3.895  -0.776  0.00  0.00    +0.000 A 
ATOM     26  C   UNL     1      13.093   3.167  -0.091  0.00  0.00    +0.000 A 
ENDBRANCH  17  19
ENDBRANCH  15  17
ENDBRANCH  12  15
ENDBRANCH   2  12
TORSDOF 6
ENDMDL
MODEL 10
REMARK VINA RESULT:      -6.5     13.741     17.265
REMARK  Name = 26744730
REMARK  6 active torsions:
REMARK  status: ('A' for Active; 'I' for Inactive)
REMARK    1  A    between atoms: N_2  and  C_12
REMARK    2  A    between atoms: C_9  and  C_16
REMARK    3  A    between atoms: C_12  and  C_15
REMARK    4  A    between atoms: C_15  and  C_17
REMARK    5  A    between atoms: C_17  and  C_19
REMARK    6  A    between atoms: C_20  and  C_23
REMARK                            x       y       z     vdW  Elec       q    Type
REMARK                         _______ _______ _______ _____ _____    ______ ____
ROOT
ATOM      2  N   UNL     1       9.178   7.216   6.407  0.00  0.00    -0.285 NA
ATOM      3  N   UNL     1       8.671   5.633   9.768  0.00  0.00    -0.347 N 
ATOM      4  N   UNL     1       9.744   3.884   8.881  0.00  0.00    -0.240 NA
ATOM      9  C   UNL     1      10.417   6.419   6.105  0.00  0.00    +0.152 C 
ATOM     10  C   UNL     1      10.335   4.952   6.657  0.00  0.00    +0.085 C 
ATOM     11  C   UNL     1       8.923   7.331   7.872  0.00  0.00    +0.140 C 
ATOM     13  C   UNL     1       9.088   6.021   8.531  0.00  0.00    +0.053 A 
ATOM     14  C   UNL     1       9.747   4.937   8.011  0.00  0.00    +0.065 A 
ATOM     18  C   UNL     1       9.090   4.335   9.933  0.00  0.00    +0.197 A 
ATOM     30  H   UNL     1       8.158   6.188  10.440  0.00  0.00    +0.167 HD
ENDROOT
BRANCH   9  16
ATOM      1  O   UNL     1      12.030   6.657   4.272  0.00  0.00    -0.336 OA
ATOM      5  N   UNL     1       9.991   6.011   3.610  0.00  0.00    -0.189 NA
ATOM      6  N   UNL     1      12.100   6.517   2.881  0.00  0.00    -0.054 NA
ATOM     16  C   UNL     1      10.756   6.342   4.620  0.00  0.00    +0.245 A 
ATOM     20  C   UNL     1      10.860   6.134   2.564  0.00  0.00    +0.222 A 
BRANCH  20  23
ATOM      7  N   UNL     1      10.036   6.916   0.486  0.00  0.00    -0.249 NA
ATOM      8  N   UNL     1      10.122   4.320  -0.571  0.00  0.00    -0.260 NA
ATOM     23  C   UNL     1      10.457   5.863   1.214  0.00  0.00    +0.129 A 
ATOM     27  C   UNL     1      10.498   4.588   0.695  0.00  0.00    +0.142 A 
ATOM     28  C   UNL     1       9.660   6.648  -0.780  0.00  0.00    +0.131 A 
ATOM     29  C   UNL     1       9.702   5.373  -1.299  0.00  0.00    +0.130 A 
ENDBRANCH  20  23
ENDBRANCH   9  16
BRANCH   2  12
ATOM     12  C   UNL     1       9.236   8.572   5.845  0.00  0.00    +0.086 C 
BRANCH  12  15
ATOM     15  C   UNL     1       7.960   8.877   5.060  0.00  0.00    +0.020 C 
BRANCH  15  17
ATOM     17  C   UNL     1       8.247   8.977   3.560  0.00  0.00    +0.036 C 
BRANCH  17  19
ATOM     19  C   UNL     1       7.042   9.457   2.792  0.00  0.00    -0.047 A 
ATOM     21  C   UNL     1       5.938   9.965   3.474  0.00  0.00    +0.003 A 
ATOM     22  C   UNL     1       7.034   9.394   1.398  0.00  0.00    +0.003 A 
ATOM     24  C   UNL     1       4.822  10.410   2.764  0.00  0.00    +0.000 A 
ATOM     25  C   UNL     1       5.919   9.840   0.687  0.00  0.00    +0.000 A 
ATOM     26  C   UNL     1       4.813  10.348   1.370  0.00  0.00    +0.000 A 
ENDBRANCH  17  19
ENDBRANCH  15  17
ENDBRANCH  12  15
ENDBRANCH   2  12
TORSDOF 6
ENDMDL
