MODEL 1
REMARK VINA RESULT:      -7.7      0.000      0.000
REMARK  Name = 26745158
REMARK  3 active torsions:
REMARK  status: ('A' for Active; 'I' for Inactive)
REMARK    1  A    between atoms: N_9  and  C_21
REMARK    2  A    between atoms: C_10  and  C_15
REMARK    3  A    between atoms: C_17  and  C_18
REMARK                            x       y       z     vdW  Elec       q    Type
REMARK                         _______ _______ _______ _____ _____    ______ ____
ROOT
ATOM      1  O   UNL     1      15.591   6.164  19.207  0.00  0.00    -0.336 OA
ATOM      7  N   UNL     1      16.391   7.215  21.016  0.00  0.00    -0.190 NA
ATOM      8  N   UNL     1      16.976   5.961  19.193  0.00  0.00    -0.056 NA
ATOM     15  C   UNL     1      15.330   6.911  20.311  0.00  0.00    +0.245 A 
ATOM     17  C   UNL     1      17.376   6.611  20.291  0.00  0.00    +0.202 A 
ENDROOT
BRANCH  15  10
ATOM      4  N   UNL     1      13.113   6.108  21.097  0.00  0.00    -0.300 NA
ATOM      5  N   UNL     1      10.252   8.227  22.245  0.00  0.00    -0.347 N 
ATOM      6  N   UNL     1      11.796   9.834  22.443  0.00  0.00    -0.240 NA
ATOM     10  C   UNL     1      13.875   7.271  20.557  0.00  0.00    +0.149 C 
ATOM     11  C   UNL     1      13.751   8.540  21.463  0.00  0.00    +0.085 C 
ATOM     12  C   UNL     1      12.339   8.717  21.878  0.00  0.00    +0.065 A 
ATOM     13  C   UNL     1      11.657   6.377  21.165  0.00  0.00    +0.137 C 
ATOM     14  C   UNL     1      11.411   7.712  21.750  0.00  0.00    +0.053 A 
ATOM     16  C   UNL     1      10.534   9.508  22.651  0.00  0.00    +0.197 A 
ATOM     24  H   UNL     1      13.452   5.911  22.039  0.00  0.00    +0.123 HD
ATOM     25  H   UNL     1       9.354   7.763  22.302  0.00  0.00    +0.167 HD
ENDBRANCH  15  10
BRANCH  17  18
ATOM     18  C   UNL     1      18.753   6.675  20.691  0.00  0.00    +0.025 A 
ATOM     19  C   UNL     1      19.585   5.571  20.510  0.00  0.00    +0.044 A 
ATOM     20  C   UNL     1      19.257   7.844  21.262  0.00  0.00    +0.012 A 
ATOM     21  C   UNL     1      20.923   5.635  20.900  0.00  0.00    +0.127 A 
ATOM     22  C   UNL     1      20.595   7.908  21.652  0.00  0.00    +0.003 A 
ATOM     23  C   UNL     1      21.428   6.803  21.471  0.00  0.00    +0.033 A 
BRANCH  21   9
ATOM      2  O   UNL     1      22.961   4.698  20.367  0.00  0.00    -0.126 OA
ATOM      3  O   UNL     1      21.306   3.361  20.908  0.00  0.00    -0.126 OA
ATOM      9  N   UNL     1      21.771   4.511  20.717  0.00  0.00    +0.056 N 
ENDBRANCH  21   9
ENDBRANCH  17  18
TORSDOF 3
ENDMDL
MODEL 2
REMARK VINA RESULT:      -7.6      1.816      2.044
REMARK  Name = 26745158
REMARK  3 active torsions:
REMARK  status: ('A' for Active; 'I' for Inactive)
REMARK    1  A    between atoms: N_9  and  C_21
REMARK    2  A    between atoms: C_10  and  C_15
REMARK    3  A    between atoms: C_17  and  C_18
REMARK                            x       y       z     vdW  Elec       q    Type
REMARK                         _______ _______ _______ _____ _____    ______ ____
ROOT
ATOM      1  O   UNL     1      15.532   6.293  19.069  0.00  0.00    -0.336 OA
ATOM      7  N   UNL     1      16.266   6.745  21.136  0.00  0.00    -0.190 NA
ATOM      8  N   UNL     1      16.891   5.956  19.081  0.00  0.00    -0.056 NA
ATOM     15  C   UNL     1      15.246   6.749  20.316  0.00  0.00    +0.245 A 
ATOM     17  C   UNL     1      17.253   6.250  20.333  0.00  0.00    +0.202 A 
ENDROOT
BRANCH  15  10
ATOM      4  N   UNL     1      12.998   6.068  21.128  0.00  0.00    -0.300 NA
ATOM      5  N   UNL     1      10.252   8.341  22.261  0.00  0.00    -0.347 N 
ATOM      6  N   UNL     1      11.873   9.874  22.424  0.00  0.00    -0.240 NA
ATOM     10  C   UNL     1      13.812   7.184  20.565  0.00  0.00    +0.149 C 
ATOM     11  C   UNL     1      13.757   8.471  21.452  0.00  0.00    +0.085 C 
ATOM     12  C   UNL     1      12.358   8.723  21.873  0.00  0.00    +0.065 A 
ATOM     13  C   UNL     1      11.557   6.409  21.202  0.00  0.00    +0.137 C 
ATOM     14  C   UNL     1      11.381   7.763  21.767  0.00  0.00    +0.053 A 
ATOM     16  C   UNL     1      10.599   9.613  22.645  0.00  0.00    +0.197 A 
ATOM     24  H   UNL     1      13.334   5.869  22.072  0.00  0.00    +0.123 HD
ATOM     25  H   UNL     1       9.333   7.922  22.332  0.00  0.00    +0.167 HD
ENDBRANCH  15  10
BRANCH  17  18
ATOM     18  C   UNL     1      18.592   6.063  20.815  0.00  0.00    +0.025 A 
ATOM     19  C   UNL     1      18.996   6.666  22.005  0.00  0.00    +0.044 A 
ATOM     20  C   UNL     1      19.488   5.278  20.090  0.00  0.00    +0.012 A 
ATOM     21  C   UNL     1      20.298   6.483  22.471  0.00  0.00    +0.127 A 
ATOM     22  C   UNL     1      20.790   5.095  20.556  0.00  0.00    +0.003 A 
ATOM     23  C   UNL     1      21.195   5.698  21.747  0.00  0.00    +0.033 A 
BRANCH  21   9
ATOM      2  O   UNL     1      20.825   8.346  23.724  0.00  0.00    -0.126 OA
ATOM      3  O   UNL     1      20.951   6.375  24.681  0.00  0.00    -0.126 OA
ATOM      9  N   UNL     1      20.711   7.097  23.683  0.00  0.00    +0.056 N 
ENDBRANCH  21   9
ENDBRANCH  17  18
TORSDOF 3
ENDMDL
MODEL 3
REMARK VINA RESULT:      -7.5      2.330      8.358
REMARK  Name = 26745158
REMARK  3 active torsions:
REMARK  status: ('A' for Active; 'I' for Inactive)
REMARK    1  A    between atoms: N_9  and  C_21
REMARK    2  A    between atoms: C_10  and  C_15
REMARK    3  A    between atoms: C_17  and  C_18
REMARK                            x       y       z     vdW  Elec       q    Type
REMARK                         _______ _______ _______ _____ _____    ______ ____
ROOT
ATOM      1  O   UNL     1      17.998   5.575  19.104  0.00  0.00    -0.336 OA
ATOM      7  N   UNL     1      16.953   7.030  20.448  0.00  0.00    -0.190 NA
ATOM      8  N   UNL     1      16.698   5.706  18.599  0.00  0.00    -0.056 NA
ATOM     15  C   UNL     1      18.064   6.386  20.190  0.00  0.00    +0.245 A 
ATOM     17  C   UNL     1      16.144   6.580  19.446  0.00  0.00    +0.202 A 
ENDROOT
BRANCH  15  10
ATOM      4  N   UNL     1      19.196   6.675  22.384  0.00  0.00    -0.300 NA
ATOM      5  N   UNL     1      22.660   5.573  23.269  0.00  0.00    -0.347 N 
ATOM      6  N   UNL     1      22.487   4.281  21.450  0.00  0.00    -0.240 NA
ATOM     10  C   UNL     1      19.392   6.425  20.927  0.00  0.00    +0.149 C 
ATOM     11  C   UNL     1      20.232   5.135  20.648  0.00  0.00    +0.085 C 
ATOM     12  C   UNL     1      21.398   5.096  21.562  0.00  0.00    +0.065 A 
ATOM     13  C   UNL     1      20.480   6.906  23.089  0.00  0.00    +0.137 C 
ATOM     14  C   UNL     1      21.478   5.897  22.676  0.00  0.00    +0.053 A 
ATOM     16  C   UNL     1      23.232   4.595  22.493  0.00  0.00    +0.197 A 
ATOM     24  H   UNL     1      18.743   5.856  22.793  0.00  0.00    +0.123 HD
ATOM     25  H   UNL     1      23.048   5.974  24.113  0.00  0.00    +0.167 HD
ENDBRANCH  15  10
BRANCH  17  18
ATOM     18  C   UNL     1      14.785   7.024  19.318  0.00  0.00    +0.025 A 
ATOM     19  C   UNL     1      13.859   6.729  20.317  0.00  0.00    +0.044 A 
ATOM     20  C   UNL     1      14.394   7.750  18.193  0.00  0.00    +0.012 A 
ATOM     21  C   UNL     1      12.538   7.161  20.191  0.00  0.00    +0.127 A 
ATOM     22  C   UNL     1      13.073   8.181  18.067  0.00  0.00    +0.003 A 
ATOM     23  C   UNL     1      12.145   7.887  19.067  0.00  0.00    +0.033 A 
BRANCH  21   9
ATOM      2  O   UNL     1      11.344   7.727  22.081  0.00  0.00    -0.126 OA
ATOM      3  O   UNL     1      11.032   5.738  21.206  0.00  0.00    -0.126 OA
ATOM      9  N   UNL     1      11.593   6.861  21.208  0.00  0.00    +0.056 N 
ENDBRANCH  21   9
ENDBRANCH  17  18
TORSDOF 3
ENDMDL
MODEL 4
REMARK VINA RESULT:      -7.4      2.664      8.451
REMARK  Name = 26745158
REMARK  3 active torsions:
REMARK  status: ('A' for Active; 'I' for Inactive)
REMARK    1  A    between atoms: N_9  and  C_21
REMARK    2  A    between atoms: C_10  and  C_15
REMARK    3  A    between atoms: C_17  and  C_18
REMARK                            x       y       z     vdW  Elec       q    Type
REMARK                         _______ _______ _______ _____ _____    ______ ____
ROOT
ATOM      1  O   UNL     1      17.864   5.685  19.162  0.00  0.00    -0.336 OA
ATOM      7  N   UNL     1      16.837   6.998  20.657  0.00  0.00    -0.190 NA
ATOM      8  N   UNL     1      16.539   5.805  18.728  0.00  0.00    -0.056 NA
ATOM     15  C   UNL     1      17.955   6.416  20.303  0.00  0.00    +0.245 A 
ATOM     17  C   UNL     1      15.997   6.594  19.662  0.00  0.00    +0.202 A 
ENDROOT
BRANCH  15  10
ATOM      4  N   UNL     1      19.180   6.579  22.459  0.00  0.00    -0.300 NA
ATOM      5  N   UNL     1      22.718   5.545  23.099  0.00  0.00    -0.347 N 
ATOM      6  N   UNL     1      22.503   4.391  21.195  0.00  0.00    -0.240 NA
ATOM     10  C   UNL     1      19.315   6.449  20.979  0.00  0.00    +0.149 C 
ATOM     11  C   UNL     1      20.185   5.217  20.563  0.00  0.00    +0.085 C 
ATOM     12  C   UNL     1      21.393   5.153  21.419  0.00  0.00    +0.065 A 
ATOM     13  C   UNL     1      20.487   6.804  23.122  0.00  0.00    +0.137 C 
ATOM     14  C   UNL     1      21.498   5.868  22.587  0.00  0.00    +0.053 A 
ATOM     16  C   UNL     1      23.286   4.651  22.225  0.00  0.00    +0.197 A 
ATOM     24  H   UNL     1      18.775   5.715  22.822  0.00  0.00    +0.123 HD
ATOM     25  H   UNL     1      23.132   5.895  23.954  0.00  0.00    +0.167 HD
ENDBRANCH  15  10
BRANCH  17  18
ATOM     18  C   UNL     1      14.620   6.997  19.628  0.00  0.00    +0.025 A 
ATOM     19  C   UNL     1      14.031   7.370  18.421  0.00  0.00    +0.044 A 
ATOM     20  C   UNL     1      13.872   7.015  20.806  0.00  0.00    +0.012 A 
ATOM     21  C   UNL     1      12.692   7.762  18.390  0.00  0.00    +0.127 A 
ATOM     22  C   UNL     1      12.534   7.407  20.775  0.00  0.00    +0.003 A 
ATOM     23  C   UNL     1      11.944   7.781  19.567  0.00  0.00    +0.033 A 
BRANCH  21   9
ATOM      2  O   UNL     1      12.808   8.659  16.269  0.00  0.00    -0.126 OA
ATOM      3  O   UNL     1      10.862   7.952  17.000  0.00  0.00    -0.126 OA
ATOM      9  N   UNL     1      12.092   8.142  17.161  0.00  0.00    +0.056 N 
ENDBRANCH  21   9
ENDBRANCH  17  18
TORSDOF 3
ENDMDL
MODEL 5
REMARK VINA RESULT:      -7.0     16.959     19.102
REMARK  Name = 26745158
REMARK  3 active torsions:
REMARK  status: ('A' for Active; 'I' for Inactive)
REMARK    1  A    between atoms: N_9  and  C_21
REMARK    2  A    between atoms: C_10  and  C_15
REMARK    3  A    between atoms: C_17  and  C_18
REMARK                            x       y       z     vdW  Elec       q    Type
REMARK                         _______ _______ _______ _____ _____    ______ ____
ROOT
ATOM      1  O   UNL     1      12.814   6.973   3.646  0.00  0.00    -0.336 OA
ATOM      7  N   UNL     1      11.061   5.659   4.107  0.00  0.00    -0.190 NA
ATOM      8  N   UNL     1      12.326   7.398   4.887  0.00  0.00    -0.056 NA
ATOM     15  C   UNL     1      12.014   5.947   3.257  0.00  0.00    +0.245 A 
ATOM     17  C   UNL     1      11.292   6.576   5.091  0.00  0.00    +0.202 A 
ENDROOT
BRANCH  15  10
ATOM      4  N   UNL     1      13.179   4.081   2.102  0.00  0.00    -0.300 NA
ATOM      5  N   UNL     1      12.508   2.833  -1.360  0.00  0.00    -0.347 N 
ATOM      6  N   UNL     1      10.576   3.944  -1.159  0.00  0.00    -0.240 NA
ATOM     10  C   UNL     1      12.341   5.301   1.922  0.00  0.00    +0.149 C 
ATOM     11  C   UNL     1      11.043   5.019   1.096  0.00  0.00    +0.085 C 
ATOM     12  C   UNL     1      11.376   4.177  -0.078  0.00  0.00    +0.065 A 
ATOM     13  C   UNL     1      13.669   3.543   0.810  0.00  0.00    +0.137 C 
ATOM     14  C   UNL     1      12.568   3.501  -0.175  0.00  0.00    +0.053 A 
ATOM     16  C   UNL     1      11.288   3.131  -1.916  0.00  0.00    +0.197 A 
ATOM     24  H   UNL     1      12.612   3.365   2.558  0.00  0.00    +0.123 HD
ATOM     25  H   UNL     1      13.220   2.236  -1.760  0.00  0.00    +0.167 HD
ENDBRANCH  15  10
BRANCH  17  18
ATOM     18  C   UNL     1      10.471   6.643   6.266  0.00  0.00    +0.025 A 
ATOM     19  C   UNL     1      10.508   5.612   7.203  0.00  0.00    +0.044 A 
ATOM     20  C   UNL     1       9.636   7.742   6.468  0.00  0.00    +0.012 A 
ATOM     21  C   UNL     1       9.708   5.678   8.344  0.00  0.00    +0.127 A 
ATOM     22  C   UNL     1       8.837   7.809   7.610  0.00  0.00    +0.003 A 
ATOM     23  C   UNL     1       8.873   6.776   8.548  0.00  0.00    +0.033 A 
BRANCH  21   9
ATOM      2  O   UNL     1      10.227   4.854  10.435  0.00  0.00    -0.126 OA
ATOM      3  O   UNL     1       9.293   3.501   8.981  0.00  0.00    -0.126 OA
ATOM      9  N   UNL     1       9.744   4.628   9.299  0.00  0.00    +0.056 N 
ENDBRANCH  21   9
ENDBRANCH  17  18
TORSDOF 3
ENDMDL
MODEL 6
REMARK VINA RESULT:      -7.0      2.225      2.590
REMARK  Name = 26745158
REMARK  3 active torsions:
REMARK  status: ('A' for Active; 'I' for Inactive)
REMARK    1  A    between atoms: N_9  and  C_21
REMARK    2  A    between atoms: C_10  and  C_15
REMARK    3  A    between atoms: C_17  and  C_18
REMARK                            x       y       z     vdW  Elec       q    Type
REMARK                         _______ _______ _______ _____ _____    ______ ____
ROOT
ATOM      1  O   UNL     1      16.513   5.772  18.560  0.00  0.00    -0.336 OA
ATOM      7  N   UNL     1      16.635   6.953  20.459  0.00  0.00    -0.190 NA
ATOM      8  N   UNL     1      17.835   5.656  19.005  0.00  0.00    -0.056 NA
ATOM     15  C   UNL     1      15.875   6.551  19.472  0.00  0.00    +0.245 A 
ATOM     17  C   UNL     1      17.828   6.379  20.129  0.00  0.00    +0.202 A 
ENDROOT
BRANCH  15  10
ATOM      4  N   UNL     1      13.816   7.674  20.293  0.00  0.00    -0.300 NA
ATOM      5  N   UNL     1      10.797   8.558  18.268  0.00  0.00    -0.347 N 
ATOM      6  N   UNL     1      12.152   8.268  16.511  0.00  0.00    -0.240 NA
ATOM     10  C   UNL     1      14.404   6.830  19.213  0.00  0.00    +0.149 C 
ATOM     11  C   UNL     1      14.185   7.441  17.790  0.00  0.00    +0.085 C 
ATOM     12  C   UNL     1      12.789   7.921  17.667  0.00  0.00    +0.065 A 
ATOM     13  C   UNL     1      12.344   7.801  20.164  0.00  0.00    +0.137 C 
ATOM     14  C   UNL     1      11.979   8.095  18.763  0.00  0.00    +0.053 A 
ATOM     16  C   UNL     1      10.951   8.646  16.906  0.00  0.00    +0.197 A 
ATOM     24  H   UNL     1      14.230   8.606  20.234  0.00  0.00    +0.123 HD
ATOM     25  H   UNL     1       9.965   8.790  18.795  0.00  0.00    +0.167 HD
ENDBRANCH  15  10
BRANCH  17  18
ATOM     18  C   UNL     1      18.997   6.548  20.946  0.00  0.00    +0.025 A 
ATOM     19  C   UNL     1      20.103   5.720  20.762  0.00  0.00    +0.044 A 
ATOM     20  C   UNL     1      19.023   7.542  21.924  0.00  0.00    +0.012 A 
ATOM     21  C   UNL     1      21.237   5.885  21.557  0.00  0.00    +0.127 A 
ATOM     22  C   UNL     1      20.158   7.707  22.719  0.00  0.00    +0.003 A 
ATOM     23  C   UNL     1      21.265   6.878  22.535  0.00  0.00    +0.033 A 
BRANCH  21   9
ATOM      2  O   UNL     1      23.016   5.125  20.301  0.00  0.00    -0.126 OA
ATOM      3  O   UNL     1      22.677   4.234  22.279  0.00  0.00    -0.126 OA
ATOM      9  N   UNL     1      22.364   5.041  21.370  0.00  0.00    +0.056 N 
ENDBRANCH  21   9
ENDBRANCH  17  18
TORSDOF 3
ENDMDL
MODEL 7
REMARK VINA RESULT:      -6.9      2.590      8.609
REMARK  Name = 26745158
REMARK  3 active torsions:
REMARK  status: ('A' for Active; 'I' for Inactive)
REMARK    1  A    between atoms: N_9  and  C_21
REMARK    2  A    between atoms: C_10  and  C_15
REMARK    3  A    between atoms: C_17  and  C_18
REMARK                            x       y       z     vdW  Elec       q    Type
REMARK                         _______ _______ _______ _____ _____    ______ ____
ROOT
ATOM      1  O   UNL     1      18.039   8.047  21.573  0.00  0.00    -0.336 OA
ATOM      7  N   UNL     1      17.306   6.522  20.106  0.00  0.00    -0.190 NA
ATOM      8  N   UNL     1      16.720   8.404  21.269  0.00  0.00    -0.056 NA
ATOM     15  C   UNL     1      18.305   6.930  20.848  0.00  0.00    +0.245 A 
ATOM     17  C   UNL     1      16.357   7.458  20.397  0.00  0.00    +0.202 A 
ENDROOT
BRANCH  15  10
ATOM      4  N   UNL     1      19.852   5.105  20.177  0.00  0.00    -0.300 NA
ATOM      5  N   UNL     1      23.583   5.129  20.450  0.00  0.00    -0.347 N 
ATOM      6  N   UNL     1      23.343   7.343  20.663  0.00  0.00    -0.240 NA
ATOM     10  C   UNL     1      19.694   6.335  21.005  0.00  0.00    +0.149 C 
ATOM     11  C   UNL     1      20.803   7.399  20.714  0.00  0.00    +0.085 C 
ATOM     12  C   UNL     1      22.123   6.730  20.639  0.00  0.00    +0.065 A 
ATOM     13  C   UNL     1      21.127   4.401  20.458  0.00  0.00    +0.137 C 
ATOM     14  C   UNL     1      22.244   5.369  20.503  0.00  0.00    +0.053 A 
ATOM     16  C   UNL     1      24.204   6.349  20.550  0.00  0.00    +0.197 A 
ATOM     24  H   UNL     1      19.841   5.376  19.193  0.00  0.00    +0.123 HD
ATOM     25  H   UNL     1      24.038   4.229  20.358  0.00  0.00    +0.167 HD
ENDBRANCH  15  10
BRANCH  17  18
ATOM     18  C   UNL     1      15.053   7.418  19.799  0.00  0.00    +0.025 A 
ATOM     19  C   UNL     1      13.929   7.184  20.591  0.00  0.00    +0.044 A 
ATOM     20  C   UNL     1      14.911   7.613  18.425  0.00  0.00    +0.012 A 
ATOM     21  C   UNL     1      12.662   7.146  20.008  0.00  0.00    +0.127 A 
ATOM     22  C   UNL     1      13.644   7.574  17.843  0.00  0.00    +0.003 A 
ATOM     23  C   UNL     1      12.519   7.340  18.635  0.00  0.00    +0.033 A 
BRANCH  21   9
ATOM      2  O   UNL     1      11.508   5.912  21.578  0.00  0.00    -0.126 OA
ATOM      3  O   UNL     1      10.545   7.698  20.740  0.00  0.00    -0.126 OA
ATOM      9  N   UNL     1      11.517   6.907  20.814  0.00  0.00    +0.056 N 
ENDBRANCH  21   9
ENDBRANCH  17  18
TORSDOF 3
ENDMDL
MODEL 8
REMARK VINA RESULT:      -6.8     27.366     29.843
REMARK  Name = 26745158
REMARK  3 active torsions:
REMARK  status: ('A' for Active; 'I' for Inactive)
REMARK    1  A    between atoms: N_9  and  C_21
REMARK    2  A    between atoms: C_10  and  C_15
REMARK    3  A    between atoms: C_17  and  C_18
REMARK                            x       y       z     vdW  Elec       q    Type
REMARK                         _______ _______ _______ _____ _____    ______ ____
ROOT
ATOM      1  O   UNL     1      -9.747  -9.971  18.315  0.00  0.00    -0.336 OA
ATOM      7  N   UNL     1      -7.953  -9.040  17.352  0.00  0.00    -0.190 NA
ATOM      8  N   UNL     1      -8.659 -10.786  18.650  0.00  0.00    -0.056 NA
ATOM     15  C   UNL     1      -9.245  -8.967  17.551  0.00  0.00    +0.245 A 
ATOM     17  C   UNL     1      -7.638 -10.172  18.045  0.00  0.00    +0.202 A 
ENDROOT
BRANCH  15  10
ATOM      4  N   UNL     1      -9.734  -7.238  15.834  0.00  0.00    -0.300 NA
ATOM      5  N   UNL     1     -13.098  -5.863  14.947  0.00  0.00    -0.347 N 
ATOM      6  N   UNL     1     -13.883  -7.674  16.002  0.00  0.00    -0.240 NA
ATOM     10  C   UNL     1     -10.239  -7.932  17.054  0.00  0.00    +0.149 C 
ATOM     11  C   UNL     1     -11.655  -8.563  16.840  0.00  0.00    +0.085 C 
ATOM     12  C   UNL     1     -12.527  -7.596  16.132  0.00  0.00    +0.065 A 
ATOM     13  C   UNL     1     -10.596  -6.097  15.442  0.00  0.00    +0.137 C 
ATOM     14  C   UNL     1     -12.019  -6.493  15.488  0.00  0.00    +0.053 A 
ATOM     16  C   UNL     1     -14.199  -6.613  15.283  0.00  0.00    +0.197 A 
ATOM     24  H   UNL     1      -9.716  -7.910  15.066  0.00  0.00    +0.123 HD
ATOM     25  H   UNL     1     -13.097  -5.008  14.406  0.00  0.00    +0.167 HD
ENDBRANCH  15  10
BRANCH  17  18
ATOM     18  C   UNL     1      -6.291 -10.663  18.114  0.00  0.00    +0.025 A 
ATOM     19  C   UNL     1      -5.413 -10.441  17.053  0.00  0.00    +0.044 A 
ATOM     20  C   UNL     1      -5.862 -11.362  19.242  0.00  0.00    +0.012 A 
ATOM     21  C   UNL     1      -4.105 -10.920  17.121  0.00  0.00    +0.127 A 
ATOM     22  C   UNL     1      -4.553 -11.840  19.309  0.00  0.00    +0.003 A 
ATOM     23  C   UNL     1      -3.674 -11.619  18.248  0.00  0.00    +0.033 A 
BRANCH  21   9
ATOM      2  O   UNL     1      -3.674 -10.585  14.880  0.00  0.00    -0.126 OA
ATOM      3  O   UNL     1      -1.980 -10.615  16.276  0.00  0.00    -0.126 OA
ATOM      9  N   UNL     1      -3.210 -10.696  16.041  0.00  0.00    +0.056 N 
ENDBRANCH  21   9
ENDBRANCH  17  18
TORSDOF 3
ENDMDL
MODEL 9
REMARK VINA RESULT:      -6.6      3.148      8.292
REMARK  Name = 26745158
REMARK  3 active torsions:
REMARK  status: ('A' for Active; 'I' for Inactive)
REMARK    1  A    between atoms: N_9  and  C_21
REMARK    2  A    between atoms: C_10  and  C_15
REMARK    3  A    between atoms: C_17  and  C_18
REMARK                            x       y       z     vdW  Elec       q    Type
REMARK                         _______ _______ _______ _____ _____    ______ ____
ROOT
ATOM      1  O   UNL     1      17.145   9.652  21.804  0.00  0.00    -0.336 OA
ATOM      7  N   UNL     1      16.219   7.905  20.754  0.00  0.00    -0.190 NA
ATOM      8  N   UNL     1      15.807   9.999  21.580  0.00  0.00    -0.056 NA
ATOM     15  C   UNL     1      17.304   8.407  21.288  0.00  0.00    +0.245 A 
ATOM     17  C   UNL     1      15.328   8.918  20.956  0.00  0.00    +0.202 A 
ENDROOT
BRANCH  15  10
ATOM      4  N   UNL     1      19.104   7.673  22.836  0.00  0.00    -0.300 NA
ATOM      5  N   UNL     1      21.879   5.286  22.061  0.00  0.00    -0.347 N 
ATOM      6  N   UNL     1      20.600   4.694  20.323  0.00  0.00    -0.240 NA
ATOM     10  C   UNL     1      18.689   7.795  21.409  0.00  0.00    +0.149 C 
ATOM     11  C   UNL     1      18.776   6.434  20.642  0.00  0.00    +0.085 C 
ATOM     12  C   UNL     1      20.050   5.755  20.980  0.00  0.00    +0.065 A 
ATOM     13  C   UNL     1      20.521   7.258  22.973  0.00  0.00    +0.137 C 
ATOM     14  C   UNL     1      20.815   6.136  22.056  0.00  0.00    +0.053 A 
ATOM     16  C   UNL     1      21.704   4.435  20.997  0.00  0.00    +0.197 A 
ATOM     24  H   UNL     1      18.514   6.970  23.284  0.00  0.00    +0.123 HD
ATOM     25  H   UNL     1      22.651   5.281  22.714  0.00  0.00    +0.167 HD
ENDBRANCH  15  10
BRANCH  17  18
ATOM     18  C   UNL     1      13.963   8.819  20.522  0.00  0.00    +0.025 A 
ATOM     19  C   UNL     1      13.674   8.456  19.208  0.00  0.00    +0.044 A 
ATOM     20  C   UNL     1      12.927   9.086  21.417  0.00  0.00    +0.012 A 
ATOM     21  C   UNL     1      12.347   8.360  18.787  0.00  0.00    +0.127 A 
ATOM     22  C   UNL     1      11.601   8.990  20.997  0.00  0.00    +0.003 A 
ATOM     23  C   UNL     1      11.310   8.627  19.681  0.00  0.00    +0.033 A 
BRANCH  21   9
ATOM      2  O   UNL     1      12.999   7.775  16.654  0.00  0.00    -0.126 OA
ATOM      3  O   UNL     1      10.851   7.893  17.095  0.00  0.00    -0.126 OA
ATOM      9  N   UNL     1      12.051   7.991  17.448  0.00  0.00    +0.056 N 
ENDBRANCH  21   9
ENDBRANCH  17  18
TORSDOF 3
ENDMDL
MODEL 10
REMARK VINA RESULT:      -6.6      2.958      5.235
REMARK  Name = 26745158
REMARK  3 active torsions:
REMARK  status: ('A' for Active; 'I' for Inactive)
REMARK    1  A    between atoms: N_9  and  C_21
REMARK    2  A    between atoms: C_10  and  C_15
REMARK    3  A    between atoms: C_17  and  C_18
REMARK                            x       y       z     vdW  Elec       q    Type
REMARK                         _______ _______ _______ _____ _____    ______ ____
ROOT
ATOM      1  O   UNL     1      20.613   6.558  21.634  0.00  0.00    -0.336 OA
ATOM      7  N   UNL     1      20.775   4.869  20.172  0.00  0.00    -0.190 NA
ATOM      8  N   UNL     1      21.862   5.967  21.860  0.00  0.00    -0.056 NA
ATOM     15  C   UNL     1      20.039   5.852  20.626  0.00  0.00    +0.245 A 
ATOM     17  C   UNL     1      21.883   4.979  20.960  0.00  0.00    +0.202 A 
ENDROOT
BRANCH  15  10
ATOM      4  N   UNL     1      18.081   5.372  19.173  0.00  0.00    -0.300 NA
ATOM      5  N   UNL     1      14.608   6.697  19.598  0.00  0.00    -0.347 N 
ATOM      6  N   UNL     1      15.272   7.178  21.680  0.00  0.00    -0.240 NA
ATOM     10  C   UNL     1      18.656   6.303  20.185  0.00  0.00    +0.149 C 
ATOM     11  C   UNL     1      17.710   6.511  21.414  0.00  0.00    +0.085 C 
ATOM     12  C   UNL     1      16.320   6.711  20.940  0.00  0.00    +0.065 A 
ATOM     13  C   UNL     1      16.820   5.891  18.589  0.00  0.00    +0.137 C 
ATOM     14  C   UNL     1      15.936   6.404  19.657  0.00  0.00    +0.053 A 
ATOM     16  C   UNL     1      14.254   7.160  20.842  0.00  0.00    +0.197 A 
ATOM     24  H   UNL     1      17.884   4.481  19.630  0.00  0.00    +0.123 HD
ATOM     25  H   UNL     1      13.997   6.599  18.797  0.00  0.00    +0.167 HD
ENDBRANCH  15  10
BRANCH  17  18
ATOM     18  C   UNL     1      22.996   4.083  20.822  0.00  0.00    +0.025 A 
ATOM     19  C   UNL     1      24.145   4.497  20.148  0.00  0.00    +0.044 A 
ATOM     20  C   UNL     1      22.927   2.799  21.362  0.00  0.00    +0.012 A 
ATOM     21  C   UNL     1      25.226   3.626  20.014  0.00  0.00    +0.127 A 
ATOM     22  C   UNL     1      24.009   1.928  21.227  0.00  0.00    +0.003 A 
ATOM     23  C   UNL     1      25.158   2.341  20.553  0.00  0.00    +0.033 A 
BRANCH  21   9
ATOM      2  O   UNL     1      27.329   3.225  19.158  0.00  0.00    -0.126 OA
ATOM      3  O   UNL     1      26.465   5.227  18.909  0.00  0.00    -0.126 OA
ATOM      9  N   UNL     1      26.396   4.046  19.327  0.00  0.00    +0.056 N 
ENDBRANCH  21   9
ENDBRANCH  17  18
TORSDOF 3
ENDMDL
