MODEL 1
REMARK VINA RESULT:      -7.1      0.000      0.000
REMARK  Name = 11884450
REMARK  7 active torsions:
REMARK  status: ('A' for Active; 'I' for Inactive)
REMARK    1  A    between atoms: S_1  and  N_7
REMARK    2  A    between atoms: S_1  and  C_22
REMARK    3  A    between atoms: O_6  and  C_35
REMARK    4  A    between atoms: O_6  and  C_36
REMARK    5  A    between atoms: N_9  and  C_20
REMARK    6  A    between atoms: C_23  and  C_29
REMARK    7  A    between atoms: C_27  and  C_30
REMARK                            x       y       z     vdW  Elec       q    Type
REMARK                         _______ _______ _______ _____ _____    ______ ____
ROOT
ATOM      4  O   UNL     1      16.042   6.186  18.722  0.00  0.00    -0.266 OA
ATOM      7  N   UNL     1      13.322  10.356  18.539  0.00  0.00    -0.176 NA
ATOM      8  N   UNL     1      14.229   7.468  19.451  0.00  0.00    -0.310 N 
ATOM     11  C   UNL     1      12.311   8.163  17.903  0.00  0.00    +0.025 C 
ATOM     12  C   UNL     1      12.300   8.874  20.255  0.00  0.00    +0.052 C 
ATOM     13  C   UNL     1      11.476   8.174  19.177  0.00  0.00    +0.017 C 
ATOM     14  C   UNL     1      12.632   9.599  17.457  0.00  0.00    +0.114 C 
ATOM     15  C   UNL     1      12.572  10.329  19.831  0.00  0.00    +0.119 C 
ATOM     16  C   UNL     1      13.575   7.328  18.143  0.00  0.00    +0.130 C 
ATOM     17  C   UNL     1      13.606   8.143  20.504  0.00  0.00    +0.026 A 
ATOM     18  C   UNL     1      14.170   8.161  21.723  0.00  0.00    +0.024 A 
ATOM     19  C   UNL     1      15.463   6.805  19.615  0.00  0.00    +0.273 A 
ATOM     20  C   UNL     1      16.070   6.869  20.982  0.00  0.00    +0.099 A 
ATOM     21  C   UNL     1      15.428   7.511  21.963  0.00  0.00    +0.030 A 
ENDROOT
BRANCH  20   9
ATOM      5  O   UNL     1      18.643   8.095  20.839  0.00  0.00    -0.270 OA
ATOM      9  N   UNL     1      17.270   6.250  21.180  0.00  0.00    -0.277 N 
ATOM     27  C   UNL     1      18.491   6.904  21.095  0.00  0.00    +0.248 C 
ATOM     37  H   UNL     1      17.229   5.344  21.640  0.00  0.00    +0.155 HD
BRANCH  27  30
ATOM     30  C   UNL     1      19.689   6.066  21.364  0.00  0.00    +0.037 A 
ATOM     31  C   UNL     1      20.424   6.304  22.507  0.00  0.00    +0.016 A 
ATOM     32  C   UNL     1      20.028   5.078  20.464  0.00  0.00    +0.016 A 
ATOM     33  C   UNL     1      21.548   5.519  22.760  0.00  0.00    +0.046 A 
ATOM     34  C   UNL     1      21.153   4.292  20.716  0.00  0.00    +0.046 A 
ATOM     35  C   UNL     1      21.912   4.512  21.865  0.00  0.00    +0.120 A 
BRANCH  35   6
ATOM      6  O   UNL     1      23.009   3.745  22.114  0.00  0.00    -0.495 OA
ATOM     36  C   UNL     1      23.287   2.691  21.194  0.00  0.00    +0.277 C 
ENDBRANCH  35   6
ENDBRANCH  27  30
ENDBRANCH  20   9
BRANCH   7   1
ATOM      1  S   UNL     1      13.960  11.878  18.087  0.00  0.00    +0.062 S 
ATOM      2  O   UNL     1      13.168  12.924  18.697  0.00  0.00    -0.153 OA
ATOM      3  O   UNL     1      14.222  11.875  16.663  0.00  0.00    -0.153 OA
BRANCH   1  22
ATOM     22  C   UNL     1      15.515  11.821  18.923  0.00  0.00    +0.123 A 
ATOM     23  C   UNL     1      16.477  12.802  18.727  0.00  0.00    +0.078 A 
ATOM     24  C   UNL     1      15.746  10.757  19.784  0.00  0.00    +0.030 A 
ATOM     25  C   UNL     1      17.693  12.717  19.407  0.00  0.00    +0.021 A 
ATOM     26  C   UNL     1      16.961  10.672  20.464  0.00  0.00    +0.002 A 
ATOM     28  C   UNL     1      17.935  11.652  20.273  0.00  0.00    +0.001 A 
BRANCH  23  29
ATOM     10  N   UNL     1      16.089  14.801  17.125  0.00  0.00    -0.191 NA
ATOM     29  C   UNL     1      16.263  13.907  17.842  0.00  0.00    +0.101 C 
ENDBRANCH  23  29
ENDBRANCH   1  22
ENDBRANCH   7   1
TORSDOF 6
ENDMDL
MODEL 2
REMARK VINA RESULT:      -6.9     28.417     31.211
REMARK  Name = 11884450
REMARK  7 active torsions:
REMARK  status: ('A' for Active; 'I' for Inactive)
REMARK    1  A    between atoms: S_1  and  N_7
REMARK    2  A    between atoms: S_1  and  C_22
REMARK    3  A    between atoms: O_6  and  C_35
REMARK    4  A    between atoms: O_6  and  C_36
REMARK    5  A    between atoms: N_9  and  C_20
REMARK    6  A    between atoms: C_23  and  C_29
REMARK    7  A    between atoms: C_27  and  C_30
REMARK                            x       y       z     vdW  Elec       q    Type
REMARK                         _______ _______ _______ _____ _____    ______ ____
ROOT
ATOM      4  O   UNL     1      -5.463 -12.377  10.347  0.00  0.00    -0.266 OA
ATOM      7  N   UNL     1      -3.521 -12.205  14.932  0.00  0.00    -0.176 NA
ATOM      8  N   UNL     1      -3.614 -12.290  11.773  0.00  0.00    -0.310 N 
ATOM     11  C   UNL     1      -3.060 -14.154  13.440  0.00  0.00    +0.025 C 
ATOM     12  C   UNL     1      -1.629 -12.161  13.319  0.00  0.00    +0.052 C 
ATOM     13  C   UNL     1      -1.621 -13.686  13.268  0.00  0.00    +0.017 C 
ATOM     14  C   UNL     1      -3.620 -13.686  14.793  0.00  0.00    +0.114 C 
ATOM     15  C   UNL     1      -2.137 -11.695  14.696  0.00  0.00    +0.119 C 
ATOM     16  C   UNL     1      -3.893 -13.649  12.256  0.00  0.00    +0.130 C 
ATOM     17  C   UNL     1      -2.492 -11.582  12.213  0.00  0.00    +0.026 A 
ATOM     18  C   UNL     1      -2.192 -10.388  11.675  0.00  0.00    +0.024 A 
ATOM     19  C   UNL     1      -4.473 -11.783  10.777  0.00  0.00    +0.273 A 
ATOM     20  C   UNL     1      -4.118 -10.439  10.220  0.00  0.00    +0.099 A 
ATOM     21  C   UNL     1      -3.025  -9.807  10.659  0.00  0.00    +0.030 A 
ENDROOT
BRANCH  20   9
ATOM      5  O   UNL     1      -6.367  -8.741  10.670  0.00  0.00    -0.270 OA
ATOM      9  N   UNL     1      -4.931  -9.908   9.262  0.00  0.00    -0.277 N 
ATOM     27  C   UNL     1      -6.012  -9.087   9.546  0.00  0.00    +0.248 C 
ATOM     37  H   UNL     1      -4.568  -9.930   8.312  0.00  0.00    +0.155 HD
BRANCH  27  30
ATOM     30  C   UNL     1      -6.768  -8.587   8.368  0.00  0.00    +0.037 A 
ATOM     31  C   UNL     1      -7.537  -7.450   8.505  0.00  0.00    +0.016 A 
ATOM     32  C   UNL     1      -6.676  -9.273   7.176  0.00  0.00    +0.016 A 
ATOM     33  C   UNL     1      -8.247  -6.980   7.400  0.00  0.00    +0.046 A 
ATOM     34  C   UNL     1      -7.385  -8.803   6.070  0.00  0.00    +0.046 A 
ATOM     35  C   UNL     1      -8.170  -7.656   6.182  0.00  0.00    +0.120 A 
BRANCH  35   6
ATOM      6  O   UNL     1      -8.861  -7.195   5.104  0.00  0.00    -0.495 OA
ATOM     36  C   UNL     1     -10.284  -7.191   5.196  0.00  0.00    +0.277 C 
ENDBRANCH  35   6
ENDBRANCH  27  30
ENDBRANCH  20   9
BRANCH   7   1
ATOM      1  S   UNL     1      -4.338 -11.531  16.276  0.00  0.00    +0.062 S 
ATOM      2  O   UNL     1      -3.578 -10.405  16.776  0.00  0.00    -0.153 OA
ATOM      3  O   UNL     1      -4.755 -12.600  17.159  0.00  0.00    -0.153 OA
BRANCH   1  22
ATOM     22  C   UNL     1      -5.779 -10.898  15.476  0.00  0.00    +0.123 A 
ATOM     23  C   UNL     1      -6.826 -10.347  16.201  0.00  0.00    +0.078 A 
ATOM     24  C   UNL     1      -5.832 -10.971  14.090  0.00  0.00    +0.030 A 
ATOM     25  C   UNL     1      -7.947  -9.859  15.529  0.00  0.00    +0.021 A 
ATOM     26  C   UNL     1      -6.953 -10.484  13.418  0.00  0.00    +0.002 A 
ATOM     28  C   UNL     1      -8.011  -9.929  14.138  0.00  0.00    +0.001 A 
BRANCH  23  29
ATOM     10  N   UNL     1      -6.769 -10.194  18.787  0.00  0.00    -0.191 NA
ATOM     29  C   UNL     1      -6.795 -10.263  17.630  0.00  0.00    +0.101 C 
ENDBRANCH  23  29
ENDBRANCH   1  22
ENDBRANCH   7   1
TORSDOF 6
ENDMDL
MODEL 3
REMARK VINA RESULT:      -6.8     28.641     32.194
REMARK  Name = 11884450
REMARK  7 active torsions:
REMARK  status: ('A' for Active; 'I' for Inactive)
REMARK    1  A    between atoms: S_1  and  N_7
REMARK    2  A    between atoms: S_1  and  C_22
REMARK    3  A    between atoms: O_6  and  C_35
REMARK    4  A    between atoms: O_6  and  C_36
REMARK    5  A    between atoms: N_9  and  C_20
REMARK    6  A    between atoms: C_23  and  C_29
REMARK    7  A    between atoms: C_27  and  C_30
REMARK                            x       y       z     vdW  Elec       q    Type
REMARK                         _______ _______ _______ _____ _____    ______ ____
ROOT
ATOM      4  O   UNL     1      -8.627  -8.294  17.156  0.00  0.00    -0.266 OA
ATOM      7  N   UNL     1      -4.971 -11.616  16.502  0.00  0.00    -0.176 NA
ATOM      8  N   UNL     1      -7.764 -10.450  17.416  0.00  0.00    -0.310 N 
ATOM     11  C   UNL     1      -5.670 -10.948  18.804  0.00  0.00    +0.025 C 
ATOM     12  C   UNL     1      -6.838 -12.780  17.660  0.00  0.00    +0.052 C 
ATOM     13  C   UNL     1      -6.305 -12.315  19.013  0.00  0.00    +0.017 C 
ATOM     14  C   UNL     1      -4.512 -11.039  17.797  0.00  0.00    +0.114 C 
ATOM     15  C   UNL     1      -5.669 -12.926  16.669  0.00  0.00    +0.119 C 
ATOM     16  C   UNL     1      -6.753  -9.956  18.361  0.00  0.00    +0.130 C 
ATOM     17  C   UNL     1      -7.873 -11.812  17.119  0.00  0.00    +0.026 A 
ATOM     18  C   UNL     1      -8.876 -12.255  16.342  0.00  0.00    +0.024 A 
ATOM     19  C   UNL     1      -8.674  -9.500  16.909  0.00  0.00    +0.273 A 
ATOM     20  C   UNL     1      -9.762 -10.032  16.028  0.00  0.00    +0.099 A 
ATOM     21  C   UNL     1      -9.836 -11.344  15.785  0.00  0.00    +0.030 A 
ENDROOT
BRANCH  20   9
ATOM      5  O   UNL     1     -12.097  -9.033  17.328  0.00  0.00    -0.270 OA
ATOM      9  N   UNL     1     -10.656  -9.143  15.507  0.00  0.00    -0.277 N 
ATOM     27  C   UNL     1     -11.776  -8.695  16.193  0.00  0.00    +0.248 C 
ATOM     37  H   UNL     1     -10.340  -8.624  14.692  0.00  0.00    +0.155 HD
BRANCH  27  30
ATOM     30  C   UNL     1     -12.622  -7.710  15.470  0.00  0.00    +0.037 A 
ATOM     31  C   UNL     1     -12.007  -6.705  14.751  0.00  0.00    +0.016 A 
ATOM     32  C   UNL     1     -13.994  -7.831  15.539  0.00  0.00    +0.016 A 
ATOM     33  C   UNL     1     -12.800  -5.781  14.072  0.00  0.00    +0.046 A 
ATOM     34  C   UNL     1     -14.788  -6.905  14.859  0.00  0.00    +0.046 A 
ATOM     35  C   UNL     1     -14.190  -5.881  14.126  0.00  0.00    +0.120 A 
BRANCH  35   6
ATOM      6  O   UNL     1     -14.963  -4.979  13.461  0.00  0.00    -0.495 OA
ATOM     36  C   UNL     1     -14.320  -3.801  12.980  0.00  0.00    +0.277 C 
ENDBRANCH  35   6
ENDBRANCH  27  30
ENDBRANCH  20   9
BRANCH   7   1
ATOM      1  S   UNL     1      -3.846 -11.536  15.215  0.00  0.00    +0.062 S 
ATOM      2  O   UNL     1      -3.600 -12.874  14.718  0.00  0.00    -0.153 OA
ATOM      3  O   UNL     1      -2.751 -10.671  15.599  0.00  0.00    -0.153 OA
BRANCH   1  22
ATOM     22  C   UNL     1      -4.814 -10.683  14.010  0.00  0.00    +0.123 A 
ATOM     23  C   UNL     1      -4.298 -10.362  12.762  0.00  0.00    +0.078 A 
ATOM     24  C   UNL     1      -6.115 -10.338  14.354  0.00  0.00    +0.030 A 
ATOM     25  C   UNL     1      -5.097  -9.685  11.841  0.00  0.00    +0.021 A 
ATOM     26  C   UNL     1      -6.914  -9.661  13.432  0.00  0.00    +0.002 A 
ATOM     28  C   UNL     1      -6.404  -9.334  12.176  0.00  0.00    +0.001 A 
BRANCH  23  29
ATOM     10  N   UNL     1      -1.876 -10.983  12.082  0.00  0.00    -0.191 NA
ATOM     29  C   UNL     1      -2.959 -10.704  12.386  0.00  0.00    +0.101 C 
ENDBRANCH  23  29
ENDBRANCH   1  22
ENDBRANCH   7   1
TORSDOF 6
ENDMDL
MODEL 4
REMARK VINA RESULT:      -6.6     16.284     19.325
REMARK  Name = 11884450
REMARK  7 active torsions:
REMARK  status: ('A' for Active; 'I' for Inactive)
REMARK    1  A    between atoms: S_1  and  N_7
REMARK    2  A    between atoms: S_1  and  C_22
REMARK    3  A    between atoms: O_6  and  C_35
REMARK    4  A    between atoms: O_6  and  C_36
REMARK    5  A    between atoms: N_9  and  C_20
REMARK    6  A    between atoms: C_23  and  C_29
REMARK    7  A    between atoms: C_27  and  C_30
REMARK                            x       y       z     vdW  Elec       q    Type
REMARK                         _______ _______ _______ _____ _____    ______ ____
ROOT
ATOM      4  O   UNL     1       9.919   7.181   1.489  0.00  0.00    -0.266 OA
ATOM      7  N   UNL     1      12.093   7.662   5.947  0.00  0.00    -0.176 NA
ATOM      8  N   UNL     1      10.027   6.672   3.768  0.00  0.00    -0.310 N 
ATOM     11  C   UNL     1       9.746   8.441   5.598  0.00  0.00    +0.025 C 
ATOM     12  C   UNL     1      10.175   6.103   6.217  0.00  0.00    +0.052 C 
ATOM     13  C   UNL     1       9.231   7.282   6.441  0.00  0.00    +0.017 C 
ATOM     14  C   UNL     1      11.170   8.830   6.027  0.00  0.00    +0.114 C 
ATOM     15  C   UNL     1      11.588   6.475   6.700  0.00  0.00    +0.119 C 
ATOM     16  C   UNL     1       9.667   8.053   4.117  0.00  0.00    +0.130 C 
ATOM     17  C   UNL     1      10.205   5.698   4.755  0.00  0.00    +0.026 A 
ATOM     18  C   UNL     1      10.421   4.418   4.410  0.00  0.00    +0.024 A 
ATOM     19  C   UNL     1      10.084   6.361   2.394  0.00  0.00    +0.273 A 
ATOM     20  C   UNL     1      10.351   4.928   2.051  0.00  0.00    +0.099 A 
ATOM     21  C   UNL     1      10.497   4.029   3.030  0.00  0.00    +0.030 A 
ENDROOT
BRANCH  20   9
ATOM      5  O   UNL     1      12.722   4.242   0.619  0.00  0.00    -0.270 OA
ATOM      9  N   UNL     1      10.426   4.588   0.732  0.00  0.00    -0.277 N 
ATOM     27  C   UNL     1      11.613   4.264   0.092  0.00  0.00    +0.248 C 
ATOM     37  H   UNL     1       9.546   4.335   0.290  0.00  0.00    +0.155 HD
BRANCH  27  30
ATOM     30  C   UNL     1      11.492   3.899  -1.344  0.00  0.00    +0.037 A 
ATOM     31  C   UNL     1      10.482   4.467  -2.092  0.00  0.00    +0.016 A 
ATOM     32  C   UNL     1      12.394   3.006  -1.883  0.00  0.00    +0.016 A 
ATOM     33  C   UNL     1      10.368   4.124  -3.438  0.00  0.00    +0.046 A 
ATOM     34  C   UNL     1      12.280   2.663  -3.231  0.00  0.00    +0.046 A 
ATOM     35  C   UNL     1      11.268   3.223  -4.008  0.00  0.00    +0.120 A 
BRANCH  35   6
ATOM      6  O   UNL     1      11.156   2.892  -5.324  0.00  0.00    -0.495 OA
ATOM     36  C   UNL     1       9.839   2.806  -5.865  0.00  0.00    +0.277 C 
ENDBRANCH  35   6
ENDBRANCH  27  30
ENDBRANCH  20   9
BRANCH   7   1
ATOM      1  S   UNL     1      13.754   8.016   6.151  0.00  0.00    +0.062 S 
ATOM      2  O   UNL     1      14.357   6.993   6.979  0.00  0.00    -0.153 OA
ATOM      3  O   UNL     1      13.902   9.420   6.474  0.00  0.00    -0.153 OA
BRANCH   1  22
ATOM     22  C   UNL     1      14.326   7.778   4.497  0.00  0.00    +0.123 A 
ATOM     23  C   UNL     1      15.650   8.006   4.150  0.00  0.00    +0.078 A 
ATOM     24  C   UNL     1      13.403   7.355   3.550  0.00  0.00    +0.030 A 
ATOM     25  C   UNL     1      16.059   7.807   2.831  0.00  0.00    +0.021 A 
ATOM     26  C   UNL     1      13.812   7.157   2.231  0.00  0.00    +0.002 A 
ATOM     28  C   UNL     1      15.140   7.384   1.872  0.00  0.00    +0.001 A 
BRANCH  23  29
ATOM     10  N   UNL     1      17.403   8.799   5.885  0.00  0.00    -0.191 NA
ATOM     29  C   UNL     1      16.619   8.444   5.108  0.00  0.00    +0.101 C 
ENDBRANCH  23  29
ENDBRANCH   1  22
ENDBRANCH   7   1
TORSDOF 6
ENDMDL
MODEL 5
REMARK VINA RESULT:      -6.5     17.765     21.493
REMARK  Name = 11884450
REMARK  7 active torsions:
REMARK  status: ('A' for Active; 'I' for Inactive)
REMARK    1  A    between atoms: S_1  and  N_7
REMARK    2  A    between atoms: S_1  and  C_22
REMARK    3  A    between atoms: O_6  and  C_35
REMARK    4  A    between atoms: O_6  and  C_36
REMARK    5  A    between atoms: N_9  and  C_20
REMARK    6  A    between atoms: C_23  and  C_29
REMARK    7  A    between atoms: C_27  and  C_30
REMARK                            x       y       z     vdW  Elec       q    Type
REMARK                         _______ _______ _______ _____ _____    ______ ____
ROOT
ATOM      4  O   UNL     1      12.118   7.910   1.763  0.00  0.00    -0.266 OA
ATOM      7  N   UNL     1      13.161   3.771  -0.807  0.00  0.00    -0.176 NA
ATOM      8  N   UNL     1      12.726   5.654   1.695  0.00  0.00    -0.310 N 
ATOM     11  C   UNL     1      14.905   4.837   0.628  0.00  0.00    +0.025 C 
ATOM     12  C   UNL     1      13.345   3.214   1.610  0.00  0.00    +0.052 C 
ATOM     13  C   UNL     1      14.796   3.689   1.622  0.00  0.00    +0.017 C 
ATOM     14  C   UNL     1      14.528   4.364  -0.786  0.00  0.00    +0.114 C 
ATOM     15  C   UNL     1      12.987   2.689   0.208  0.00  0.00    +0.119 C 
ATOM     16  C   UNL     1      14.028   5.999   1.110  0.00  0.00    +0.130 C 
ATOM     17  C   UNL     1      12.401   4.333   2.013  0.00  0.00    +0.026 A 
ATOM     18  C   UNL     1      11.253   4.053   2.652  0.00  0.00    +0.024 A 
ATOM     19  C   UNL     1      11.869   6.729   2.009  0.00  0.00    +0.273 A 
ATOM     20  C   UNL     1      10.588   6.373   2.699  0.00  0.00    +0.099 A 
ATOM     21  C   UNL     1      10.330   5.097   2.998  0.00  0.00    +0.030 A 
ENDROOT
BRANCH  20   9
ATOM      5  O   UNL     1      10.469   7.783   5.177  0.00  0.00    -0.270 OA
ATOM      9  N   UNL     1       9.726   7.384   3.010  0.00  0.00    -0.277 N 
ATOM     27  C   UNL     1       9.718   8.031   4.238  0.00  0.00    +0.248 C 
ATOM     37  H   UNL     1       9.253   7.819   2.223  0.00  0.00    +0.155 HD
BRANCH  27  30
ATOM     30  C   UNL     1       8.720   9.123   4.383  0.00  0.00    +0.037 A 
ATOM     31  C   UNL     1       9.054  10.235   5.128  0.00  0.00    +0.016 A 
ATOM     32  C   UNL     1       7.493   8.991   3.768  0.00  0.00    +0.016 A 
ATOM     33  C   UNL     1       8.119  11.260   5.265  0.00  0.00    +0.046 A 
ATOM     34  C   UNL     1       6.556  10.017   3.904  0.00  0.00    +0.046 A 
ATOM     35  C   UNL     1       6.870  11.151   4.652  0.00  0.00    +0.120 A 
BRANCH  35   6
ATOM      6  O   UNL     1       5.958  12.153   4.784  0.00  0.00    -0.495 OA
ATOM     36  C   UNL     1       4.580  11.791   4.718  0.00  0.00    +0.277 C 
ENDBRANCH  35   6
ENDBRANCH  27  30
ENDBRANCH  20   9
BRANCH   7   1
ATOM      1  S   UNL     1      12.521   3.440  -2.358  0.00  0.00    +0.062 S 
ATOM      2  O   UNL     1      12.140   2.045  -2.425  0.00  0.00    -0.153 OA
ATOM      3  O   UNL     1      13.387   4.024  -3.361  0.00  0.00    -0.153 OA
BRANCH   1  22
ATOM     22  C   UNL     1      11.042   4.401  -2.294  0.00  0.00    +0.123 A 
ATOM     23  C   UNL     1      10.112   4.368  -3.324  0.00  0.00    +0.078 A 
ATOM     24  C   UNL     1      10.838   5.198  -1.175  0.00  0.00    +0.030 A 
ATOM     25  C   UNL     1       8.957   5.146  -3.233  0.00  0.00    +0.021 A 
ATOM     26  C   UNL     1       9.683   5.976  -1.084  0.00  0.00    +0.002 A 
ATOM     28  C   UNL     1       8.744   5.950  -2.114  0.00  0.00    +0.001 A 
BRANCH  23  29
ATOM     10  N   UNL     1      10.454   2.899  -5.431  0.00  0.00    -0.191 NA
ATOM     29  C   UNL     1      10.301   3.557  -4.488  0.00  0.00    +0.101 C 
ENDBRANCH  23  29
ENDBRANCH   1  22
ENDBRANCH   7   1
TORSDOF 6
ENDMDL
MODEL 6
REMARK VINA RESULT:      -6.5     28.335     31.635
REMARK  Name = 11884450
REMARK  7 active torsions:
REMARK  status: ('A' for Active; 'I' for Inactive)
REMARK    1  A    between atoms: S_1  and  N_7
REMARK    2  A    between atoms: S_1  and  C_22
REMARK    3  A    between atoms: O_6  and  C_35
REMARK    4  A    between atoms: O_6  and  C_36
REMARK    5  A    between atoms: N_9  and  C_20
REMARK    6  A    between atoms: C_23  and  C_29
REMARK    7  A    between atoms: C_27  and  C_30
REMARK                            x       y       z     vdW  Elec       q    Type
REMARK                         _______ _______ _______ _____ _____    ______ ____
ROOT
ATOM      4  O   UNL     1      -6.566 -10.027  14.355  0.00  0.00    -0.266 OA
ATOM      7  N   UNL     1      -2.898 -13.046  12.852  0.00  0.00    -0.176 NA
ATOM      8  N   UNL     1      -4.295 -10.564  14.225  0.00  0.00    -0.310 N 
ATOM     11  C   UNL     1      -3.028 -10.701  12.004  0.00  0.00    +0.025 C 
ATOM     12  C   UNL     1      -1.853 -11.171  14.109  0.00  0.00    +0.052 C 
ATOM     13  C   UNL     1      -1.810 -10.327  12.838  0.00  0.00    +0.017 C 
ATOM     14  C   UNL     1      -2.991 -12.193  11.634  0.00  0.00    +0.114 C 
ATOM     15  C   UNL     1      -1.758 -12.663  13.740  0.00  0.00    +0.119 C 
ATOM     16  C   UNL     1      -4.297 -10.321  12.776  0.00  0.00    +0.130 C 
ATOM     17  C   UNL     1      -3.119 -10.902  14.901  0.00  0.00    +0.026 A 
ATOM     18  C   UNL     1      -3.116 -11.007  16.240  0.00  0.00    +0.024 A 
ATOM     19  C   UNL     1      -5.509 -10.341  14.906  0.00  0.00    +0.273 A 
ATOM     20  C   UNL     1      -5.469 -10.492  16.395  0.00  0.00    +0.099 A 
ATOM     21  C   UNL     1      -4.317 -10.799  16.999  0.00  0.00    +0.030 A 
ENDROOT
BRANCH  20   9
ATOM      5  O   UNL     1      -7.323 -12.512  17.184  0.00  0.00    -0.270 OA
ATOM      9  N   UNL     1      -6.626 -10.296  17.090  0.00  0.00    -0.277 N 
ATOM     27  C   UNL     1      -7.489 -11.324  17.444  0.00  0.00    +0.248 C 
ATOM     37  H   UNL     1      -6.713  -9.399  17.560  0.00  0.00    +0.155 HD
BRANCH  27  30
ATOM     30  C   UNL     1      -8.690 -10.918  18.220  0.00  0.00    +0.037 A 
ATOM     31  C   UNL     1      -9.004 -11.609  19.372  0.00  0.00    +0.016 A 
ATOM     32  C   UNL     1      -9.452  -9.862  17.765  0.00  0.00    +0.016 A 
ATOM     33  C   UNL     1     -10.130 -11.229  20.099  0.00  0.00    +0.046 A 
ATOM     34  C   UNL     1     -10.580  -9.481  18.493  0.00  0.00    +0.046 A 
ATOM     35  C   UNL     1     -10.918 -10.164  19.661  0.00  0.00    +0.120 A 
BRANCH  35   6
ATOM      6  O   UNL     1     -12.016  -9.792  20.373  0.00  0.00    -0.495 OA
ATOM     36  C   UNL     1     -13.275  -9.844  19.704  0.00  0.00    +0.277 C 
ENDBRANCH  35   6
ENDBRANCH  27  30
ENDBRANCH  20   9
BRANCH   7   1
ATOM      1  S   UNL     1      -3.105 -14.725  12.599  0.00  0.00    +0.062 S 
ATOM      2  O   UNL     1      -1.819 -15.322  12.306  0.00  0.00    -0.153 OA
ATOM      3  O   UNL     1      -4.240 -14.934  11.724  0.00  0.00    -0.153 OA
BRANCH   1  22
ATOM     22  C   UNL     1      -3.576 -15.228  14.224  0.00  0.00    +0.123 A 
ATOM     23  C   UNL     1      -4.780 -14.826  14.786  0.00  0.00    +0.078 A 
ATOM     24  C   UNL     1      -2.696 -16.041  14.929  0.00  0.00    +0.030 A 
ATOM     25  C   UNL     1      -5.112 -15.245  16.074  0.00  0.00    +0.021 A 
ATOM     26  C   UNL     1      -3.028 -16.459  16.217  0.00  0.00    +0.002 A 
ATOM     28  C   UNL     1      -4.236 -16.060  16.790  0.00  0.00    +0.001 A 
BRANCH  23  29
ATOM     10  N   UNL     1      -6.446 -13.306  13.510  0.00  0.00    -0.191 NA
ATOM     29  C   UNL     1      -5.701 -13.987  14.081  0.00  0.00    +0.101 C 
ENDBRANCH  23  29
ENDBRANCH   1  22
ENDBRANCH   7   1
TORSDOF 6
ENDMDL
MODEL 7
REMARK VINA RESULT:      -6.4     23.205     25.966
REMARK  Name = 11884450
REMARK  7 active torsions:
REMARK  status: ('A' for Active; 'I' for Inactive)
REMARK    1  A    between atoms: S_1  and  N_7
REMARK    2  A    between atoms: S_1  and  C_22
REMARK    3  A    between atoms: O_6  and  C_35
REMARK    4  A    between atoms: O_6  and  C_36
REMARK    5  A    between atoms: N_9  and  C_20
REMARK    6  A    between atoms: C_23  and  C_29
REMARK    7  A    between atoms: C_27  and  C_30
REMARK                            x       y       z     vdW  Elec       q    Type
REMARK                         _______ _______ _______ _____ _____    ______ ____
ROOT
ATOM      4  O   UNL     1      -1.842  12.299  38.415  0.00  0.00    -0.266 OA
ATOM      7  N   UNL     1      -2.389  14.301  33.886  0.00  0.00    -0.176 NA
ATOM      8  N   UNL     1      -0.942  12.992  36.373  0.00  0.00    -0.310 N 
ATOM     11  C   UNL     1      -0.973  15.434  35.601  0.00  0.00    +0.025 C 
ATOM     12  C   UNL     1       0.011  13.710  34.155  0.00  0.00    +0.052 C 
ATOM     13  C   UNL     1       0.280  15.056  34.823  0.00  0.00    +0.017 C 
ATOM     14  C   UNL     1      -2.178  15.559  34.656  0.00  0.00    +0.114 C 
ATOM     15  C   UNL     1      -1.160  13.851  33.166  0.00  0.00    +0.119 C 
ATOM     16  C   UNL     1      -1.203  14.398  36.709  0.00  0.00    +0.130 C 
ATOM     17  C   UNL     1      -0.294  12.639  35.186  0.00  0.00    +0.026 A 
ATOM     18  C   UNL     1       0.038  11.359  34.951  0.00  0.00    +0.024 A 
ATOM     19  C   UNL     1      -1.285  12.034  37.349  0.00  0.00    +0.273 A 
ATOM     20  C   UNL     1      -0.920  10.615  37.039  0.00  0.00    +0.099 A 
ATOM     21  C   UNL     1      -0.286  10.328  35.898  0.00  0.00    +0.030 A 
ENDROOT
BRANCH  20   9
ATOM      5  O   UNL     1      -3.001   8.679  36.781  0.00  0.00    -0.270 OA
ATOM      9  N   UNL     1      -1.246   9.656  37.953  0.00  0.00    -0.277 N 
ATOM     27  C   UNL     1      -2.273   8.741  37.768  0.00  0.00    +0.248 C 
ATOM     37  H   UNL     1      -0.547   9.471  38.668  0.00  0.00    +0.155 HD
BRANCH  27  30
ATOM     30  C   UNL     1      -2.463   7.757  38.865  0.00  0.00    +0.037 A 
ATOM     31  C   UNL     1      -3.335   8.064  39.890  0.00  0.00    +0.016 A 
ATOM     32  C   UNL     1      -1.765   6.569  38.824  0.00  0.00    +0.016 A 
ATOM     33  C   UNL     1      -3.514   7.141  40.920  0.00  0.00    +0.046 A 
ATOM     34  C   UNL     1      -1.945   5.645  39.855  0.00  0.00    +0.046 A 
ATOM     35  C   UNL     1      -2.820   5.931  40.902  0.00  0.00    +0.120 A 
BRANCH  35   6
ATOM      6  O   UNL     1      -2.997   5.030  41.906  0.00  0.00    -0.495 OA
ATOM     36  C   UNL     1      -4.247   5.059  42.593  0.00  0.00    +0.277 C 
ENDBRANCH  35   6
ENDBRANCH  27  30
ENDBRANCH  20   9
BRANCH   7   1
ATOM      1  S   UNL     1      -3.844  14.216  32.989  0.00  0.00    +0.062 S 
ATOM      2  O   UNL     1      -3.573  13.604  31.705  0.00  0.00    -0.153 OA
ATOM      3  O   UNL     1      -4.527  15.490  33.077  0.00  0.00    -0.153 OA
BRANCH   1  22
ATOM     22  C   UNL     1      -4.742  13.051  33.964  0.00  0.00    +0.123 A 
ATOM     23  C   UNL     1      -6.065  12.739  33.684  0.00  0.00    +0.078 A 
ATOM     24  C   UNL     1      -4.079  12.454  35.030  0.00  0.00    +0.030 A 
ATOM     25  C   UNL     1      -6.738  11.814  34.482  0.00  0.00    +0.021 A 
ATOM     26  C   UNL     1      -4.752  11.529  35.828  0.00  0.00    +0.002 A 
ATOM     28  C   UNL     1      -6.082  11.210  35.554  0.00  0.00    +0.001 A 
BRANCH  23  29
ATOM     10  N   UNL     1      -7.340  13.831  31.710  0.00  0.00    -0.191 NA
ATOM     29  C   UNL     1      -6.770  13.343  32.594  0.00  0.00    +0.101 C 
ENDBRANCH  23  29
ENDBRANCH   1  22
ENDBRANCH   7   1
TORSDOF 6
ENDMDL
MODEL 8
REMARK VINA RESULT:      -6.4     29.065     32.418
REMARK  Name = 11884450
REMARK  7 active torsions:
REMARK  status: ('A' for Active; 'I' for Inactive)
REMARK    1  A    between atoms: S_1  and  N_7
REMARK    2  A    between atoms: S_1  and  C_22
REMARK    3  A    between atoms: O_6  and  C_35
REMARK    4  A    between atoms: O_6  and  C_36
REMARK    5  A    between atoms: N_9  and  C_20
REMARK    6  A    between atoms: C_23  and  C_29
REMARK    7  A    between atoms: C_27  and  C_30
REMARK                            x       y       z     vdW  Elec       q    Type
REMARK                         _______ _______ _______ _____ _____    ______ ____
ROOT
ATOM      4  O   UNL     1      -7.928 -11.426   9.581  0.00  0.00    -0.266 OA
ATOM      7  N   UNL     1      -8.883 -10.274   4.828  0.00  0.00    -0.176 NA
ATOM      8  N   UNL     1      -8.807  -9.973   7.974  0.00  0.00    -0.310 N 
ATOM     11  C   UNL     1     -10.757 -10.614   6.443  0.00  0.00    +0.025 C 
ATOM     12  C   UNL     1      -9.718  -8.399   6.232  0.00  0.00    +0.052 C 
ATOM     13  C   UNL     1     -11.049  -9.120   6.426  0.00  0.00    +0.017 C 
ATOM     14  C   UNL     1     -10.120 -11.055   5.116  0.00  0.00    +0.114 C 
ATOM     15  C   UNL     1      -9.109  -8.798   4.876  0.00  0.00    +0.119 C 
ATOM     16  C   UNL     1      -9.870 -10.935   7.653  0.00  0.00    +0.130 C 
ATOM     17  C   UNL     1      -8.754  -8.719   7.360  0.00  0.00    +0.026 A 
ATOM     18  C   UNL     1      -7.843  -7.812   7.750  0.00  0.00    +0.024 A 
ATOM     19  C   UNL     1      -7.911 -10.340   9.000  0.00  0.00    +0.273 A 
ATOM     20  C   UNL     1      -6.896  -9.310   9.389  0.00  0.00    +0.099 A 
ATOM     21  C   UNL     1      -6.895  -8.118   8.785  0.00  0.00    +0.030 A 
ENDROOT
BRANCH  20   9
ATOM      5  O   UNL     1      -4.058  -9.431   9.111  0.00  0.00    -0.270 OA
ATOM      9  N   UNL     1      -6.003  -9.630  10.370  0.00  0.00    -0.277 N 
ATOM     27  C   UNL     1      -4.630  -9.672  10.170  0.00  0.00    +0.248 C 
ATOM     37  H   UNL     1      -6.359  -9.594  11.321  0.00  0.00    +0.155 HD
BRANCH  27  30
ATOM     30  C   UNL     1      -3.816 -10.020  11.364  0.00  0.00    +0.037 A 
ATOM     31  C   UNL     1      -4.463 -10.364  12.533  0.00  0.00    +0.016 A 
ATOM     32  C   UNL     1      -2.441  -9.989  11.266  0.00  0.00    +0.016 A 
ATOM     33  C   UNL     1      -3.700 -10.691  13.653  0.00  0.00    +0.046 A 
ATOM     34  C   UNL     1      -1.677 -10.316  12.387  0.00  0.00    +0.046 A 
ATOM     35  C   UNL     1      -2.307 -10.668  13.580  0.00  0.00    +0.120 A 
BRANCH  35   6
ATOM      6  O   UNL     1      -1.563 -10.989  14.673  0.00  0.00    -0.495 OA
ATOM     36  C   UNL     1      -2.058 -10.570  15.944  0.00  0.00    +0.277 C 
ENDBRANCH  35   6
ENDBRANCH  27  30
ENDBRANCH  20   9
BRANCH   7   1
ATOM      1  S   UNL     1      -7.941 -10.836   3.516  0.00  0.00    +0.062 S 
ATOM      2  O   UNL     1      -7.618  -9.720   2.652  0.00  0.00    -0.153 OA
ATOM      3  O   UNL     1      -8.544 -12.040   2.983  0.00  0.00    -0.153 OA
BRANCH   1  22
ATOM     22  C   UNL     1      -6.467 -11.301   4.370  0.00  0.00    +0.123 A 
ATOM     23  C   UNL     1      -5.495 -12.083   3.763  0.00  0.00    +0.078 A 
ATOM     24  C   UNL     1      -6.312 -10.858   5.677  0.00  0.00    +0.030 A 
ATOM     25  C   UNL     1      -4.346 -12.429   4.475  0.00  0.00    +0.021 A 
ATOM     26  C   UNL     1      -5.163 -11.203   6.389  0.00  0.00    +0.002 A 
ATOM     28  C   UNL     1      -4.181 -11.990   5.788  0.00  0.00    +0.001 A 
BRANCH  23  29
ATOM     10  N   UNL     1      -5.745 -12.936   1.329  0.00  0.00    -0.191 NA
ATOM     29  C   UNL     1      -5.634 -12.554   2.418  0.00  0.00    +0.101 C 
ENDBRANCH  23  29
ENDBRANCH   1  22
ENDBRANCH   7   1
TORSDOF 6
ENDMDL
MODEL 9
REMARK VINA RESULT:      -6.3      4.541     10.945
REMARK  Name = 11884450
REMARK  7 active torsions:
REMARK  status: ('A' for Active; 'I' for Inactive)
REMARK    1  A    between atoms: S_1  and  N_7
REMARK    2  A    between atoms: S_1  and  C_22
REMARK    3  A    between atoms: O_6  and  C_35
REMARK    4  A    between atoms: O_6  and  C_36
REMARK    5  A    between atoms: N_9  and  C_20
REMARK    6  A    between atoms: C_23  and  C_29
REMARK    7  A    between atoms: C_27  and  C_30
REMARK                            x       y       z     vdW  Elec       q    Type
REMARK                         _______ _______ _______ _____ _____    ______ ____
ROOT
ATOM      4  O   UNL     1      20.875   3.256  20.789  0.00  0.00    -0.266 OA
ATOM      7  N   UNL     1      24.830   3.519  23.808  0.00  0.00    -0.176 NA
ATOM      8  N   UNL     1      23.132   3.742  21.150  0.00  0.00    -0.310 N 
ATOM     11  C   UNL     1      24.838   1.966  21.853  0.00  0.00    +0.025 C 
ATOM     12  C   UNL     1      25.555   4.297  21.560  0.00  0.00    +0.052 C 
ATOM     13  C   UNL     1      25.847   2.858  21.142  0.00  0.00    +0.017 C 
ATOM     14  C   UNL     1      24.979   2.100  23.378  0.00  0.00    +0.114 C 
ATOM     15  C   UNL     1      25.752   4.442  23.080  0.00  0.00    +0.119 C 
ATOM     16  C   UNL     1      23.429   2.319  21.362  0.00  0.00    +0.130 C 
ATOM     17  C   UNL     1      24.147   4.703  21.167  0.00  0.00    +0.026 A 
ATOM     18  C   UNL     1      23.872   5.982  20.859  0.00  0.00    +0.024 A 
ATOM     19  C   UNL     1      21.798   4.070  20.832  0.00  0.00    +0.273 A 
ATOM     20  C   UNL     1      21.529   5.509  20.518  0.00  0.00    +0.099 A 
ATOM     21  C   UNL     1      22.535   6.389  20.530  0.00  0.00    +0.030 A 
ENDROOT
BRANCH  20   9
ATOM      5  O   UNL     1      19.594   6.542  22.343  0.00  0.00    -0.270 OA
ATOM      9  N   UNL     1      20.248   5.870  20.216  0.00  0.00    -0.277 N 
ATOM     27  C   UNL     1      19.353   6.367  21.152  0.00  0.00    +0.248 C 
ATOM     37  H   UNL     1      20.047   5.999  19.228  0.00  0.00    +0.155 HD
BRANCH  27  30
ATOM     30  C   UNL     1      18.009   6.726  20.630  0.00  0.00    +0.037 A 
ATOM     31  C   UNL     1      17.301   7.734  21.252  0.00  0.00    +0.016 A 
ATOM     32  C   UNL     1      17.512   6.042  19.541  0.00  0.00    +0.016 A 
ATOM     33  C   UNL     1      16.039   8.071  20.763  0.00  0.00    +0.046 A 
ATOM     34  C   UNL     1      16.249   6.379  19.051  0.00  0.00    +0.046 A 
ATOM     35  C   UNL     1      15.514   7.394  19.661  0.00  0.00    +0.120 A 
BRANCH  35   6
ATOM      6  O   UNL     1      14.284   7.726  19.183  0.00  0.00    -0.495 OA
ATOM     36  C   UNL     1      13.182   6.926  19.609  0.00  0.00    +0.277 C 
ENDBRANCH  35   6
ENDBRANCH  27  30
ENDBRANCH  20   9
BRANCH   7   1
ATOM      1  S   UNL     1      24.711   3.773  25.496  0.00  0.00    +0.062 S 
ATOM      2  O   UNL     1      25.924   4.409  25.965  0.00  0.00    -0.153 OA
ATOM      3  O   UNL     1      24.213   2.566  26.120  0.00  0.00    -0.153 OA
BRANCH   1  22
ATOM     22  C   UNL     1      23.420   4.976  25.537  0.00  0.00    +0.123 A 
ATOM     23  C   UNL     1      22.945   5.487  26.736  0.00  0.00    +0.078 A 
ATOM     24  C   UNL     1      22.890   5.396  24.323  0.00  0.00    +0.030 A 
ATOM     25  C   UNL     1      21.922   6.436  26.723  0.00  0.00    +0.021 A 
ATOM     26  C   UNL     1      21.867   6.344  24.310  0.00  0.00    +0.002 A 
ATOM     28  C   UNL     1      21.383   6.863  25.511  0.00  0.00    +0.001 A 
BRANCH  23  29
ATOM     10  N   UNL     1      23.902   4.728  29.022  0.00  0.00    -0.191 NA
ATOM     29  C   UNL     1      23.473   5.068  28.000  0.00  0.00    +0.101 C 
ENDBRANCH  23  29
ENDBRANCH   1  22
ENDBRANCH   7   1
TORSDOF 6
ENDMDL
MODEL 10
REMARK VINA RESULT:      -6.2     23.703     27.315
REMARK  Name = 11884450
REMARK  7 active torsions:
REMARK  status: ('A' for Active; 'I' for Inactive)
REMARK    1  A    between atoms: S_1  and  N_7
REMARK    2  A    between atoms: S_1  and  C_22
REMARK    3  A    between atoms: O_6  and  C_35
REMARK    4  A    between atoms: O_6  and  C_36
REMARK    5  A    between atoms: N_9  and  C_20
REMARK    6  A    between atoms: C_23  and  C_29
REMARK    7  A    between atoms: C_27  and  C_30
REMARK                            x       y       z     vdW  Elec       q    Type
REMARK                         _______ _______ _______ _____ _____    ______ ____
ROOT
ATOM      4  O   UNL     1      -5.888  12.587  36.901  0.00  0.00    -0.266 OA
ATOM      7  N   UNL     1      -0.958  12.961  36.281  0.00  0.00    -0.176 NA
ATOM      8  N   UNL     1      -3.719  11.820  37.315  0.00  0.00    -0.310 N 
ATOM     11  C   UNL     1      -1.966  13.219  38.551  0.00  0.00    +0.025 C 
ATOM     12  C   UNL     1      -1.380  10.981  37.726  0.00  0.00    +0.052 C 
ATOM     13  C   UNL     1      -1.390  11.872  38.965  0.00  0.00    +0.017 C 
ATOM     14  C   UNL     1      -1.099  13.864  37.458  0.00  0.00    +0.114 C 
ATOM     15  C   UNL     1      -0.466  11.600  36.653  0.00  0.00    +0.119 C 
ATOM     16  C   UNL     1      -3.420  13.023  38.104  0.00  0.00    +0.130 C 
ATOM     17  C   UNL     1      -2.783  10.791  37.179  0.00  0.00    +0.026 A 
ATOM     18  C   UNL     1      -3.117   9.652  36.551  0.00  0.00    +0.024 A 
ATOM     19  C   UNL     1      -5.025  11.715  36.793  0.00  0.00    +0.273 A 
ATOM     20  C   UNL     1      -5.350  10.439  36.078  0.00  0.00    +0.099 A 
ATOM     21  C   UNL     1      -4.427   9.477  35.988  0.00  0.00    +0.030 A 
ENDROOT
BRANCH  20   9
ATOM      5  O   UNL     1      -7.537   9.035  37.256  0.00  0.00    -0.270 OA
ATOM      9  N   UNL     1      -6.599  10.303  35.548  0.00  0.00    -0.277 N 
ATOM     27  C   UNL     1      -7.623   9.605  36.172  0.00  0.00    +0.248 C 
ATOM     37  H   UNL     1      -6.832  10.944  34.794  0.00  0.00    +0.155 HD
BRANCH  27  30
ATOM     30  C   UNL     1      -8.922   9.584  35.450  0.00  0.00    +0.037 A 
ATOM     31  C   UNL     1      -8.949   9.947  34.119  0.00  0.00    +0.016 A 
ATOM     32  C   UNL     1     -10.058   9.202  36.132  0.00  0.00    +0.016 A 
ATOM     33  C   UNL     1     -10.168   9.928  33.442  0.00  0.00    +0.046 A 
ATOM     34  C   UNL     1     -11.277   9.183  35.454  0.00  0.00    +0.046 A 
ATOM     35  C   UNL     1     -11.332   9.545  34.109  0.00  0.00    +0.120 A 
BRANCH  35   6
ATOM      6  O   UNL     1     -12.520   9.524  33.445  0.00  0.00    -0.495 OA
ATOM     36  C   UNL     1     -12.555   8.840  32.194  0.00  0.00    +0.277 C 
ENDBRANCH  35   6
ENDBRANCH  27  30
ENDBRANCH  20   9
BRANCH   7   1
ATOM      1  S   UNL     1      -0.233  13.656  34.896  0.00  0.00    +0.062 S 
ATOM      2  O   UNL     1       0.760  12.742  34.373  0.00  0.00    -0.153 OA
ATOM      3  O   UNL     1       0.100  15.035  35.180  0.00  0.00    -0.153 OA
BRANCH   1  22
ATOM     22  C   UNL     1      -1.609  13.648  33.790  0.00  0.00    +0.123 A 
ATOM     23  C   UNL     1      -1.543  14.264  32.548  0.00  0.00    +0.078 A 
ATOM     24  C   UNL     1      -2.768  13.004  34.206  0.00  0.00    +0.030 A 
ATOM     25  C   UNL     1      -2.655  14.236  31.706  0.00  0.00    +0.021 A 
ATOM     26  C   UNL     1      -3.880  12.976  33.364  0.00  0.00    +0.002 A 
ATOM     28  C   UNL     1      -3.823  13.593  32.115  0.00  0.00    +0.001 A 
BRANCH  23  29
ATOM     10  N   UNL     1       0.595  15.481  31.734  0.00  0.00    -0.191 NA
ATOM     29  C   UNL     1      -0.362  14.936  32.099  0.00  0.00    +0.101 C 
ENDBRANCH  23  29
ENDBRANCH   1  22
ENDBRANCH   7   1
TORSDOF 6
ENDMDL
