MODEL 1
REMARK VINA RESULT:      -7.7      0.000      0.000
REMARK  Name = 45784195
REMARK  4 active torsions:
REMARK  status: ('A' for Active; 'I' for Inactive)
REMARK    1  A    between atoms: N_4  and  C_10
REMARK    2  A    between atoms: C_6  and  C_11
REMARK    3  A    between atoms: C_10  and  C_12
REMARK    4  A    between atoms: C_22  and  C_25
REMARK                            x       y       z     vdW  Elec       q    Type
REMARK                         _______ _______ _______ _____ _____    ______ ____
ROOT
ATOM      4  N   UNL     1      12.164   8.677  20.816  0.00  0.00    -0.297 NA
ATOM      6  C   UNL     1      14.244   8.343  19.787  0.00  0.00    +0.090 C 
ATOM      7  C   UNL     1      13.594   8.853  21.080  0.00  0.00    +0.097 C 
ATOM      8  C   UNL     1      13.212   7.373  19.188  0.00  0.00    +0.029 C 
ATOM      9  C   UNL     1      12.056   7.364  20.180  0.00  0.00    +0.085 C 
ENDROOT
BRANCH   6  11
ATOM      1  O   UNL     1      16.428   8.437  20.866  0.00  0.00    -0.439 OA
ATOM      5  N   UNL     1      16.131   6.659  19.492  0.00  0.00    -0.213 NA
ATOM     11  C   UNL     1      15.617   7.751  20.012  0.00  0.00    +0.201 A 
ATOM     13  C   UNL     1      17.389   6.610  20.041  0.00  0.00    +0.110 A 
ATOM     14  C   UNL     1      17.574   7.696  20.883  0.00  0.00    +0.155 A 
ATOM     18  C   UNL     1      18.435   5.687  19.885  0.00  0.00    +0.035 A 
ATOM     21  C   UNL     1      18.736   7.953  21.600  0.00  0.00    +0.049 A 
ATOM     22  C   UNL     1      19.624   5.913  20.594  0.00  0.00    -0.048 A 
ATOM     23  C   UNL     1      19.769   7.023  21.434  0.00  0.00    +0.007 A 
ATOM     25  C   UNL     1      20.755   4.948  20.448  0.00  0.00    +0.044 C 
ENDBRANCH   6  11
BRANCH   4  10
ATOM     10  C   UNL     1      11.360   8.775  22.025  0.00  0.00    +0.119 C 
BRANCH  10  12
ATOM      2  O   UNL     1      10.544  12.250  25.453  0.00  0.00    -0.453 OA
ATOM      3  O   UNL     1      10.764  14.043  23.859  0.00  0.00    -0.453 OA
ATOM     12  C   UNL     1      11.204  10.201  22.481  0.00  0.00    -0.030 A 
ATOM     15  C   UNL     1      10.937  10.474  23.826  0.00  0.00    +0.054 A 
ATOM     16  C   UNL     1      11.332  11.248  21.552  0.00  0.00    +0.009 A 
ATOM     17  C   UNL     1      10.806  11.796  24.197  0.00  0.00    +0.167 A 
ATOM     19  C   UNL     1      11.195  12.578  21.954  0.00  0.00    +0.050 A 
ATOM     20  C   UNL     1      10.930  12.820  23.286  0.00  0.00    +0.166 A 
ATOM     24  C   UNL     1      10.520  13.675  25.231  0.00  0.00    +0.466 C 
ENDBRANCH  10  12
ENDBRANCH   4  10
TORSDOF 3
ENDMDL
MODEL 2
REMARK VINA RESULT:      -7.2      4.126      5.661
REMARK  Name = 45784195
REMARK  4 active torsions:
REMARK  status: ('A' for Active; 'I' for Inactive)
REMARK    1  A    between atoms: N_4  and  C_10
REMARK    2  A    between atoms: C_6  and  C_11
REMARK    3  A    between atoms: C_10  and  C_12
REMARK    4  A    between atoms: C_22  and  C_25
REMARK                            x       y       z     vdW  Elec       q    Type
REMARK                         _______ _______ _______ _____ _____    ______ ____
ROOT
ATOM      4  N   UNL     1      12.043   7.774  18.537  0.00  0.00    -0.297 NA
ATOM      6  C   UNL     1      13.749   6.728  19.760  0.00  0.00    +0.090 C 
ATOM      7  C   UNL     1      13.444   7.370  18.400  0.00  0.00    +0.097 C 
ATOM      8  C   UNL     1      12.740   7.371  20.729  0.00  0.00    +0.029 C 
ATOM      9  C   UNL     1      11.947   8.354  19.877  0.00  0.00    +0.085 C 
ENDROOT
BRANCH   6  11
ATOM      1  O   UNL     1      16.065   5.988  19.593  0.00  0.00    -0.439 OA
ATOM      5  N   UNL     1      15.732   7.731  21.003  0.00  0.00    -0.213 NA
ATOM     11  C   UNL     1      15.198   6.869  20.167  0.00  0.00    +0.201 A 
ATOM     13  C   UNL     1      17.066   7.401  20.988  0.00  0.00    +0.110 A 
ATOM     14  C   UNL     1      17.273   6.335  20.125  0.00  0.00    +0.155 A 
ATOM     18  C   UNL     1      18.165   7.947  21.667  0.00  0.00    +0.035 A 
ATOM     21  C   UNL     1      18.507   5.748  19.874  0.00  0.00    +0.049 A 
ATOM     22  C   UNL     1      19.428   7.381  21.439  0.00  0.00    -0.048 A 
ATOM     23  C   UNL     1      19.593   6.305  20.559  0.00  0.00    +0.007 A 
ATOM     25  C   UNL     1      20.618   7.941  22.148  0.00  0.00    +0.044 C 
ENDBRANCH   6  11
BRANCH   4  10
ATOM     10  C   UNL     1      11.629   8.706  17.499  0.00  0.00    +0.119 C 
BRANCH  10  12
ATOM      2  O   UNL     1      15.134  10.112  14.301  0.00  0.00    -0.453 OA
ATOM      3  O   UNL     1      15.862  11.925  15.713  0.00  0.00    -0.453 OA
ATOM     12  C   UNL     1      12.763   9.588  17.052  0.00  0.00    -0.030 A 
ATOM     15  C   UNL     1      13.383   9.352  15.822  0.00  0.00    +0.054 A 
ATOM     16  C   UNL     1      13.189  10.646  17.876  0.00  0.00    +0.009 A 
ATOM     17  C   UNL     1      14.415  10.190  15.455  0.00  0.00    +0.167 A 
ATOM     19  C   UNL     1      14.237  11.479  17.479  0.00  0.00    +0.050 A 
ATOM     20  C   UNL     1      14.832  11.224  16.261  0.00  0.00    +0.166 A 
ATOM     24  C   UNL     1      16.048  11.215  14.471  0.00  0.00    +0.466 C 
ENDBRANCH  10  12
ENDBRANCH   4  10
TORSDOF 3
ENDMDL
MODEL 3
REMARK VINA RESULT:      -7.2     26.825     29.579
REMARK  Name = 45784195
REMARK  4 active torsions:
REMARK  status: ('A' for Active; 'I' for Inactive)
REMARK    1  A    between atoms: N_4  and  C_10
REMARK    2  A    between atoms: C_6  and  C_11
REMARK    3  A    between atoms: C_10  and  C_12
REMARK    4  A    between atoms: C_22  and  C_25
REMARK                            x       y       z     vdW  Elec       q    Type
REMARK                         _______ _______ _______ _____ _____    ______ ____
ROOT
ATOM      4  N   UNL     1      -2.173 -10.941  13.793  0.00  0.00    -0.297 NA
ATOM      6  C   UNL     1      -3.428 -10.335  15.679  0.00  0.00    +0.090 C 
ATOM      7  C   UNL     1      -3.564 -10.857  14.243  0.00  0.00    +0.097 C 
ATOM      8  C   UNL     1      -2.015 -10.762  16.116  0.00  0.00    +0.029 C 
ATOM      9  C   UNL     1      -1.445 -11.519  14.923  0.00  0.00    +0.085 C 
ENDROOT
BRANCH   6  11
ATOM      1  O   UNL     1      -5.525  -9.900  16.841  0.00  0.00    -0.439 OA
ATOM      5  N   UNL     1      -4.685 -11.980  17.161  0.00  0.00    -0.213 NA
ATOM     11  C   UNL     1      -4.541 -10.807  16.586  0.00  0.00    +0.201 A 
ATOM     13  C   UNL     1      -5.861 -11.847  17.859  0.00  0.00    +0.110 A 
ATOM     14  C   UNL     1      -6.379 -10.575  17.665  0.00  0.00    +0.155 A 
ATOM     18  C   UNL     1      -6.562 -12.747  18.677  0.00  0.00    +0.035 A 
ATOM     21  C   UNL     1      -7.559 -10.107  18.227  0.00  0.00    +0.049 A 
ATOM     22  C   UNL     1      -7.759 -12.309  19.262  0.00  0.00    -0.048 A 
ATOM     23  C   UNL     1      -8.246 -11.016  19.040  0.00  0.00    +0.007 A 
ATOM     25  C   UNL     1      -8.528 -13.244  20.139  0.00  0.00    +0.044 C 
ENDBRANCH   6  11
BRANCH   4  10
ATOM     10  C   UNL     1      -2.028 -11.730  12.579  0.00  0.00    +0.119 C 
BRANCH  10  12
ATOM      2  O   UNL     1      -5.163 -11.840   8.751  0.00  0.00    -0.453 OA
ATOM      3  O   UNL     1      -4.778  -9.521   8.217  0.00  0.00    -0.453 OA
ATOM     12  C   UNL     1      -2.748 -11.105  11.414  0.00  0.00    -0.030 A 
ATOM     15  C   UNL     1      -3.635 -11.872  10.654  0.00  0.00    +0.054 A 
ATOM     16  C   UNL     1      -2.524  -9.752  11.102  0.00  0.00    +0.009 A 
ATOM     17  C   UNL     1      -4.272 -11.254   9.599  0.00  0.00    +0.167 A 
ATOM     19  C   UNL     1      -3.183  -9.152  10.028  0.00  0.00    +0.050 A 
ATOM     20  C   UNL     1      -4.052  -9.931   9.293  0.00  0.00    +0.166 A 
ATOM     24  C   UNL     1      -5.479 -10.735   7.879  0.00  0.00    +0.466 C 
ENDBRANCH  10  12
ENDBRANCH   4  10
TORSDOF 3
ENDMDL
MODEL 4
REMARK VINA RESULT:      -7.1      3.722      5.836
REMARK  Name = 45784195
REMARK  4 active torsions:
REMARK  status: ('A' for Active; 'I' for Inactive)
REMARK    1  A    between atoms: N_4  and  C_10
REMARK    2  A    between atoms: C_6  and  C_11
REMARK    3  A    between atoms: C_10  and  C_12
REMARK    4  A    between atoms: C_22  and  C_25
REMARK                            x       y       z     vdW  Elec       q    Type
REMARK                         _______ _______ _______ _____ _____    ______ ____
ROOT
ATOM      4  N   UNL     1      16.946   6.612  20.167  0.00  0.00    -0.297 NA
ATOM      6  C   UNL     1      19.036   6.426  21.211  0.00  0.00    +0.090 C 
ATOM      7  C   UNL     1      18.228   5.925  20.007  0.00  0.00    +0.097 C 
ATOM      8  C   UNL     1      18.400   7.780  21.571  0.00  0.00    +0.029 C 
ATOM      9  C   UNL     1      17.295   7.982  20.542  0.00  0.00    +0.085 C 
ENDROOT
BRANCH   6  11
ATOM      1  O   UNL     1      21.157   5.270  20.887  0.00  0.00    -0.439 OA
ATOM      5  N   UNL     1      21.286   7.529  20.759  0.00  0.00    -0.213 NA
ATOM     11  C   UNL     1      20.523   6.475  20.944  0.00  0.00    +0.201 A 
ATOM     13  C   UNL     1      22.533   6.986  20.562  0.00  0.00    +0.110 A 
ATOM     14  C   UNL     1      22.457   5.603  20.639  0.00  0.00    +0.155 A 
ATOM     18  C   UNL     1      23.777   7.585  20.312  0.00  0.00    +0.035 A 
ATOM     21  C   UNL     1      23.537   4.742  20.487  0.00  0.00    +0.049 A 
ATOM     22  C   UNL     1      24.891   6.746  20.153  0.00  0.00    -0.048 A 
ATOM     23  C   UNL     1      24.771   5.354  20.238  0.00  0.00    +0.007 A 
ATOM     25  C   UNL     1      26.230   7.354  19.886  0.00  0.00    +0.044 C 
ENDBRANCH   6  11
BRANCH   4  10
ATOM     10  C   UNL     1      16.132   6.558  18.961  0.00  0.00    +0.119 C 
BRANCH  10  12
ATOM      2  O   UNL     1      12.007   6.769  21.687  0.00  0.00    -0.453 OA
ATOM      3  O   UNL     1      10.855   8.116  20.054  0.00  0.00    -0.453 OA
ATOM     12  C   UNL     1      14.715   6.992  19.221  0.00  0.00    -0.030 A 
ATOM     15  C   UNL     1      14.079   6.614  20.407  0.00  0.00    +0.054 A 
ATOM     16  C   UNL     1      14.042   7.778  18.268  0.00  0.00    +0.009 A 
ATOM     17  C   UNL     1      12.781   7.039  20.600  0.00  0.00    +0.167 A 
ATOM     19  C   UNL     1      12.728   8.194  18.490  0.00  0.00    +0.050 A 
ATOM     20  C   UNL     1      12.123   7.807  19.668  0.00  0.00    +0.166 A 
ATOM     24  C   UNL     1      10.788   7.455  21.333  0.00  0.00    +0.466 C 
ENDBRANCH  10  12
ENDBRANCH   4  10
TORSDOF 3
ENDMDL
MODEL 5
REMARK VINA RESULT:      -7.0      1.629      8.739
REMARK  Name = 45784195
REMARK  4 active torsions:
REMARK  status: ('A' for Active; 'I' for Inactive)
REMARK    1  A    between atoms: N_4  and  C_10
REMARK    2  A    between atoms: C_6  and  C_11
REMARK    3  A    between atoms: C_10  and  C_12
REMARK    4  A    between atoms: C_22  and  C_25
REMARK                            x       y       z     vdW  Elec       q    Type
REMARK                         _______ _______ _______ _____ _____    ______ ____
ROOT
ATOM      4  N   UNL     1      13.365   7.821  20.230  0.00  0.00    -0.297 NA
ATOM      6  C   UNL     1      12.115   8.833  21.936  0.00  0.00    +0.090 C 
ATOM      7  C   UNL     1      13.461   8.912  21.202  0.00  0.00    +0.097 C 
ATOM      8  C   UNL     1      11.165   8.155  20.934  0.00  0.00    +0.029 C 
ATOM      9  C   UNL     1      12.009   7.915  19.689  0.00  0.00    +0.085 C 
ENDROOT
BRANCH   6  11
ATOM      1  O   UNL     1      11.560  10.298  23.803  0.00  0.00    -0.439 OA
ATOM      5  N   UNL     1      11.306  11.241  21.758  0.00  0.00    -0.213 NA
ATOM     11  C   UNL     1      11.645  10.175  22.448  0.00  0.00    +0.201 A 
ATOM     13  C   UNL     1      10.966  12.152  22.729  0.00  0.00    +0.110 A 
ATOM     14  C   UNL     1      11.121  11.578  23.982  0.00  0.00    +0.155 A 
ATOM     18  C   UNL     1      10.520  13.479  22.641  0.00  0.00    +0.035 A 
ATOM     21  C   UNL     1      10.863  12.223  25.185  0.00  0.00    +0.049 A 
ATOM     22  C   UNL     1      10.250  14.163  23.835  0.00  0.00    -0.048 A 
ATOM     23  C   UNL     1      10.419  13.546  25.080  0.00  0.00    +0.007 A 
ATOM     25  C   UNL     1       9.773  15.578  23.775  0.00  0.00    +0.044 C 
ENDBRANCH   6  11
BRANCH   4  10
ATOM     10  C   UNL     1      14.382   7.911  19.193  0.00  0.00    +0.119 C 
BRANCH  10  12
ATOM      2  O   UNL     1      18.517   5.239  19.697  0.00  0.00    -0.453 OA
ATOM      3  O   UNL     1      19.535   6.871  21.150  0.00  0.00    -0.453 OA
ATOM     12  C   UNL     1      15.763   7.663  19.738  0.00  0.00    -0.030 A 
ATOM     15  C   UNL     1      16.445   6.492  19.395  0.00  0.00    +0.054 A 
ATOM     16  C   UNL     1      16.358   8.615  20.585  0.00  0.00    +0.009 A 
ATOM     17  C   UNL     1      17.709   6.312  19.917  0.00  0.00    +0.167 A 
ATOM     19  C   UNL     1      17.639   8.407  21.100  0.00  0.00    +0.050 A 
ATOM     20  C   UNL     1      18.290   7.243  20.747  0.00  0.00    +0.166 A 
ATOM     24  C   UNL     1      19.673   5.601  20.481  0.00  0.00    +0.466 C 
ENDBRANCH  10  12
ENDBRANCH   4  10
TORSDOF 3
ENDMDL
MODEL 6
REMARK VINA RESULT:      -7.0     18.498     21.790
REMARK  Name = 45784195
REMARK  4 active torsions:
REMARK  status: ('A' for Active; 'I' for Inactive)
REMARK    1  A    between atoms: N_4  and  C_10
REMARK    2  A    between atoms: C_6  and  C_11
REMARK    3  A    between atoms: C_10  and  C_12
REMARK    4  A    between atoms: C_22  and  C_25
REMARK                            x       y       z     vdW  Elec       q    Type
REMARK                         _______ _______ _______ _____ _____    ______ ____
ROOT
ATOM      4  N   UNL     1      11.606   5.318   1.010  0.00  0.00    -0.297 NA
ATOM      6  C   UNL     1      10.328   6.127   2.802  0.00  0.00    +0.090 C 
ATOM      7  C   UNL     1      10.774   4.831   2.112  0.00  0.00    +0.097 C 
ATOM      8  C   UNL     1      11.414   7.155   2.439  0.00  0.00    +0.029 C 
ATOM      9  C   UNL     1      12.420   6.384   1.594  0.00  0.00    +0.085 C 
ENDROOT
BRANCH   6  11
ATOM      1  O   UNL     1       9.514   7.011   4.922  0.00  0.00    -0.439 OA
ATOM      5  N   UNL     1      10.365   4.914   5.040  0.00  0.00    -0.213 NA
ATOM     11  C   UNL     1      10.089   5.953   4.284  0.00  0.00    +0.201 A 
ATOM     13  C   UNL     1       9.940   5.307   6.286  0.00  0.00    +0.110 A 
ATOM     14  C   UNL     1       9.418   6.590   6.217  0.00  0.00    +0.155 A 
ATOM     18  C   UNL     1       9.955   4.646   7.524  0.00  0.00    +0.035 A 
ATOM     21  C   UNL     1       8.899   7.292   7.298  0.00  0.00    +0.049 A 
ATOM     22  C   UNL     1       9.439   5.324   8.638  0.00  0.00    -0.048 A 
ATOM     23  C   UNL     1       8.921   6.620   8.525  0.00  0.00    +0.007 A 
ATOM     25  C   UNL     1       9.442   4.647   9.970  0.00  0.00    +0.044 C 
ENDBRANCH   6  11
BRANCH   4  10
ATOM     10  C   UNL     1      12.415   4.265   0.416  0.00  0.00    +0.119 C 
BRANCH  10  12
ATOM      2  O   UNL     1       9.259   4.561  -3.384  0.00  0.00    -0.453 OA
ATOM      3  O   UNL     1      10.298   2.722  -4.544  0.00  0.00    -0.453 OA
ATOM     12  C   UNL     1      11.872   3.823  -0.916  0.00  0.00    -0.030 A 
ATOM     15  C   UNL     1      10.772   4.484  -1.471  0.00  0.00    +0.054 A 
ATOM     16  C   UNL     1      12.478   2.750  -1.593  0.00  0.00    +0.009 A 
ATOM     17  C   UNL     1      10.313   4.044  -2.695  0.00  0.00    +0.167 A 
ATOM     19  C   UNL     1      11.992   2.325  -2.832  0.00  0.00    +0.050 A 
ATOM     20  C   UNL     1      10.905   2.994  -3.357  0.00  0.00    +0.166 A 
ATOM     24  C   UNL     1       9.256   3.718  -4.555  0.00  0.00    +0.466 C 
ENDBRANCH  10  12
ENDBRANCH   4  10
TORSDOF 3
ENDMDL
MODEL 7
REMARK VINA RESULT:      -7.0     18.180     20.580
REMARK  Name = 45784195
REMARK  4 active torsions:
REMARK  status: ('A' for Active; 'I' for Inactive)
REMARK    1  A    between atoms: N_4  and  C_10
REMARK    2  A    between atoms: C_6  and  C_11
REMARK    3  A    between atoms: C_10  and  C_12
REMARK    4  A    between atoms: C_22  and  C_25
REMARK                            x       y       z     vdW  Elec       q    Type
REMARK                         _______ _______ _______ _____ _____    ______ ____
ROOT
ATOM      4  N   UNL     1      10.778   5.744   3.434  0.00  0.00    -0.297 NA
ATOM      6  C   UNL     1      11.562   4.353   1.718  0.00  0.00    +0.090 C 
ATOM      7  C   UNL     1      10.276   4.920   2.333  0.00  0.00    +0.097 C 
ATOM      8  C   UNL     1      12.656   5.365   2.101  0.00  0.00    +0.029 C 
ATOM      9  C   UNL     1      11.931   6.454   2.880  0.00  0.00    +0.085 C 
ENDROOT
BRANCH   6  11
ATOM      1  O   UNL     1      12.558   3.613  -0.380  0.00  0.00    -0.439 OA
ATOM      5  N   UNL     1      10.387   4.245  -0.538  0.00  0.00    -0.213 NA
ATOM     11  C   UNL     1      11.437   4.084   0.236  0.00  0.00    +0.201 A 
ATOM     13  C   UNL     1      10.841   3.850  -1.773  0.00  0.00    +0.110 A 
ATOM     14  C   UNL     1      12.169   3.462  -1.680  0.00  0.00    +0.155 A 
ATOM     18  C   UNL     1      10.202   3.787  -3.021  0.00  0.00    +0.035 A 
ATOM     21  C   UNL     1      12.938   3.007  -2.744  0.00  0.00    +0.049 A 
ATOM     22  C   UNL     1      10.946   3.332  -4.119  0.00  0.00    -0.048 A 
ATOM     23  C   UNL     1      12.286   2.949  -3.982  0.00  0.00    +0.007 A 
ATOM     25  C   UNL     1      10.294   3.253  -5.461  0.00  0.00    +0.044 C 
ENDBRANCH   6  11
BRANCH   4  10
ATOM     10  C   UNL     1       9.767   6.652   3.956  0.00  0.00    +0.119 C 
BRANCH  10  12
ATOM      2  O   UNL     1       9.932   3.990   8.124  0.00  0.00    -0.453 OA
ATOM      3  O   UNL     1       8.961   5.764   9.435  0.00  0.00    -0.453 OA
ATOM     12  C   UNL     1       9.535   6.447   5.428  0.00  0.00    -0.030 A 
ATOM     15  C   UNL     1       9.886   5.233   6.025  0.00  0.00    +0.054 A 
ATOM     16  C   UNL     1       8.969   7.482   6.194  0.00  0.00    +0.009 A 
ATOM     17  C   UNL     1       9.657   5.094   7.377  0.00  0.00    +0.167 A 
ATOM     19  C   UNL     1       8.747   7.315   7.562  0.00  0.00    +0.050 A 
ATOM     20  C   UNL     1       9.102   6.106   8.126  0.00  0.00    +0.166 A 
ATOM     24  C   UNL     1       9.488   4.422   9.427  0.00  0.00    +0.466 C 
ENDBRANCH  10  12
ENDBRANCH   4  10
TORSDOF 3
ENDMDL
MODEL 8
REMARK VINA RESULT:      -6.8     27.043     30.330
REMARK  Name = 45784195
REMARK  4 active torsions:
REMARK  status: ('A' for Active; 'I' for Inactive)
REMARK    1  A    between atoms: N_4  and  C_10
REMARK    2  A    between atoms: C_6  and  C_11
REMARK    3  A    between atoms: C_10  and  C_12
REMARK    4  A    between atoms: C_22  and  C_25
REMARK                            x       y       z     vdW  Elec       q    Type
REMARK                         _______ _______ _______ _____ _____    ______ ____
ROOT
ATOM      4  N   UNL     1      -4.708 -11.776  17.180  0.00  0.00    -0.297 NA
ATOM      6  C   UNL     1      -6.275 -10.612  18.478  0.00  0.00    +0.090 C 
ATOM      7  C   UNL     1      -5.973 -11.054  17.039  0.00  0.00    +0.097 C 
ATOM      8  C   UNL     1      -5.524 -11.623  19.361  0.00  0.00    +0.029 C 
ATOM      9  C   UNL     1      -4.869 -12.591  18.384  0.00  0.00    +0.085 C 
ENDROOT
BRANCH   6  11
ATOM      1  O   UNL     1      -8.480  -9.783  17.855  0.00  0.00    -0.439 OA
ATOM      5  N   UNL     1      -8.436 -10.997  19.768  0.00  0.00    -0.213 NA
ATOM     11  C   UNL     1      -7.755 -10.498  18.761  0.00  0.00    +0.201 A 
ATOM     13  C   UNL     1      -9.722 -10.584  19.516  0.00  0.00    +0.110 A 
ATOM     14  C   UNL     1      -9.753  -9.841  18.345  0.00  0.00    +0.155 A 
ATOM     18  C   UNL     1     -10.918 -10.792  20.220  0.00  0.00    +0.035 A 
ATOM     21  C   UNL     1     -10.896  -9.270  17.800  0.00  0.00    +0.049 A 
ATOM     22  C   UNL     1     -12.093 -10.231  19.699  0.00  0.00    -0.048 A 
ATOM     23  C   UNL     1     -12.081  -9.487  18.514  0.00  0.00    +0.007 A 
ATOM     25  C   UNL     1     -13.383 -10.434  20.426  0.00  0.00    +0.044 C 
ENDBRANCH   6  11
BRANCH   4  10
ATOM     10  C   UNL     1      -4.392 -12.578  16.007  0.00  0.00    +0.119 C 
BRANCH  10  12
ATOM      2  O   UNL     1      -3.536 -10.838  11.454  0.00  0.00    -0.453 OA
ATOM      3  O   UNL     1      -1.516  -9.714  12.135  0.00  0.00    -0.453 OA
ATOM     12  C   UNL     1      -3.595 -11.802  14.994  0.00  0.00    -0.030 A 
ATOM     15  C   UNL     1      -4.033 -11.736  13.668  0.00  0.00    +0.054 A 
ATOM     16  C   UNL     1      -2.416 -11.145  15.390  0.00  0.00    +0.009 A 
ATOM     17  C   UNL     1      -3.269 -11.011  12.778  0.00  0.00    +0.167 A 
ATOM     19  C   UNL     1      -1.662 -10.417  14.468  0.00  0.00    +0.050 A 
ATOM     20  C   UNL     1      -2.116 -10.369  13.166  0.00  0.00    +0.166 A 
ATOM     24  C   UNL     1      -2.421 -10.015  11.053  0.00  0.00    +0.466 C 
ENDBRANCH  10  12
ENDBRANCH   4  10
TORSDOF 3
ENDMDL
MODEL 9
REMARK VINA RESULT:      -6.8      3.494      5.600
REMARK  Name = 45784195
REMARK  4 active torsions:
REMARK  status: ('A' for Active; 'I' for Inactive)
REMARK    1  A    between atoms: N_4  and  C_10
REMARK    2  A    between atoms: C_6  and  C_11
REMARK    3  A    between atoms: C_10  and  C_12
REMARK    4  A    between atoms: C_22  and  C_25
REMARK                            x       y       z     vdW  Elec       q    Type
REMARK                         _______ _______ _______ _____ _____    ______ ____
ROOT
ATOM      4  N   UNL     1      17.617   7.840  20.784  0.00  0.00    -0.297 NA
ATOM      6  C   UNL     1      19.544   6.541  20.475  0.00  0.00    +0.090 C 
ATOM      7  C   UNL     1      18.940   7.628  21.374  0.00  0.00    +0.097 C 
ATOM      8  C   UNL     1      18.329   5.809  19.878  0.00  0.00    +0.029 C 
ATOM      9  C   UNL     1      17.115   6.498  20.489  0.00  0.00    +0.085 C 
ENDROOT
BRANCH   6  11
ATOM      1  O   UNL     1      21.090   4.657  20.463  0.00  0.00    -0.439 OA
ATOM      5  N   UNL     1      20.905   5.712  22.460  0.00  0.00    -0.213 NA
ATOM     11  C   UNL     1      20.525   5.652  21.204  0.00  0.00    +0.201 A 
ATOM     13  C   UNL     1      21.797   4.673  22.571  0.00  0.00    +0.110 A 
ATOM     14  C   UNL     1      21.913   4.025  21.351  0.00  0.00    +0.155 A 
ATOM     18  C   UNL     1      22.551   4.209  23.660  0.00  0.00    +0.035 A 
ATOM     21  C   UNL     1      22.731   2.928  21.111  0.00  0.00    +0.049 A 
ATOM     22  C   UNL     1      23.390   3.103  23.456  0.00  0.00    -0.048 A 
ATOM     23  C   UNL     1      23.477   2.478  22.206  0.00  0.00    +0.007 A 
ATOM     25  C   UNL     1      24.206   2.586  24.595  0.00  0.00    +0.044 C 
ENDBRANCH   6  11
BRANCH   4  10
ATOM     10  C   UNL     1      16.728   8.583  21.664  0.00  0.00    +0.119 C 
BRANCH  10  12
ATOM      2  O   UNL     1      11.858   7.765  21.984  0.00  0.00    -0.453 OA
ATOM      3  O   UNL     1      11.437   8.701  19.804  0.00  0.00    -0.453 OA
ATOM     12  C   UNL     1      15.321   8.629  21.133  0.00  0.00    -0.030 A 
ATOM     15  C   UNL     1      14.269   8.132  21.908  0.00  0.00    +0.054 A 
ATOM     16  C   UNL     1      15.075   9.175  19.860  0.00  0.00    +0.009 A 
ATOM     17  C   UNL     1      12.997   8.199  21.379  0.00  0.00    +0.167 A 
ATOM     19  C   UNL     1      13.777   9.230  19.349  0.00  0.00    +0.050 A 
ATOM     20  C   UNL     1      12.757   8.733  20.134  0.00  0.00    +0.166 A 
ATOM     24  C   UNL     1      10.873   8.088  20.980  0.00  0.00    +0.466 C 
ENDBRANCH  10  12
ENDBRANCH   4  10
TORSDOF 3
ENDMDL
MODEL 10
REMARK VINA RESULT:      -6.7     27.715     29.992
REMARK  Name = 45784195
REMARK  4 active torsions:
REMARK  status: ('A' for Active; 'I' for Inactive)
REMARK    1  A    between atoms: N_4  and  C_10
REMARK    2  A    between atoms: C_6  and  C_11
REMARK    3  A    between atoms: C_10  and  C_12
REMARK    4  A    between atoms: C_22  and  C_25
REMARK                            x       y       z     vdW  Elec       q    Type
REMARK                         _______ _______ _______ _____ _____    ______ ____
ROOT
ATOM      4  N   UNL     1      -3.807 -10.924  14.768  0.00  0.00    -0.297 NA
ATOM      6  C   UNL     1      -5.160  -9.840  16.347  0.00  0.00    +0.090 C 
ATOM      7  C   UNL     1      -5.158 -10.378  14.909  0.00  0.00    +0.097 C 
ATOM      8  C   UNL     1      -4.082 -10.663  17.072  0.00  0.00    +0.029 C 
ATOM      9  C   UNL     1      -3.553 -11.633  16.023  0.00  0.00    +0.085 C 
ENDROOT
BRANCH   6  11
ATOM      1  O   UNL     1      -6.645 -10.674  18.089  0.00  0.00    -0.439 OA
ATOM      5  N   UNL     1      -7.621  -9.248  16.623  0.00  0.00    -0.213 NA
ATOM     11  C   UNL     1      -6.528  -9.880  16.988  0.00  0.00    +0.201 A 
ATOM     13  C   UNL     1      -8.546  -9.652  17.555  0.00  0.00    +0.110 A 
ATOM     14  C   UNL     1      -7.952 -10.525  18.455  0.00  0.00    +0.155 A 
ATOM     18  C   UNL     1      -9.903  -9.331  17.716  0.00  0.00    +0.035 A 
ATOM     21  C   UNL     1      -8.604 -11.123  19.526  0.00  0.00    +0.049 A 
ATOM     22  C   UNL     1     -10.594  -9.917  18.787  0.00  0.00    -0.048 A 
ATOM     23  C   UNL     1      -9.957 -10.793  19.673  0.00  0.00    +0.007 A 
ATOM     25  C   UNL     1     -12.040  -9.595  18.985  0.00  0.00    +0.044 C 
ENDBRANCH   6  11
BRANCH   4  10
ATOM     10  C   UNL     1      -3.677 -11.791  13.607  0.00  0.00    +0.119 C 
BRANCH  10  12
ATOM      2  O   UNL     1      -5.849 -10.268   9.429  0.00  0.00    -0.453 OA
ATOM      3  O   UNL     1      -3.947  -8.935   8.786  0.00  0.00    -0.453 OA
ATOM     12  C   UNL     1      -3.714 -11.013  12.319  0.00  0.00    -0.030 A 
ATOM     15  C   UNL     1      -4.851 -11.068  11.508  0.00  0.00    +0.054 A 
ATOM     16  C   UNL     1      -2.604 -10.235  11.943  0.00  0.00    +0.009 A 
ATOM     17  C   UNL     1      -4.838 -10.335  10.339  0.00  0.00    +0.167 A 
ATOM     19  C   UNL     1      -2.618  -9.504  10.754  0.00  0.00    +0.050 A 
ATOM     20  C   UNL     1      -3.753  -9.575   9.972  0.00  0.00    +0.166 A 
ATOM     24  C   UNL     1      -5.276  -9.379   8.448  0.00  0.00    +0.466 C 
ENDBRANCH  10  12
ENDBRANCH   4  10
TORSDOF 3
ENDMDL
