MODEL 1
REMARK VINA RESULT:      -7.2      0.000      0.000
REMARK  Name = 38028361
REMARK  11 active torsions:
REMARK  status: ('A' for Active; 'I' for Inactive)
REMARK    1  A    between atoms: N_4  and  C_14
REMARK    2  A    between atoms: N_5  and  C_21
REMARK    3  A    between atoms: C_7  and  C_11
REMARK    4  A    between atoms: C_8  and  C_14
REMARK    5  A    between atoms: C_10  and  C_15
REMARK    6  A    between atoms: C_11  and  C_16
REMARK    7  A    between atoms: C_11  and  C_17
REMARK    8  A    between atoms: C_12  and  C_18
REMARK    9  A    between atoms: C_15  and  C_19
REMARK   10  A    between atoms: C_20  and  C_22
REMARK   11  A    between atoms: C_21  and  C_23
REMARK                            x       y       z     vdW  Elec       q    Type
REMARK                         _______ _______ _______ _____ _____    ______ ____
ROOT
ATOM      7  C   UNL     1      -3.131 -12.160  12.707  0.00  0.00    +0.000 C 
ATOM      8  C   UNL     1      -2.048 -11.070  12.516  0.00  0.00    +0.032 C 
ATOM      9  C   UNL     1      -3.714 -12.581  11.348  0.00  0.00    +0.012 C 
ATOM     10  C   UNL     1      -4.342 -11.394  10.592  0.00  0.00    +0.023 C 
ATOM     12  C   UNL     1      -3.433 -10.181  10.593  0.00  0.00    -0.073 C 
ATOM     13  C   UNL     1      -2.406 -10.060  11.452  0.00  0.00    -0.022 C 
ATOM     18  C   UNL     1      -3.706  -9.130   9.553  0.00  0.00    +0.039 C 
ENDROOT
BRANCH   7  11
ATOM     11  C   UNL     1      -2.581 -13.389  13.437  0.00  0.00    -0.013 C 
ATOM     16  C   UNL     1      -3.570 -13.868  14.496  0.00  0.00    +0.007 C 
ATOM     17  C   UNL     1      -2.270 -14.504  12.443  0.00  0.00    +0.007 C 
ENDBRANCH   7  11
BRANCH   8  14
ATOM     14  C   UNL     1      -1.759 -10.343  13.834  0.00  0.00    +0.112 C 
BRANCH  14   4
ATOM      3  O   UNL     1      -1.909 -10.866  16.653  0.00  0.00    -0.270 OA
ATOM      4  N   UNL     1      -2.930 -10.288  14.651  0.00  0.00    -0.311 N 
ATOM     20  C   UNL     1      -2.914 -10.559  16.019  0.00  0.00    +0.244 C 
ATOM     33  H   UNL     1      -3.801 -10.047  14.192  0.00  0.00    +0.149 HD
BRANCH  20  22
ATOM      1  F   UNL     1      -7.853 -10.278  18.676  0.00  0.00    -0.205 F 
ATOM     22  C   UNL     1      -4.221 -10.485  16.722  0.00  0.00    +0.037 A 
ATOM     24  C   UNL     1      -4.389 -11.121  17.952  0.00  0.00    +0.016 A 
ATOM     25  C   UNL     1      -5.281  -9.779  16.153  0.00  0.00    +0.016 A 
ATOM     26  C   UNL     1      -5.615 -11.051  18.613  0.00  0.00    +0.039 A 
ATOM     27  C   UNL     1      -6.507  -9.709  16.812  0.00  0.00    +0.039 A 
ATOM     29  C   UNL     1      -6.674 -10.346  18.043  0.00  0.00    +0.123 A 
ENDBRANCH  20  22
ENDBRANCH  14   4
ENDBRANCH   8  14
BRANCH  10  15
ATOM     15  C   UNL     1      -5.723 -11.047  11.158  0.00  0.00    +0.103 C 
BRANCH  15  19
ATOM      2  O   UNL     1      -7.006 -12.089   9.392  0.00  0.00    -0.276 OA
ATOM      5  N   UNL     1      -7.514  -9.917  10.047  0.00  0.00    -0.310 N 
ATOM     19  C   UNL     1      -6.802 -11.107  10.101  0.00  0.00    +0.214 C 
ATOM     34  H   UNL     1      -7.270  -9.160  10.679  0.00  0.00    +0.149 HD
BRANCH   5  21
ATOM     21  C   UNL     1      -8.604  -9.690   9.127  0.00  0.00    +0.159 C 
BRANCH  21  23
ATOM      6  N   UNL     1     -10.034  -7.730   9.232  0.00  0.00    -0.258 NA
ATOM     23  C   UNL     1      -8.830  -8.229   8.873  0.00  0.00    +0.058 A 
ATOM     28  C   UNL     1      -7.819  -7.475   8.298  0.00  0.00    +0.025 A 
ATOM     30  C   UNL     1      -8.060  -6.123   8.078  0.00  0.00    +0.003 A 
ATOM     31  C   UNL     1     -10.232  -6.413   9.002  0.00  0.00    +0.111 A 
ATOM     32  C   UNL     1      -9.287  -5.574   8.433  0.00  0.00    +0.020 A 
ENDBRANCH  21  23
ENDBRANCH   5  21
ENDBRANCH  15  19
ENDBRANCH  10  15
TORSDOF 8
ENDMDL
MODEL 2
REMARK VINA RESULT:      -6.9      2.375      3.223
REMARK  Name = 38028361
REMARK  11 active torsions:
REMARK  status: ('A' for Active; 'I' for Inactive)
REMARK    1  A    between atoms: N_4  and  C_14
REMARK    2  A    between atoms: N_5  and  C_21
REMARK    3  A    between atoms: C_7  and  C_11
REMARK    4  A    between atoms: C_8  and  C_14
REMARK    5  A    between atoms: C_10  and  C_15
REMARK    6  A    between atoms: C_11  and  C_16
REMARK    7  A    between atoms: C_11  and  C_17
REMARK    8  A    between atoms: C_12  and  C_18
REMARK    9  A    between atoms: C_15  and  C_19
REMARK   10  A    between atoms: C_20  and  C_22
REMARK   11  A    between atoms: C_21  and  C_23
REMARK                            x       y       z     vdW  Elec       q    Type
REMARK                         _______ _______ _______ _____ _____    ______ ____
ROOT
ATOM      7  C   UNL     1      -3.074 -12.189  12.576  0.00  0.00    +0.000 C 
ATOM      8  C   UNL     1      -2.006 -11.072  12.475  0.00  0.00    +0.032 C 
ATOM      9  C   UNL     1      -3.615 -12.541  11.181  0.00  0.00    +0.012 C 
ATOM     10  C   UNL     1      -4.246 -11.324  10.478  0.00  0.00    +0.023 C 
ATOM     12  C   UNL     1      -3.359 -10.099  10.570  0.00  0.00    -0.073 C 
ATOM     13  C   UNL     1      -2.355 -10.010  11.461  0.00  0.00    -0.022 C 
ATOM     18  C   UNL     1      -3.625  -8.995   9.585  0.00  0.00    +0.039 C 
ENDROOT
BRANCH   7  11
ATOM     11  C   UNL     1      -2.521 -13.449  13.249  0.00  0.00    -0.013 C 
ATOM     16  C   UNL     1      -3.430 -13.885  14.394  0.00  0.00    +0.007 C 
ATOM     17  C   UNL     1      -2.358 -14.570  12.228  0.00  0.00    +0.007 C 
ENDBRANCH   7  11
BRANCH   8  14
ATOM     14  C   UNL     1      -1.762 -10.417  13.839  0.00  0.00    +0.112 C 
BRANCH  14   4
ATOM      3  O   UNL     1      -2.143 -10.911  16.642  0.00  0.00    -0.270 OA
ATOM      4  N   UNL     1      -2.985 -10.294  14.569  0.00  0.00    -0.311 N 
ATOM     20  C   UNL     1      -3.082 -10.555  15.936  0.00  0.00    +0.244 C 
ATOM     33  H   UNL     1      -3.806 -10.011  14.047  0.00  0.00    +0.149 HD
BRANCH  20  22
ATOM      1  F   UNL     1      -8.177  -9.993  18.227  0.00  0.00    -0.205 F 
ATOM     22  C   UNL     1      -4.431 -10.407  16.541  0.00  0.00    +0.037 A 
ATOM     24  C   UNL     1      -4.665 -10.860  17.840  0.00  0.00    +0.016 A 
ATOM     25  C   UNL     1      -5.462  -9.815  15.813  0.00  0.00    +0.016 A 
ATOM     26  C   UNL     1      -5.931 -10.721  18.409  0.00  0.00    +0.039 A 
ATOM     27  C   UNL     1      -6.727  -9.675  16.382  0.00  0.00    +0.039 A 
ATOM     29  C   UNL     1      -6.962 -10.128  17.680  0.00  0.00    +0.123 A 
ENDBRANCH  20  22
ENDBRANCH  14   4
ENDBRANCH   8  14
BRANCH  10  15
ATOM     15  C   UNL     1      -5.646 -11.032  11.027  0.00  0.00    +0.103 C 
BRANCH  15  19
ATOM      2  O   UNL     1      -7.907 -11.345  10.225  0.00  0.00    -0.276 OA
ATOM      5  N   UNL     1      -6.170 -11.126   8.696  0.00  0.00    -0.310 N 
ATOM     19  C   UNL     1      -6.715 -11.186   9.970  0.00  0.00    +0.214 C 
ATOM     34  H   UNL     1      -5.169 -10.989   8.586  0.00  0.00    +0.149 HD
BRANCH   5  21
ATOM     21  C   UNL     1      -6.959 -11.246   7.492  0.00  0.00    +0.159 C 
BRANCH  21  23
ATOM      6  N   UNL     1      -6.749 -11.639   5.104  0.00  0.00    -0.258 NA
ATOM     23  C   UNL     1      -6.112 -11.562   6.294  0.00  0.00    +0.058 A 
ATOM     28  C   UNL     1      -4.750 -11.755   6.457  0.00  0.00    +0.025 A 
ATOM     30  C   UNL     1      -3.993 -12.044   5.327  0.00  0.00    +0.003 A 
ATOM     31  C   UNL     1      -5.982 -11.923   4.029  0.00  0.00    +0.111 A 
ATOM     32  C   UNL     1      -4.613 -12.133   4.086  0.00  0.00    +0.020 A 
ENDBRANCH  21  23
ENDBRANCH   5  21
ENDBRANCH  15  19
ENDBRANCH  10  15
TORSDOF 8
ENDMDL
MODEL 3
REMARK VINA RESULT:      -6.8      2.813      4.586
REMARK  Name = 38028361
REMARK  11 active torsions:
REMARK  status: ('A' for Active; 'I' for Inactive)
REMARK    1  A    between atoms: N_4  and  C_14
REMARK    2  A    between atoms: N_5  and  C_21
REMARK    3  A    between atoms: C_7  and  C_11
REMARK    4  A    between atoms: C_8  and  C_14
REMARK    5  A    between atoms: C_10  and  C_15
REMARK    6  A    between atoms: C_11  and  C_16
REMARK    7  A    between atoms: C_11  and  C_17
REMARK    8  A    between atoms: C_12  and  C_18
REMARK    9  A    between atoms: C_15  and  C_19
REMARK   10  A    between atoms: C_20  and  C_22
REMARK   11  A    between atoms: C_21  and  C_23
REMARK                            x       y       z     vdW  Elec       q    Type
REMARK                         _______ _______ _______ _____ _____    ______ ____
ROOT
ATOM      7  C   UNL     1      -3.016 -12.252  12.702  0.00  0.00    +0.000 C 
ATOM      8  C   UNL     1      -1.966 -11.127  12.532  0.00  0.00    +0.032 C 
ATOM      9  C   UNL     1      -3.600 -12.652  11.338  0.00  0.00    +0.012 C 
ATOM     10  C   UNL     1      -4.269 -11.463  10.621  0.00  0.00    +0.023 C 
ATOM     12  C   UNL     1      -3.395 -10.226  10.647  0.00  0.00    -0.073 C 
ATOM     13  C   UNL     1      -2.363 -10.099  11.499  0.00  0.00    -0.022 C 
ATOM     18  C   UNL     1      -3.709  -9.155   9.640  0.00  0.00    +0.039 C 
ENDROOT
BRANCH   7  11
ATOM     11  C   UNL     1      -2.424 -13.485  13.393  0.00  0.00    -0.013 C 
ATOM     16  C   UNL     1      -3.331 -13.947  14.529  0.00  0.00    +0.007 C 
ATOM     17  C   UNL     1      -2.205 -14.607  12.383  0.00  0.00    +0.007 C 
ENDBRANCH   7  11
BRANCH   8  14
ATOM     14  C   UNL     1      -1.683 -10.428  13.867  0.00  0.00    +0.112 C 
BRANCH  14   4
ATOM      3  O   UNL     1      -2.013 -11.047  16.651  0.00  0.00    -0.270 OA
ATOM      4  N   UNL     1      -2.882 -10.297  14.634  0.00  0.00    -0.311 N 
ATOM     20  C   UNL     1      -2.955 -10.622  15.988  0.00  0.00    +0.244 C 
ATOM     33  H   UNL     1      -3.705  -9.958  14.149  0.00  0.00    +0.149 HD
BRANCH  20  22
ATOM      1  F   UNL     1      -7.967  -9.988  18.439  0.00  0.00    -0.205 F 
ATOM     22  C   UNL     1      -4.282 -10.455  16.636  0.00  0.00    +0.037 A 
ATOM     24  C   UNL     1      -4.458 -10.828  17.969  0.00  0.00    +0.016 A 
ATOM     25  C   UNL     1      -5.350  -9.924  15.914  0.00  0.00    +0.016 A 
ATOM     26  C   UNL     1      -5.703 -10.671  18.578  0.00  0.00    +0.039 A 
ATOM     27  C   UNL     1      -6.594  -9.766  16.522  0.00  0.00    +0.039 A 
ATOM     29  C   UNL     1      -6.771 -10.140  17.855  0.00  0.00    +0.123 A 
ENDBRANCH  20  22
ENDBRANCH  14   4
ENDBRANCH   8  14
BRANCH  10  15
ATOM     15  C   UNL     1      -5.653 -11.171  11.210  0.00  0.00    +0.103 C 
BRANCH  15  19
ATOM      2  O   UNL     1      -6.735 -13.241  10.580  0.00  0.00    -0.276 OA
ATOM      5  N   UNL     1      -6.788 -12.551  12.799  0.00  0.00    -0.310 N 
ATOM     19  C   UNL     1      -6.444 -12.435  11.460  0.00  0.00    +0.214 C 
ATOM     34  H   UNL     1      -6.499 -11.830  13.454  0.00  0.00    +0.149 HD
BRANCH   5  21
ATOM     21  C   UNL     1      -7.548 -13.661  13.325  0.00  0.00    +0.159 C 
BRANCH  21  23
ATOM      6  N   UNL     1      -8.951 -13.181  15.250  0.00  0.00    -0.258 NA
ATOM     23  C   UNL     1      -7.730 -13.562  14.812  0.00  0.00    +0.058 A 
ATOM     28  C   UNL     1      -6.665 -13.860  15.647  0.00  0.00    +0.025 A 
ATOM     30  C   UNL     1      -6.867 -13.761  17.019  0.00  0.00    +0.003 A 
ATOM     31  C   UNL     1      -9.109 -13.096  16.589  0.00  0.00    +0.111 A 
ATOM     32  C   UNL     1      -8.109 -13.372  17.508  0.00  0.00    +0.020 A 
ENDBRANCH  21  23
ENDBRANCH   5  21
ENDBRANCH  15  19
ENDBRANCH  10  15
TORSDOF 8
ENDMDL
MODEL 4
REMARK VINA RESULT:      -6.7     24.002     26.527
REMARK  Name = 38028361
REMARK  11 active torsions:
REMARK  status: ('A' for Active; 'I' for Inactive)
REMARK    1  A    between atoms: N_4  and  C_14
REMARK    2  A    between atoms: N_5  and  C_21
REMARK    3  A    between atoms: C_7  and  C_11
REMARK    4  A    between atoms: C_8  and  C_14
REMARK    5  A    between atoms: C_10  and  C_15
REMARK    6  A    between atoms: C_11  and  C_16
REMARK    7  A    between atoms: C_11  and  C_17
REMARK    8  A    between atoms: C_12  and  C_18
REMARK    9  A    between atoms: C_15  and  C_19
REMARK   10  A    between atoms: C_20  and  C_22
REMARK   11  A    between atoms: C_21  and  C_23
REMARK                            x       y       z     vdW  Elec       q    Type
REMARK                         _______ _______ _______ _____ _____    ______ ____
ROOT
ATOM      7  C   UNL     1       8.854   8.509   5.366  0.00  0.00    +0.000 C 
ATOM      8  C   UNL     1       8.817   8.070   6.851  0.00  0.00    +0.032 C 
ATOM      9  C   UNL     1       8.337   7.381   4.460  0.00  0.00    +0.012 C 
ATOM     10  C   UNL     1       9.164   6.089   4.609  0.00  0.00    +0.023 C 
ATOM     12  C   UNL     1       9.398   5.735   6.064  0.00  0.00    -0.073 C 
ATOM     13  C   UNL     1       9.226   6.630   7.052  0.00  0.00    -0.022 C 
ATOM     18  C   UNL     1       9.793   4.315   6.360  0.00  0.00    +0.039 C 
ENDROOT
BRANCH   7  11
ATOM     11  C   UNL     1       8.036   9.781   5.126  0.00  0.00    -0.013 C 
ATOM     16  C   UNL     1       8.947  10.931   4.708  0.00  0.00    +0.007 C 
ATOM     17  C   UNL     1       6.960   9.532   4.074  0.00  0.00    +0.007 C 
ENDBRANCH   7  11
BRANCH   8  14
ATOM     14  C   UNL     1       9.697   8.978   7.717  0.00  0.00    +0.112 C 
BRANCH  14   4
ATOM      3  O   UNL     1      11.591  11.001   6.969  0.00  0.00    -0.270 OA
ATOM      4  N   UNL     1      11.080   8.782   7.415  0.00  0.00    -0.311 N 
ATOM     20  C   UNL     1      11.934   9.825   7.058  0.00  0.00    +0.244 C 
ATOM     33  H   UNL     1      11.432   7.832   7.461  0.00  0.00    +0.149 HD
BRANCH  20  22
ATOM      1  F   UNL     1      17.240   8.416   5.882  0.00  0.00    -0.205 F 
ATOM     22  C   UNL     1      13.338   9.453   6.748  0.00  0.00    +0.037 A 
ATOM     24  C   UNL     1      13.686   8.110   6.596  0.00  0.00    +0.016 A 
ATOM     25  C   UNL     1      14.309  10.444   6.606  0.00  0.00    +0.016 A 
ATOM     26  C   UNL     1      15.003   7.759   6.304  0.00  0.00    +0.039 A 
ATOM     27  C   UNL     1      15.626  10.094   6.314  0.00  0.00    +0.039 A 
ATOM     29  C   UNL     1      15.974   8.751   6.163  0.00  0.00    +0.123 A 
ENDBRANCH  20  22
ENDBRANCH  14   4
ENDBRANCH   8  14
BRANCH  10  15
ATOM     15  C   UNL     1      10.489   6.190   3.847  0.00  0.00    +0.103 C 
BRANCH  15  19
ATOM      2  O   UNL     1       9.851   5.051   1.811  0.00  0.00    -0.276 OA
ATOM      5  N   UNL     1      11.680   4.287   3.025  0.00  0.00    -0.310 N 
ATOM     19  C   UNL     1      10.611   5.134   2.773  0.00  0.00    +0.214 C 
ATOM     34  H   UNL     1      12.255   4.438   3.849  0.00  0.00    +0.149 HD
BRANCH   5  21
ATOM     21  C   UNL     1      12.032   3.182   2.163  0.00  0.00    +0.159 C 
BRANCH  21  23
ATOM      6  N   UNL     1      12.770   3.789  -0.070  0.00  0.00    -0.258 NA
ATOM     23  C   UNL     1      13.133   3.543   1.209  0.00  0.00    +0.058 A 
ATOM     28  C   UNL     1      14.438   3.606   1.670  0.00  0.00    +0.025 A 
ATOM     30  C   UNL     1      15.434   3.945   0.761  0.00  0.00    +0.003 A 
ATOM     31  C   UNL     1      13.765   4.115  -0.925  0.00  0.00    +0.111 A 
ATOM     32  C   UNL     1      15.100   4.205  -0.564  0.00  0.00    +0.020 A 
ENDBRANCH  21  23
ENDBRANCH   5  21
ENDBRANCH  15  19
ENDBRANCH  10  15
TORSDOF 8
ENDMDL
MODEL 5
REMARK VINA RESULT:      -6.6      1.850      2.283
REMARK  Name = 38028361
REMARK  11 active torsions:
REMARK  status: ('A' for Active; 'I' for Inactive)
REMARK    1  A    between atoms: N_4  and  C_14
REMARK    2  A    between atoms: N_5  and  C_21
REMARK    3  A    between atoms: C_7  and  C_11
REMARK    4  A    between atoms: C_8  and  C_14
REMARK    5  A    between atoms: C_10  and  C_15
REMARK    6  A    between atoms: C_11  and  C_16
REMARK    7  A    between atoms: C_11  and  C_17
REMARK    8  A    between atoms: C_12  and  C_18
REMARK    9  A    between atoms: C_15  and  C_19
REMARK   10  A    between atoms: C_20  and  C_22
REMARK   11  A    between atoms: C_21  and  C_23
REMARK                            x       y       z     vdW  Elec       q    Type
REMARK                         _______ _______ _______ _____ _____    ______ ____
ROOT
ATOM      7  C   UNL     1      -3.793 -12.791  12.591  0.00  0.00    +0.000 C 
ATOM      8  C   UNL     1      -2.268 -12.585  12.764  0.00  0.00    +0.032 C 
ATOM      9  C   UNL     1      -4.254 -12.262  11.224  0.00  0.00    +0.012 C 
ATOM     10  C   UNL     1      -3.940 -10.764  11.043  0.00  0.00    +0.023 C 
ATOM     12  C   UNL     1      -2.518 -10.434  11.452  0.00  0.00    -0.073 C 
ATOM     13  C   UNL     1      -1.783 -11.266  12.211  0.00  0.00    -0.022 C 
ATOM     18  C   UNL     1      -1.946  -9.145  10.932  0.00  0.00    +0.039 C 
ENDROOT
BRANCH   7  11
ATOM     11  C   UNL     1      -4.190 -14.263  12.738  0.00  0.00    -0.013 C 
ATOM     16  C   UNL     1      -5.371 -14.404  13.694  0.00  0.00    +0.007 C 
ATOM     17  C   UNL     1      -4.521 -14.862  11.375  0.00  0.00    +0.007 C 
ENDBRANCH   7  11
BRANCH   8  14
ATOM     14  C   UNL     1      -1.858 -12.703  14.237  0.00  0.00    +0.112 C 
BRANCH  14   4
ATOM      3  O   UNL     1      -2.007 -10.331  15.847  0.00  0.00    -0.270 OA
ATOM      4  N   UNL     1      -2.935 -12.321  15.096  0.00  0.00    -0.311 N 
ATOM     20  C   UNL     1      -2.926 -11.146  15.846  0.00  0.00    +0.244 C 
ATOM     33  H   UNL     1      -3.726 -12.953  15.151  0.00  0.00    +0.149 HD
BRANCH  20  22
ATOM      1  F   UNL     1      -7.398 -10.238  19.117  0.00  0.00    -0.205 F 
ATOM     22  C   UNL     1      -4.110 -10.907  16.711  0.00  0.00    +0.037 A 
ATOM     24  C   UNL     1      -4.135 -11.406  18.013  0.00  0.00    +0.016 A 
ATOM     25  C   UNL     1      -5.196 -10.181  16.223  0.00  0.00    +0.016 A 
ATOM     26  C   UNL     1      -5.245 -11.181  18.826  0.00  0.00    +0.039 A 
ATOM     27  C   UNL     1      -6.306  -9.955  17.034  0.00  0.00    +0.039 A 
ATOM     29  C   UNL     1      -6.331 -10.455  18.337  0.00  0.00    +0.123 A 
ENDBRANCH  20  22
ENDBRANCH  14   4
ENDBRANCH   8  14
BRANCH  10  15
ATOM     15  C   UNL     1      -4.946  -9.892  11.801  0.00  0.00    +0.103 C 
BRANCH  15  19
ATOM      2  O   UNL     1      -5.089  -7.766  10.656  0.00  0.00    -0.276 OA
ATOM      5  N   UNL     1      -6.808  -9.313  10.416  0.00  0.00    -0.310 N 
ATOM     19  C   UNL     1      -5.591  -8.859  10.905  0.00  0.00    +0.214 C 
ATOM     34  H   UNL     1      -7.139 -10.236  10.679  0.00  0.00    +0.149 HD
BRANCH   5  21
ATOM     21  C   UNL     1      -7.645  -8.532   9.536  0.00  0.00    +0.159 C 
BRANCH  21  23
ATOM      6  N   UNL     1      -7.877  -7.930   7.194  0.00  0.00    -0.258 NA
ATOM     23  C   UNL     1      -7.326  -8.778   8.091  0.00  0.00    +0.058 A 
ATOM     28  C   UNL     1      -6.500  -9.837   7.749  0.00  0.00    +0.025 A 
ATOM     30  C   UNL     1      -6.221 -10.037   6.402  0.00  0.00    +0.003 A 
ATOM     31  C   UNL     1      -7.585  -8.156   5.894  0.00  0.00    +0.111 A 
ATOM     32  C   UNL     1      -6.771  -9.185   5.450  0.00  0.00    +0.020 A 
ENDBRANCH  21  23
ENDBRANCH   5  21
ENDBRANCH  15  19
ENDBRANCH  10  15
TORSDOF 8
ENDMDL
MODEL 6
REMARK VINA RESULT:      -6.5     24.939     28.697
REMARK  Name = 38028361
REMARK  11 active torsions:
REMARK  status: ('A' for Active; 'I' for Inactive)
REMARK    1  A    between atoms: N_4  and  C_14
REMARK    2  A    between atoms: N_5  and  C_21
REMARK    3  A    between atoms: C_7  and  C_11
REMARK    4  A    between atoms: C_8  and  C_14
REMARK    5  A    between atoms: C_10  and  C_15
REMARK    6  A    between atoms: C_11  and  C_16
REMARK    7  A    between atoms: C_11  and  C_17
REMARK    8  A    between atoms: C_12  and  C_18
REMARK    9  A    between atoms: C_15  and  C_19
REMARK   10  A    between atoms: C_20  and  C_22
REMARK   11  A    between atoms: C_21  and  C_23
REMARK                            x       y       z     vdW  Elec       q    Type
REMARK                         _______ _______ _______ _____ _____    ______ ____
ROOT
ATOM      7  C   UNL     1     -12.506   9.473  31.799  0.00  0.00    +0.000 C 
ATOM      8  C   UNL     1     -11.705  10.053  32.991  0.00  0.00    +0.032 C 
ATOM      9  C   UNL     1     -13.881   8.973  32.270  0.00  0.00    +0.012 C 
ATOM     10  C   UNL     1     -13.764   7.886  33.355  0.00  0.00    +0.023 C 
ATOM     12  C   UNL     1     -12.779   8.275  34.439  0.00  0.00    -0.073 C 
ATOM     13  C   UNL     1     -11.874   9.254  34.262  0.00  0.00    -0.022 C 
ATOM     18  C   UNL     1     -12.885   7.541  35.746  0.00  0.00    +0.039 C 
ENDROOT
BRANCH   7  11
ATOM     11  C   UNL     1     -12.686  10.502  30.679  0.00  0.00    -0.013 C 
ATOM     16  C   UNL     1     -11.803  10.151  29.485  0.00  0.00    +0.007 C 
ATOM     17  C   UNL     1     -14.151  10.586  30.263  0.00  0.00    +0.007 C 
ENDBRANCH   7  11
BRANCH   8  14
ATOM     14  C   UNL     1     -10.214  10.165  32.652  0.00  0.00    +0.112 C 
BRANCH  14   4
ATOM      3  O   UNL     1      -8.003  11.656  33.715  0.00  0.00    -0.270 OA
ATOM      4  N   UNL     1      -9.410   9.812  33.780  0.00  0.00    -0.311 N 
ATOM     20  C   UNL     1      -8.349  10.597  34.231  0.00  0.00    +0.244 C 
ATOM     33  H   UNL     1      -9.634   8.943  34.251  0.00  0.00    +0.149 HD
BRANCH  20  22
ATOM      1  F   UNL     1      -5.493   8.636  38.649  0.00  0.00    -0.205 F 
ATOM     22  C   UNL     1      -7.593  10.077  35.399  0.00  0.00    +0.037 A 
ATOM     24  C   UNL     1      -6.287  10.507  35.632  0.00  0.00    +0.016 A 
ATOM     25  C   UNL     1      -8.189   9.160  36.265  0.00  0.00    +0.016 A 
ATOM     26  C   UNL     1      -5.577  10.021  36.729  0.00  0.00    +0.039 A 
ATOM     27  C   UNL     1      -7.481   8.674  37.362  0.00  0.00    +0.039 A 
ATOM     29  C   UNL     1      -6.174   9.104  37.594  0.00  0.00    +0.123 A 
ENDBRANCH  20  22
ENDBRANCH  14   4
ENDBRANCH   8  14
BRANCH  10  15
ATOM     15  C   UNL     1     -13.400   6.530  32.742  0.00  0.00    +0.103 C 
BRANCH  15  19
ATOM      2  O   UNL     1     -15.492   5.658  33.589  0.00  0.00    -0.276 OA
ATOM      5  N   UNL     1     -13.797   4.185  32.990  0.00  0.00    -0.310 N 
ATOM     19  C   UNL     1     -14.362   5.440  33.158  0.00  0.00    +0.214 C 
ATOM     34  H   UNL     1     -12.852   4.106  32.624  0.00  0.00    +0.149 HD
BRANCH   5  21
ATOM     21  C   UNL     1     -14.490   2.958  33.309  0.00  0.00    +0.159 C 
BRANCH  21  23
ATOM      6  N   UNL     1     -14.922   0.732  32.438  0.00  0.00    -0.258 NA
ATOM     23  C   UNL     1     -14.393   1.953  32.199  0.00  0.00    +0.058 A 
ATOM     28  C   UNL     1     -13.783   2.313  31.008  0.00  0.00    +0.025 A 
ATOM     30  C   UNL     1     -13.712   1.359  29.999  0.00  0.00    +0.003 A 
ATOM     31  C   UNL     1     -14.833  -0.169  31.435  0.00  0.00    +0.111 A 
ATOM     32  C   UNL     1     -14.244   0.092  30.208  0.00  0.00    +0.020 A 
ENDBRANCH  21  23
ENDBRANCH   5  21
ENDBRANCH  15  19
ENDBRANCH  10  15
TORSDOF 8
ENDMDL
MODEL 7
REMARK VINA RESULT:      -6.4      4.181      6.827
REMARK  Name = 38028361
REMARK  11 active torsions:
REMARK  status: ('A' for Active; 'I' for Inactive)
REMARK    1  A    between atoms: N_4  and  C_14
REMARK    2  A    between atoms: N_5  and  C_21
REMARK    3  A    between atoms: C_7  and  C_11
REMARK    4  A    between atoms: C_8  and  C_14
REMARK    5  A    between atoms: C_10  and  C_15
REMARK    6  A    between atoms: C_11  and  C_16
REMARK    7  A    between atoms: C_11  and  C_17
REMARK    8  A    between atoms: C_12  and  C_18
REMARK    9  A    between atoms: C_15  and  C_19
REMARK   10  A    between atoms: C_20  and  C_22
REMARK   11  A    between atoms: C_21  and  C_23
REMARK                            x       y       z     vdW  Elec       q    Type
REMARK                         _______ _______ _______ _____ _____    ______ ____
ROOT
ATOM      7  C   UNL     1      -6.962 -11.297  17.789  0.00  0.00    +0.000 C 
ATOM      8  C   UNL     1      -6.520 -12.052  16.511  0.00  0.00    +0.032 C 
ATOM      9  C   UNL     1      -8.484 -11.084  17.787  0.00  0.00    +0.012 C 
ATOM     10  C   UNL     1      -8.957 -10.283  16.559  0.00  0.00    +0.023 C 
ATOM     12  C   UNL     1      -8.345 -10.807  15.275  0.00  0.00    -0.073 C 
ATOM     13  C   UNL     1      -7.264 -11.606  15.274  0.00  0.00    -0.022 C 
ATOM     18  C   UNL     1      -9.032 -10.425  13.993  0.00  0.00    +0.039 C 
ENDROOT
BRANCH   7  11
ATOM     11  C   UNL     1      -6.546 -12.040  19.063  0.00  0.00    -0.013 C 
ATOM     16  C   UNL     1      -5.778 -11.110  19.996  0.00  0.00    +0.007 C 
ATOM     17  C   UNL     1      -7.770 -12.622  19.763  0.00  0.00    +0.007 C 
ENDBRANCH   7  11
BRANCH   8  14
ATOM     14  C   UNL     1      -5.012 -11.909  16.280  0.00  0.00    +0.112 C 
BRANCH  14   4
ATOM      3  O   UNL     1      -2.547 -12.031  14.813  0.00  0.00    -0.270 OA
ATOM      4  N   UNL     1      -4.747 -11.320  15.004  0.00  0.00    -0.311 N 
ATOM     20  C   UNL     1      -3.516 -11.427  14.360  0.00  0.00    +0.244 C 
ATOM     33  H   UNL     1      -5.502 -10.798  14.573  0.00  0.00    +0.149 HD
BRANCH  20  22
ATOM      1  F   UNL     1      -3.053  -8.806   9.416  0.00  0.00    -0.205 F 
ATOM     22  C   UNL     1      -3.393 -10.735  13.051  0.00  0.00    +0.037 A 
ATOM     24  C   UNL     1      -4.536 -10.283  12.392  0.00  0.00    +0.016 A 
ATOM     25  C   UNL     1      -2.136 -10.534  12.482  0.00  0.00    +0.016 A 
ATOM     26  C   UNL     1      -4.422  -9.632  11.164  0.00  0.00    +0.039 A 
ATOM     27  C   UNL     1      -2.020  -9.883  11.255  0.00  0.00    +0.039 A 
ATOM     29  C   UNL     1      -3.164  -9.432  10.596  0.00  0.00    +0.123 A 
ENDBRANCH  20  22
ENDBRANCH  14   4
ENDBRANCH   8  14
BRANCH  10  15
ATOM     15  C   UNL     1      -8.675  -8.787  16.732  0.00  0.00    +0.103 C 
BRANCH  15  19
ATOM      2  O   UNL     1     -10.817  -8.255  17.722  0.00  0.00    -0.276 OA
ATOM      5  N   UNL     1      -9.984  -6.920  16.011  0.00  0.00    -0.310 N 
ATOM     19  C   UNL     1      -9.944  -7.984  16.900  0.00  0.00    +0.214 C 
ATOM     34  H   UNL     1      -9.210  -6.777  15.368  0.00  0.00    +0.149 HD
BRANCH   5  21
ATOM     21  C   UNL     1     -11.083  -5.985  15.947  0.00  0.00    +0.159 C 
BRANCH  21  23
ATOM      6  N   UNL     1     -11.866  -5.187  13.790  0.00  0.00    -0.258 NA
ATOM     23  C   UNL     1     -11.912  -6.176  14.711  0.00  0.00    +0.058 A 
ATOM     28  C   UNL     1     -12.668  -7.329  14.571  0.00  0.00    +0.025 A 
ATOM     30  C   UNL     1     -13.423  -7.477  13.413  0.00  0.00    +0.003 A 
ATOM     31  C   UNL     1     -12.613  -5.365  12.678  0.00  0.00    +0.111 A 
ATOM     32  C   UNL     1     -13.401  -6.481  12.444  0.00  0.00    +0.020 A 
ENDBRANCH  21  23
ENDBRANCH   5  21
ENDBRANCH  15  19
ENDBRANCH  10  15
TORSDOF 8
ENDMDL
MODEL 8
REMARK VINA RESULT:      -6.3      1.324      1.948
REMARK  Name = 38028361
REMARK  11 active torsions:
REMARK  status: ('A' for Active; 'I' for Inactive)
REMARK    1  A    between atoms: N_4  and  C_14
REMARK    2  A    between atoms: N_5  and  C_21
REMARK    3  A    between atoms: C_7  and  C_11
REMARK    4  A    between atoms: C_8  and  C_14
REMARK    5  A    between atoms: C_10  and  C_15
REMARK    6  A    between atoms: C_11  and  C_16
REMARK    7  A    between atoms: C_11  and  C_17
REMARK    8  A    between atoms: C_12  and  C_18
REMARK    9  A    between atoms: C_15  and  C_19
REMARK   10  A    between atoms: C_20  and  C_22
REMARK   11  A    between atoms: C_21  and  C_23
REMARK                            x       y       z     vdW  Elec       q    Type
REMARK                         _______ _______ _______ _____ _____    ______ ____
ROOT
ATOM      7  C   UNL     1      -3.452 -11.956  13.888  0.00  0.00    +0.000 C 
ATOM      8  C   UNL     1      -2.106 -11.305  14.292  0.00  0.00    +0.032 C 
ATOM      9  C   UNL     1      -3.454 -12.298  12.390  0.00  0.00    +0.012 C 
ATOM     10  C   UNL     1      -3.229 -11.054  11.509  0.00  0.00    +0.023 C 
ATOM     12  C   UNL     1      -2.073 -10.211  12.010  0.00  0.00    -0.073 C 
ATOM     13  C   UNL     1      -1.577 -10.347  13.252  0.00  0.00    -0.022 C 
ATOM     18  C   UNL     1      -1.471  -9.239  11.033  0.00  0.00    +0.039 C 
ENDROOT
BRANCH   7  11
ATOM     11  C   UNL     1      -3.744 -13.217  14.707  0.00  0.00    -0.013 C 
ATOM     16  C   UNL     1      -5.249 -13.437  14.829  0.00  0.00    +0.007 C 
ATOM     17  C   UNL     1      -3.069 -14.430  14.075  0.00  0.00    +0.007 C 
ENDBRANCH   7  11
BRANCH   8  14
ATOM     14  C   UNL     1      -2.225 -10.583  15.639  0.00  0.00    +0.112 C 
BRANCH  14   4
ATOM      3  O   UNL     1      -3.594 -11.343  18.045  0.00  0.00    -0.270 OA
ATOM      4  N   UNL     1      -3.594 -10.327  15.959  0.00  0.00    -0.311 N 
ATOM     20  C   UNL     1      -4.182 -10.734  17.156  0.00  0.00    +0.244 C 
ATOM     33  H   UNL     1      -4.144  -9.833  15.266  0.00  0.00    +0.149 HD
BRANCH  20  22
ATOM      1  F   UNL     1      -9.629  -9.529  17.792  0.00  0.00    -0.205 F 
ATOM     22  C   UNL     1      -5.623 -10.414  17.326  0.00  0.00    +0.037 A 
ATOM     24  C   UNL     1      -6.289  -9.662  16.357  0.00  0.00    +0.016 A 
ATOM     25  C   UNL     1      -6.311 -10.867  18.451  0.00  0.00    +0.016 A 
ATOM     26  C   UNL     1      -7.642  -9.362  16.515  0.00  0.00    +0.039 A 
ATOM     27  C   UNL     1      -7.664 -10.568  18.609  0.00  0.00    +0.039 A 
ATOM     29  C   UNL     1      -8.329  -9.815  17.640  0.00  0.00    +0.123 A 
ENDBRANCH  20  22
ENDBRANCH  14   4
ENDBRANCH   8  14
BRANCH  10  15
ATOM     15  C   UNL     1      -4.508 -10.219  11.394  0.00  0.00    +0.103 C 
BRANCH  15  19
ATOM      2  O   UNL     1      -4.771 -11.021   9.127  0.00  0.00    -0.276 OA
ATOM      5  N   UNL     1      -5.833  -9.058   9.776  0.00  0.00    -0.310 N 
ATOM     19  C   UNL     1      -5.032 -10.173   9.977  0.00  0.00    +0.214 C 
ATOM     34  H   UNL     1      -5.992  -8.412  10.545  0.00  0.00    +0.149 HD
BRANCH   5  21
ATOM     21  C   UNL     1      -6.467  -8.758   8.514  0.00  0.00    +0.159 C 
BRANCH  21  23
ATOM      6  N   UNL     1      -8.733  -8.656   9.382  0.00  0.00    -0.258 NA
ATOM     23  C   UNL     1      -7.759  -8.017   8.697  0.00  0.00    +0.058 A 
ATOM     28  C   UNL     1      -7.891  -6.742   8.169  0.00  0.00    +0.025 A 
ATOM     30  C   UNL     1      -9.100  -6.081   8.358  0.00  0.00    +0.003 A 
ATOM     31  C   UNL     1      -9.894  -7.983   9.544  0.00  0.00    +0.111 A 
ATOM     32  C   UNL     1     -10.126  -6.707   9.057  0.00  0.00    +0.020 A 
ENDBRANCH  21  23
ENDBRANCH   5  21
ENDBRANCH  15  19
ENDBRANCH  10  15
TORSDOF 8
ENDMDL
MODEL 9
REMARK VINA RESULT:      -6.2     24.063     27.081
REMARK  Name = 38028361
REMARK  11 active torsions:
REMARK  status: ('A' for Active; 'I' for Inactive)
REMARK    1  A    between atoms: N_4  and  C_14
REMARK    2  A    between atoms: N_5  and  C_21
REMARK    3  A    between atoms: C_7  and  C_11
REMARK    4  A    between atoms: C_8  and  C_14
REMARK    5  A    between atoms: C_10  and  C_15
REMARK    6  A    between atoms: C_11  and  C_16
REMARK    7  A    between atoms: C_11  and  C_17
REMARK    8  A    between atoms: C_12  and  C_18
REMARK    9  A    between atoms: C_15  and  C_19
REMARK   10  A    between atoms: C_20  and  C_22
REMARK   11  A    between atoms: C_21  and  C_23
REMARK                            x       y       z     vdW  Elec       q    Type
REMARK                         _______ _______ _______ _____ _____    ______ ____
ROOT
ATOM      7  C   UNL     1      14.401   4.515  -0.777  0.00  0.00    +0.000 C 
ATOM      8  C   UNL     1      13.354   3.393  -0.990  0.00  0.00    +0.032 C 
ATOM      9  C   UNL     1      14.888   4.524   0.680  0.00  0.00    +0.012 C 
ATOM     10  C   UNL     1      13.734   4.738   1.678  0.00  0.00    +0.023 C 
ATOM     12  C   UNL     1      12.548   3.847   1.367  0.00  0.00    -0.073 C 
ATOM     13  C   UNL     1      12.402   3.244   0.173  0.00  0.00    -0.022 C 
ATOM     18  C   UNL     1      11.556   3.629   2.474  0.00  0.00    +0.039 C 
ENDROOT
BRANCH   7  11
ATOM     11  C   UNL     1      15.598   4.365  -1.722  0.00  0.00    -0.013 C 
ATOM     16  C   UNL     1      15.752   5.610  -2.589  0.00  0.00    +0.007 C 
ATOM     17  C   UNL     1      16.872   4.096  -0.927  0.00  0.00    +0.007 C 
ENDBRANCH   7  11
BRANCH   8  14
ATOM     14  C   UNL     1      12.556   3.620  -2.278  0.00  0.00    +0.112 C 
BRANCH  14   4
ATOM      3  O   UNL     1       9.717   3.551  -2.704  0.00  0.00    -0.270 OA
ATOM      4  N   UNL     1      11.643   4.709  -2.124  0.00  0.00    -0.311 N 
ATOM     20  C   UNL     1      10.272   4.588  -2.353  0.00  0.00    +0.244 C 
ATOM     33  H   UNL     1      12.034   5.601  -1.844  0.00  0.00    +0.149 HD
BRANCH  20  22
ATOM      1  F   UNL     1       7.215   9.250  -1.684  0.00  0.00    -0.205 F 
ATOM     22  C   UNL     1       9.463   5.821  -2.175  0.00  0.00    +0.037 A 
ATOM     24  C   UNL     1       9.853   6.784  -1.244  0.00  0.00    +0.016 A 
ATOM     25  C   UNL     1       8.313   6.018  -2.940  0.00  0.00    +0.016 A 
ATOM     26  C   UNL     1       9.094   7.942  -1.077  0.00  0.00    +0.039 A 
ATOM     27  C   UNL     1       7.554   7.175  -2.775  0.00  0.00    +0.039 A 
ATOM     29  C   UNL     1       7.945   8.138  -1.843  0.00  0.00    +0.123 A 
ENDBRANCH  20  22
ENDBRANCH  14   4
ENDBRANCH   8  14
BRANCH  10  15
ATOM     15  C   UNL     1      13.315   6.211   1.732  0.00  0.00    +0.103 C 
BRANCH  15  19
ATOM      2  O   UNL     1      14.619   7.399   3.387  0.00  0.00    -0.276 OA
ATOM      5  N   UNL     1      12.484   6.655   3.930  0.00  0.00    -0.310 N 
ATOM     19  C   UNL     1      13.574   6.826   3.088  0.00  0.00    +0.214 C 
ATOM     34  H   UNL     1      11.661   6.168   3.589  0.00  0.00    +0.149 HD
BRANCH   5  21
ATOM     21  C   UNL     1      12.453   7.141   5.290  0.00  0.00    +0.159 C 
BRANCH  21  23
ATOM      6  N   UNL     1      11.571   6.545   7.473  0.00  0.00    -0.258 NA
ATOM     23  C   UNL     1      11.470   6.385   6.135  0.00  0.00    +0.058 A 
ATOM     28  C   UNL     1      10.526   5.579   5.520  0.00  0.00    +0.025 A 
ATOM     30  C   UNL     1       9.628   4.893   6.330  0.00  0.00    +0.003 A 
ATOM     31  C   UNL     1      10.683   5.862   8.229  0.00  0.00    +0.111 A 
ATOM     32  C   UNL     1       9.701   5.032   7.712  0.00  0.00    +0.020 A 
ENDBRANCH  21  23
ENDBRANCH   5  21
ENDBRANCH  15  19
ENDBRANCH  10  15
TORSDOF 8
ENDMDL
MODEL 10
REMARK VINA RESULT:      -6.2      5.321     10.562
REMARK  Name = 38028361
REMARK  11 active torsions:
REMARK  status: ('A' for Active; 'I' for Inactive)
REMARK    1  A    between atoms: N_4  and  C_14
REMARK    2  A    between atoms: N_5  and  C_21
REMARK    3  A    between atoms: C_7  and  C_11
REMARK    4  A    between atoms: C_8  and  C_14
REMARK    5  A    between atoms: C_10  and  C_15
REMARK    6  A    between atoms: C_11  and  C_16
REMARK    7  A    between atoms: C_11  and  C_17
REMARK    8  A    between atoms: C_12  and  C_18
REMARK    9  A    between atoms: C_15  and  C_19
REMARK   10  A    between atoms: C_20  and  C_22
REMARK   11  A    between atoms: C_21  and  C_23
REMARK                            x       y       z     vdW  Elec       q    Type
REMARK                         _______ _______ _______ _____ _____    ______ ____
ROOT
ATOM      7  C   UNL     1     -10.048  -8.873  16.569  0.00  0.00    +0.000 C 
ATOM      8  C   UNL     1     -11.381  -8.149  16.255  0.00  0.00    +0.032 C 
ATOM      9  C   UNL     1     -10.311 -10.334  16.963  0.00  0.00    +0.012 C 
ATOM     10  C   UNL     1     -11.231 -10.448  18.195  0.00  0.00    +0.023 C 
ATOM     12  C   UNL     1     -12.445  -9.550  18.075  0.00  0.00    -0.073 C 
ATOM     13  C   UNL     1     -12.499  -8.535  17.194  0.00  0.00    -0.022 C 
ATOM     18  C   UNL     1     -13.615  -9.872  18.963  0.00  0.00    +0.039 C 
ENDROOT
BRANCH   7  11
ATOM     11  C   UNL     1      -9.079  -8.823  15.383  0.00  0.00    -0.013 C 
ATOM     16  C   UNL     1      -7.816  -9.620  15.693  0.00  0.00    +0.007 C 
ATOM     17  C   UNL     1      -9.756  -9.350  14.121  0.00  0.00    +0.007 C 
ENDBRANCH   7  11
BRANCH   8  14
ATOM     14  C   UNL     1     -11.200  -6.627  16.274  0.00  0.00    +0.112 C 
BRANCH  14   4
ATOM      3  O   UNL     1     -13.575  -5.865  14.852  0.00  0.00    -0.270 OA
ATOM      4  N   UNL     1     -11.267  -6.091  14.951  0.00  0.00    -0.311 N 
ATOM     20  C   UNL     1     -12.469  -5.747  14.332  0.00  0.00    +0.244 C 
ATOM     33  H   UNL     1     -10.390  -5.973  14.457  0.00  0.00    +0.149 HD
BRANCH  20  22
ATOM      1  F   UNL     1     -12.093  -3.785   9.084  0.00  0.00    -0.205 F 
ATOM     22  C   UNL     1     -12.370  -5.228  12.943  0.00  0.00    +0.037 A 
ATOM     24  C   UNL     1     -12.302  -3.853  12.716  0.00  0.00    +0.016 A 
ATOM     25  C   UNL     1     -12.344  -6.114  11.867  0.00  0.00    +0.016 A 
ATOM     26  C   UNL     1     -12.209  -3.365  11.413  0.00  0.00    +0.039 A 
ATOM     27  C   UNL     1     -12.251  -5.628  10.564  0.00  0.00    +0.039 A 
ATOM     29  C   UNL     1     -12.183  -4.253  10.337  0.00  0.00    +0.123 A 
ENDBRANCH  20  22
ENDBRANCH  14   4
ENDBRANCH   8  14
BRANCH  10  15
ATOM     15  C   UNL     1     -10.461 -10.162  19.488  0.00  0.00    +0.103 C 
BRANCH  15  19
ATOM      2  O   UNL     1      -9.603 -12.349  20.067  0.00  0.00    -0.276 OA
ATOM      5  N   UNL     1      -8.118 -10.632  19.567  0.00  0.00    -0.310 N 
ATOM     19  C   UNL     1      -9.378 -11.185  19.744  0.00  0.00    +0.214 C 
ATOM     34  H   UNL     1      -8.033  -9.656  19.296  0.00  0.00    +0.149 HD
BRANCH   5  21
ATOM     21  C   UNL     1      -6.895 -11.380  19.747  0.00  0.00    +0.159 C 
BRANCH  21  23
ATOM      6  N   UNL     1      -5.114 -10.741  18.224  0.00  0.00    -0.258 NA
ATOM     23  C   UNL     1      -6.157 -11.570  18.454  0.00  0.00    +0.058 A 
ATOM     28  C   UNL     1      -6.566 -12.562  17.577  0.00  0.00    +0.025 A 
ATOM     30  C   UNL     1      -5.860 -12.713  16.389  0.00  0.00    +0.003 A 
ATOM     31  C   UNL     1      -4.452 -10.917  17.059  0.00  0.00    +0.111 A 
ATOM     32  C   UNL     1      -4.782 -11.878  16.117  0.00  0.00    +0.020 A 
ENDBRANCH  21  23
ENDBRANCH   5  21
ENDBRANCH  15  19
ENDBRANCH  10  15
TORSDOF 8
ENDMDL
